VeraChem MOL file


 13 13  0  0  0  0  0  0  0  0999 V2000     
   19.7183   18.9886   20.9308 C   0  0  0  0  0  0  0  0  0  0  0  0
   18.7843   19.2992   20.4443 H   0  0  0  0  0  0  0  0  0  0  0  0
   20.4603   18.7654   20.1549 H   0  0  0  0  0  0  0  0  0  0  0  0
   19.5460   17.9071   22.0480 C   0  0  0  0  0  0  0  0  0  0  0  0
   18.7356   17.1849   21.9012 H   0  0  0  0  0  0  0  0  0  0  0  0
   20.4625   17.3617   22.3053 H   0  0  0  0  0  0  0  0  0  0  0  0
   19.2227   19.1063   22.9894 C   0  0  0  0  0  0  0  0  0  0  0  0
   18.1777   19.4415   22.9366 H   0  0  0  0  0  0  0  0  0  0  0  0
   20.1961   19.9254   22.0890 C   0  0  0  0  0  0  0  0  0  0  0  0
   19.9615   20.9896   21.9763 H   0  0  0  0  0  0  0  0  0  0  0  0
   21.2561   19.8234   22.3531 H   0  0  0  0  0  0  0  0  0  0  0  0
   19.6299   18.9475   24.3286 O   0  0  0  0  0  0  0  0  0  0  0  0
   19.5217   19.8172   24.7704 H   0  0  0  0  0  0  0  0  0  0  0  0
  1  2  1  0  0  0  0
  1  3  1  0  0  0  0
  1  4  1  0  0  0  0
  4  5  1  0  0  0  0
  4  6  1  0  0  0  0
  4  7  1  0  0  0  0
  7  8  1  0  0  0  0
  1  9  1  0  0  0  0
  7  9  1  0  0  0  0
  9 10  1  0  0  0  0
  9 11  1  0  0  0  0
  7 12  1  0  0  0  0
 12 13  1  0  0  0  0
M  END
> <VConfSearch Rank>
1

> <Conf_Id>
22

> <Delta U+W>
0.000

> <U+W>
-3.131

> <U>
-0.154

> <W>
-2.978

> <W(PB)>
-4.579

> <W(SA)>
1.601

> <Valence>
6.333

> <Coulomb>
-7.439

> <VdW>
0.952

> <VdW6>
-2.120

> <VdW12>
3.072

> <Bond>
0.065

> <Angle>
0.931

> <Pdih>
5.338

> <Idih>
0.000

> <Tether>
0.000

$$$$
VeraChem MOL file


 13 13  0  0  0  0  0  0  0  0999 V2000     
   19.7184   18.9887   20.9308 C   0  0  0  0  0  0  0  0  0  0  0  0
   18.7845   19.2996   20.4442 H   0  0  0  0  0  0  0  0  0  0  0  0
   20.4604   18.7657   20.1549 H   0  0  0  0  0  0  0  0  0  0  0  0
   19.5460   17.9070   22.0478 C   0  0  0  0  0  0  0  0  0  0  0  0
   20.4632   17.3616   22.3028 H   0  0  0  0  0  0  0  0  0  0  0  0
   18.7360   17.1846   21.8986 H   0  0  0  0  0  0  0  0  0  0  0  0
   19.2226   19.1062   22.9894 C   0  0  0  0  0  0  0  0  0  0  0  0
   18.1791   19.4457   22.9367 H   0  0  0  0  0  0  0  0  0  0  0  0
   20.1960   19.9253   22.0893 C   0  0  0  0  0  0  0  0  0  0  0  0
   21.2554   19.8236   22.3556 H   0  0  0  0  0  0  0  0  0  0  0  0
   19.9609   20.9895   21.9789 H   0  0  0  0  0  0  0  0  0  0  0  0
   19.6301   18.9478   24.3286 O   0  0  0  0  0  0  0  0  0  0  0  0
   19.0296   18.2890   24.7392 H   0  0  0  0  0  0  0  0  0  0  0  0
  1  2  1  0  0  0  0
  1  3  1  0  0  0  0
  1  4  1  0  0  0  0
  4  5  1  0  0  0  0
  4  6  1  0  0  0  0
  4  7  1  0  0  0  0
  7  8  1  0  0  0  0
  1  9  1  0  0  0  0
  7  9  1  0  0  0  0
  9 10  1  0  0  0  0
  9 11  1  0  0  0  0
  7 12  1  0  0  0  0
 12 13  1  0  0  0  0
M  END
> <VConfSearch Rank>
2

> <Conf_Id>
19

> <Delta U+W>
-0.011

> <U+W>
-3.142

> <U>
-0.154

> <W>
-2.989

> <W(PB)>
-4.588

> <W(SA)>
1.599

> <Valence>
6.334

> <Coulomb>
-7.439

> <VdW>
0.951

> <VdW6>
-2.120

> <VdW12>
3.072

> <Bond>
0.065

> <Angle>
0.930

> <Pdih>
5.339

> <Idih>
0.000

> <Tether>
0.000

$$$$
VeraChem MOL file


 13 13  0  0  0  0  0  0  0  0999 V2000     
   20.3542   18.7758   21.3215 C   0  0  0  0  0  0  0  0  0  0  0  0
   20.4355   18.7713   20.2282 H   0  0  0  0  0  0  0  0  0  0  0  0
   21.3151   18.4573   21.7463 H   0  0  0  0  0  0  0  0  0  0  0  0
   19.1056   18.0483   21.9220 C   0  0  0  0  0  0  0  0  0  0  0  0
   18.2128   18.0766   21.2857 H   0  0  0  0  0  0  0  0  0  0  0  0
   19.2644   17.0174   22.2573 H   0  0  0  0  0  0  0  0  0  0  0  0
   19.1282   19.1362   23.0407 C   0  0  0  0  0  0  0  0  0  0  0  0
   18.1374   19.4460   23.3971 H   0  0  0  0  0  0  0  0  0  0  0  0
   19.7576   20.0727   21.9623 C   0  0  0  0  0  0  0  0  0  0  0  0
   20.4847   20.8058   22.3287 H   0  0  0  0  0  0  0  0  0  0  0  0
   19.0229   20.5923   21.3352 H   0  0  0  0  0  0  0  0  0  0  0  0
   19.9675   18.8420   24.1395 O   0  0  0  0  0  0  0  0  0  0  0  0
   20.0359   19.6580   24.6796 H   0  0  0  0  0  0  0  0  0  0  0  0
  1  2  1  0  0  0  0
  1  3  1  0  0  0  0
  1  4  1  0  0  0  0
  4  5  1  0  0  0  0
  4  6  1  0  0  0  0
  4  7  1  0  0  0  0
  7  8  1  0  0  0  0
  1  9  1  0  0  0  0
  7  9  1  0  0  0  0
  9 10  1  0  0  0  0
  9 11  1  0  0  0  0
  7 12  1  0  0  0  0
 12 13  1  0  0  0  0
M  END
> <VConfSearch Rank>
3

> <Conf_Id>
20

> <Delta U+W>
1.030

> <U+W>
-2.101

> <U>
0.841

> <W>
-2.942

> <W(PB)>
-4.530

> <W(SA)>
1.587

> <Valence>
6.736

> <Coulomb>
-7.246

> <VdW>
1.352

> <VdW6>
-2.500

> <VdW12>
3.851

> <Bond>
0.063

> <Angle>
0.687

> <Pdih>
5.986

> <Idih>
0.000

> <Tether>
0.000

$$$$
VeraChem MOL file


 13 13  0  0  0  0  0  0  0  0999 V2000     
   19.7178   18.9888   20.9313 C   0  0  0  0  0  0  0  0  0  0  0  0
   18.7835   19.2997   20.4454 H   0  0  0  0  0  0  0  0  0  0  0  0
   20.4590   18.7660   20.1544 H   0  0  0  0  0  0  0  0  0  0  0  0
   19.5458   17.9064   22.0476 C   0  0  0  0  0  0  0  0  0  0  0  0
   18.7333   17.1864   21.8999 H   0  0  0  0  0  0  0  0  0  0  0  0
   20.4619   17.3571   22.2973 H   0  0  0  0  0  0  0  0  0  0  0  0
   19.2242   19.1057   22.9896 C   0  0  0  0  0  0  0  0  0  0  0  0
   18.1800   19.4431   22.9385 H   0  0  0  0  0  0  0  0  0  0  0  0
   20.1962   19.9261   22.0889 C   0  0  0  0  0  0  0  0  0  0  0  0
   21.2577   19.8281   22.3478 H   0  0  0  0  0  0  0  0  0  0  0  0
   19.9583   20.9897   21.9776 H   0  0  0  0  0  0  0  0  0  0  0  0
   19.6290   18.9480   24.3287 O   0  0  0  0  0  0  0  0  0  0  0  0
   20.5619   18.6479   24.3112 H   0  0  0  0  0  0  0  0  0  0  0  0
  1  2  1  0  0  0  0
  1  3  1  0  0  0  0
  1  4  1  0  0  0  0
  4  5  1  0  0  0  0
  4  6  1  0  0  0  0
  4  7  1  0  0  0  0
  7  8  1  0  0  0  0
  1  9  1  0  0  0  0
  7  9  1  0  0  0  0
  9 10  1  0  0  0  0
  9 11  1  0  0  0  0
  7 12  1  0  0  0  0
 12 13  1  0  0  0  0
M  END
> <VConfSearch Rank>
4

> <Conf_Id>
24

> <Delta U+W>
0.356

> <U+W>
-2.775

> <U>
-0.184

> <W>
-2.591

> <W(PB)>
-4.184

> <W(SA)>
1.593

> <Valence>
6.840

> <Coulomb>
-7.916

> <VdW>
0.893

> <VdW6>
-2.167

> <VdW12>
3.060

> <Bond>
0.059

> <Angle>
0.918

> <Pdih>
5.862

> <Idih>
0.000

> <Tether>
0.000

$$$$
VeraChem MOL file


 13 13  0  0  0  0  0  0  0  0999 V2000     
   20.3521   18.7766   21.3180 C   0  0  0  0  0  0  0  0  0  0  0  0
   20.4220   18.7764   20.2237 H   0  0  0  0  0  0  0  0  0  0  0  0
   21.3188   18.4568   21.7271 H   0  0  0  0  0  0  0  0  0  0  0  0
   19.1068   18.0470   21.9241 C   0  0  0  0  0  0  0  0  0  0  0  0
   18.2125   18.0739   21.2897 H   0  0  0  0  0  0  0  0  0  0  0  0
   19.2661   17.0155   22.2577 H   0  0  0  0  0  0  0  0  0  0  0  0
   19.1276   19.1358   23.0412 C   0  0  0  0  0  0  0  0  0  0  0  0
   18.1381   19.4473   23.3995 H   0  0  0  0  0  0  0  0  0  0  0  0
   19.7594   20.0726   21.9655 C   0  0  0  0  0  0  0  0  0  0  0  0
   19.0250   20.5961   21.3413 H   0  0  0  0  0  0  0  0  0  0  0  0
   20.4866   20.8041   22.3351 H   0  0  0  0  0  0  0  0  0  0  0  0
   19.9671   18.8430   24.1372 O   0  0  0  0  0  0  0  0  0  0  0  0
   20.8297   18.5728   23.7599 H   0  0  0  0  0  0  0  0  0  0  0  0
  1  2  1  0  0  0  0
  1  3  1  0  0  0  0
  1  4  1  0  0  0  0
  4  5  1  0  0  0  0
  4  6  1  0  0  0  0
  4  7  1  0  0  0  0
  7  8  1  0  0  0  0
  1  9  1  0  0  0  0
  7  9  1  0  0  0  0
  9 10  1  0  0  0  0
  9 11  1  0  0  0  0
  7 12  1  0  0  0  0
 12 13  1  0  0  0  0
M  END
> <VConfSearch Rank>
5

> <Conf_Id>
44

> <Delta U+W>
0.823

> <U+W>
-2.308

> <U>
0.039

> <W>
-2.348

> <W(PB)>
-3.918

> <W(SA)>
1.571

> <Valence>
7.320

> <Coulomb>
-8.530

> <VdW>
1.249

> <VdW6>
-2.615

> <VdW12>
3.864

> <Bond>
0.056

> <Angle>
0.694

> <Pdih>
6.570

> <Idih>
0.000

> <Tether>
0.000

$$$$
VeraChem MOL file


 13 13  0  0  0  0  0  0  0  0999 V2000     
   18.9893   20.1705   22.1466 C   0  0  0  0  0  0  0  0  0  0  0  0
   19.3987   20.8601   21.3966 H   0  0  0  0  0  0  0  0  0  0  0  0
   18.0793   20.6126   22.5693 H   0  0  0  0  0  0  0  0  0  0  0  0
   20.0340   19.6305   23.1783 C   0  0  0  0  0  0  0  0  0  0  0  0
   20.8479   20.3134   23.4450 H   0  0  0  0  0  0  0  0  0  0  0  0
   19.6011   19.2207   24.0993 H   0  0  0  0  0  0  0  0  0  0  0  0
   20.3724   18.5638   22.0938 C   0  0  0  0  0  0  0  0  0  0  0  0
   21.0784   18.9174   21.3299 H   0  0  0  0  0  0  0  0  0  0  0  0
   18.8757   18.6831   21.6755 C   0  0  0  0  0  0  0  0  0  0  0  0
   18.6630   18.5291   20.6119 H   0  0  0  0  0  0  0  0  0  0  0  0
   18.1867   18.0667   22.2664 H   0  0  0  0  0  0  0  0  0  0  0  0
   20.7611   17.3036   22.5891 O   0  0  0  0  0  0  0  0  0  0  0  0
   20.7852   16.6863   21.8265 H   0  0  0  0  0  0  0  0  0  0  0  0
  1  2  1  0  0  0  0
  1  3  1  0  0  0  0
  1  4  1  0  0  0  0
  4  5  1  0  0  0  0
  4  6  1  0  0  0  0
  4  7  1  0  0  0  0
  7  8  1  0  0  0  0
  1  9  1  0  0  0  0
  7  9  1  0  0  0  0
  9 10  1  0  0  0  0
  9 11  1  0  0  0  0
  7 12  1  0  0  0  0
 12 13  1  0  0  0  0
M  END
> <VConfSearch Rank>
6

> <Conf_Id>
22

> <Delta U+W>
0.000

> <U+W>
-3.131

> <U>
-0.154

> <W>
-2.978

> <W(PB)>
-4.579

> <W(SA)>
1.601

> <Valence>
6.333

> <Coulomb>
-7.439

> <VdW>
0.952

> <VdW6>
-2.120

> <VdW12>
3.072

> <Bond>
0.065

> <Angle>
0.931

> <Pdih>
5.338

> <Idih>
0.000

> <Tether>
0.000

$$$$
VeraChem MOL file


 13 13  0  0  0  0  0  0  0  0999 V2000     
   19.9314   20.1363   22.6756 C   0  0  0  0  0  0  0  0  0  0  0  0
   19.4756   20.9378   22.0794 H   0  0  0  0  0  0  0  0  0  0  0  0
   20.5648   20.5903   23.4470 H   0  0  0  0  0  0  0  0  0  0  0  0
   20.5852   18.9882   21.8379 C   0  0  0  0  0  0  0  0  0  0  0  0
   21.3088   18.3742   22.3886 H   0  0  0  0  0  0  0  0  0  0  0  0
   21.0288   19.2823   20.8804 H   0  0  0  0  0  0  0  0  0  0  0  0
   19.1487   18.3878   21.7659 C   0  0  0  0  0  0  0  0  0  0  0  0
   18.5227   18.8230   20.9748 H   0  0  0  0  0  0  0  0  0  0  0  0
   18.9327   19.0367   23.1663 C   0  0  0  0  0  0  0  0  0  0  0  0
   19.2921   18.4316   24.0078 H   0  0  0  0  0  0  0  0  0  0  0  0
   17.9127   19.3720   23.3836 H   0  0  0  0  0  0  0  0  0  0  0  0
   19.0841   16.9808   21.7377 O   0  0  0  0  0  0  0  0  0  0  0  0
   19.3944   16.6933   20.8521 H   0  0  0  0  0  0  0  0  0  0  0  0
  1  2  1  0  0  0  0
  1  3  1  0  0  0  0
  1  4  1  0  0  0  0
  4  5  1  0  0  0  0
  4  6  1  0  0  0  0
  4  7  1  0  0  0  0
  7  8  1  0  0  0  0
  1  9  1  0  0  0  0
  7  9  1  0  0  0  0
  9 10  1  0  0  0  0
  9 11  1  0  0  0  0
  7 12  1  0  0  0  0
 12 13  1  0  0  0  0
M  END
> <VConfSearch Rank>
7

> <Conf_Id>
19

> <Delta U+W>
-0.011

> <U+W>
-3.142

> <U>
-0.154

> <W>
-2.989

> <W(PB)>
-4.588

> <W(SA)>
1.599

> <Valence>
6.334

> <Coulomb>
-7.439

> <VdW>
0.951

> <VdW6>
-2.120

> <VdW12>
3.072

> <Bond>
0.065

> <Angle>
0.930

> <Pdih>
5.339

> <Idih>
0.000

> <Tether>
0.000

$$$$
VeraChem MOL file


 13 13  0  0  0  0  0  0  0  0999 V2000     
   18.8950   18.2025   21.7812 C   0  0  0  0  0  0  0  0  0  0  0  0
   17.9739   17.6224   21.9113 H   0  0  0  0  0  0  0  0  0  0  0  0
   19.3077   17.9877   20.7869 H   0  0  0  0  0  0  0  0  0  0  0  0
   19.9339   18.1158   22.9483 C   0  0  0  0  0  0  0  0  0  0  0  0
   19.4919   17.9663   23.9408 H   0  0  0  0  0  0  0  0  0  0  0  0
   20.7481   17.3948   22.8151 H   0  0  0  0  0  0  0  0  0  0  0  0
   20.2833   19.6011   22.6210 C   0  0  0  0  0  0  0  0  0  0  0  0
   20.5318   20.2157   23.4958 H   0  0  0  0  0  0  0  0  0  0  0  0
   18.8057   19.7246   22.1335 C   0  0  0  0  0  0  0  0  0  0  0  0
   18.6335   20.4033   21.2909 H   0  0  0  0  0  0  0  0  0  0  0  0
   18.0894   19.9652   22.9285 H   0  0  0  0  0  0  0  0  0  0  0  0
   21.2607   19.7744   21.6146 O   0  0  0  0  0  0  0  0  0  0  0  0
   21.2667   20.7258   21.3761 H   0  0  0  0  0  0  0  0  0  0  0  0
  1  2  1  0  0  0  0
  1  3  1  0  0  0  0
  1  4  1  0  0  0  0
  4  5  1  0  0  0  0
  4  6  1  0  0  0  0
  4  7  1  0  0  0  0
  7  8  1  0  0  0  0
  1  9  1  0  0  0  0
  7  9  1  0  0  0  0
  9 10  1  0  0  0  0
  9 11  1  0  0  0  0
  7 12  1  0  0  0  0
 12 13  1  0  0  0  0
M  END
> <VConfSearch Rank>
8

> <Conf_Id>
20

> <Delta U+W>
1.030

> <U+W>
-2.101

> <U>
0.841

> <W>
-2.942

> <W(PB)>
-4.530

> <W(SA)>
1.587

> <Valence>
6.736

> <Coulomb>
-7.246

> <VdW>
1.352

> <VdW6>
-2.500

> <VdW12>
3.851

> <Bond>
0.063

> <Angle>
0.687

> <Pdih>
5.986

> <Idih>
0.000

> <Tether>
0.000

$$$$
VeraChem MOL file


 13 13  0  0  0  0  0  0  0  0999 V2000     
   19.7478   18.9871   23.4934 C   0  0  0  0  0  0  0  0  0  0  0  0
   19.8005   18.0329   24.0341 H   0  0  0  0  0  0  0  0  0  0  0  0
   19.7054   19.8023   24.2256 H   0  0  0  0  0  0  0  0  0  0  0  0
   18.6801   19.0334   22.3509 C   0  0  0  0  0  0  0  0  0  0  0  0
   17.7741   18.4392   22.5133 H   0  0  0  0  0  0  0  0  0  0  0  0
   18.3874   20.0435   22.0389 H   0  0  0  0  0  0  0  0  0  0  0  0
   19.7768   18.3669   21.4664 C   0  0  0  0  0  0  0  0  0  0  0  0
   19.8360   17.2759   21.5793 H   0  0  0  0  0  0  0  0  0  0  0  0
   20.7993   19.1478   22.3463 C   0  0  0  0  0  0  0  0  0  0  0  0
   20.9802   20.1835   22.0332 H   0  0  0  0  0  0  0  0  0  0  0  0
   21.7647   18.6547   22.5046 H   0  0  0  0  0  0  0  0  0  0  0  0
   19.7546   18.7238   20.1048 O   0  0  0  0  0  0  0  0  0  0  0  0
   19.7017   19.7018   20.0671 H   0  0  0  0  0  0  0  0  0  0  0  0
  1  2  1  0  0  0  0
  1  3  1  0  0  0  0
  1  4  1  0  0  0  0
  4  5  1  0  0  0  0
  4  6  1  0  0  0  0
  4  7  1  0  0  0  0
  7  8  1  0  0  0  0
  1  9  1  0  0  0  0
  7  9  1  0  0  0  0
  9 10  1  0  0  0  0
  9 11  1  0  0  0  0
  7 12  1  0  0  0  0
 12 13  1  0  0  0  0
M  END
> <VConfSearch Rank>
9

> <Conf_Id>
24

> <Delta U+W>
0.356

> <U+W>
-2.775

> <U>
-0.184

> <W>
-2.591

> <W(PB)>
-4.184

> <W(SA)>
1.593

> <Valence>
6.840

> <Coulomb>
-7.916

> <VdW>
0.893

> <VdW6>
-2.167

> <VdW12>
3.060

> <Bond>
0.059

> <Angle>
0.918

> <Pdih>
5.862

> <Idih>
0.000

> <Tether>
0.000

$$$$
VeraChem MOL file


 13 13  0  0  0  0  0  0  0  0999 V2000     
   19.7483   17.8477   22.2534 C   0  0  0  0  0  0  0  0  0  0  0  0
   20.3681   16.9614   22.0726 H   0  0  0  0  0  0  0  0  0  0  0  0
   18.7746   17.5172   22.6368 H   0  0  0  0  0  0  0  0  0  0  0  0
   19.6776   18.8836   21.0821 C   0  0  0  0  0  0  0  0  0  0  0  0
   20.5814   18.9295   20.4623 H   0  0  0  0  0  0  0  0  0  0  0  0
   18.8063   18.8080   20.4220 H   0  0  0  0  0  0  0  0  0  0  0  0
   19.6049   19.9860   22.1837 C   0  0  0  0  0  0  0  0  0  0  0  0
   20.1243   20.9204   21.9355 H   0  0  0  0  0  0  0  0  0  0  0  0
   20.4224   18.9985   23.0727 C   0  0  0  0  0  0  0  0  0  0  0  0
   21.5088   19.0725   22.9410 H   0  0  0  0  0  0  0  0  0  0  0  0
   20.1994   19.0228   24.1453 H   0  0  0  0  0  0  0  0  0  0  0  0
   18.3044   20.2674   22.6541 O   0  0  0  0  0  0  0  0  0  0  0  0
   17.8915   19.4030   22.8584 H   0  0  0  0  0  0  0  0  0  0  0  0
  1  2  1  0  0  0  0
  1  3  1  0  0  0  0
  1  4  1  0  0  0  0
  4  5  1  0  0  0  0
  4  6  1  0  0  0  0
  4  7  1  0  0  0  0
  7  8  1  0  0  0  0
  1  9  1  0  0  0  0
  7  9  1  0  0  0  0
  9 10  1  0  0  0  0
  9 11  1  0  0  0  0
  7 12  1  0  0  0  0
 12 13  1  0  0  0  0
M  END
> <VConfSearch Rank>
10

> <Conf_Id>
44

> <Delta U+W>
0.823

> <U+W>
-2.308

> <U>
0.039

> <W>
-2.348

> <W(PB)>
-3.918

> <W(SA)>
1.571

> <Valence>
7.320

> <Coulomb>
-8.530

> <VdW>
1.249

> <VdW6>
-2.615

> <VdW12>
3.864

> <Bond>
0.056

> <Angle>
0.694

> <Pdih>
6.570

> <Idih>
0.000

> <Tether>
0.000

$$$$
VeraChem MOL file


 13 13  0  0  0  0  0  0  0  0999 V2000     
   18.8650   18.9083   21.2092 C   0  0  0  0  0  0  0  0  0  0  0  0
   19.1660   18.1028   20.5265 H   0  0  0  0  0  0  0  0  0  0  0  0
   17.9285   19.3460   20.8434 H   0  0  0  0  0  0  0  0  0  0  0  0
   20.0022   19.9207   21.5686 C   0  0  0  0  0  0  0  0  0  0  0  0
   20.7450   20.1114   20.7864 H   0  0  0  0  0  0  0  0  0  0  0  0
   19.6533   20.8820   21.9659 H   0  0  0  0  0  0  0  0  0  0  0  0
   20.4147   18.8840   22.6567 C   0  0  0  0  0  0  0  0  0  0  0  0
   21.0471   18.0703   22.2759 H   0  0  0  0  0  0  0  0  0  0  0  0
   18.8990   18.5276   22.7262 C   0  0  0  0  0  0  0  0  0  0  0  0
   18.6637   17.4851   22.9671 H   0  0  0  0  0  0  0  0  0  0  0  0
   18.3060   19.1829   23.3764 H   0  0  0  0  0  0  0  0  0  0  0  0
   20.9597   19.4318   23.8346 O   0  0  0  0  0  0  0  0  0  0  0  0
   21.0226   18.7050   24.4911 H   0  0  0  0  0  0  0  0  0  0  0  0
  1  2  1  0  0  0  0
  1  3  1  0  0  0  0
  1  4  1  0  0  0  0
  4  5  1  0  0  0  0
  4  6  1  0  0  0  0
  4  7  1  0  0  0  0
  7  8  1  0  0  0  0
  1  9  1  0  0  0  0
  7  9  1  0  0  0  0
  9 10  1  0  0  0  0
  9 11  1  0  0  0  0
  7 12  1  0  0  0  0
 12 13  1  0  0  0  0
M  END
> <VConfSearch Rank>
11

> <Conf_Id>
22

> <Delta U+W>
0.000

> <U+W>
-3.131

> <U>
-0.154

> <W>
-2.978

> <W(PB)>
-4.579

> <W(SA)>
1.601

> <Valence>
6.333

> <Coulomb>
-7.439

> <VdW>
0.952

> <VdW6>
-2.120

> <VdW12>
3.072

> <Bond>
0.065

> <Angle>
0.931

> <Pdih>
5.338

> <Idih>
0.000

> <Tether>
0.000

$$$$
VeraChem MOL file


 13 13  0  0  0  0  0  0  0  0999 V2000     
   19.0771   19.8866   22.9621 C   0  0  0  0  0  0  0  0  0  0  0  0
   18.2844   20.4281   22.4292 H   0  0  0  0  0  0  0  0  0  0  0  0
   19.2172   20.3497   23.9462 H   0  0  0  0  0  0  0  0  0  0  0  0
   20.3770   19.6405   22.1273 C   0  0  0  0  0  0  0  0  0  0  0  0
   21.2676   19.4076   22.7243 H   0  0  0  0  0  0  0  0  0  0  0  0
   20.6348   20.4151   21.3967 H   0  0  0  0  0  0  0  0  0  0  0  0
   19.6321   18.3936   21.5620 C   0  0  0  0  0  0  0  0  0  0  0  0
   18.9513   18.6202   20.7301 H   0  0  0  0  0  0  0  0  0  0  0  0
   18.9276   18.3294   22.9507 C   0  0  0  0  0  0  0  0  0  0  0  0
   19.5001   17.8068   23.7270 H   0  0  0  0  0  0  0  0  0  0  0  0
   17.9030   17.9419   22.9475 H   0  0  0  0  0  0  0  0  0  0  0  0
   20.4522   17.2912   21.2512 O   0  0  0  0  0  0  0  0  0  0  0  0
   20.9576   17.5236   20.4427 H   0  0  0  0  0  0  0  0  0  0  0  0
  1  2  1  0  0  0  0
  1  3  1  0  0  0  0
  1  4  1  0  0  0  0
  4  5  1  0  0  0  0
  4  6  1  0  0  0  0
  4  7  1  0  0  0  0
  7  8  1  0  0  0  0
  1  9  1  0  0  0  0
  7  9  1  0  0  0  0
  9 10  1  0  0  0  0
  9 11  1  0  0  0  0
  7 12  1  0  0  0  0
 12 13  1  0  0  0  0
M  END
> <VConfSearch Rank>
12

> <Conf_Id>
19

> <Delta U+W>
-0.011

> <U+W>
-3.142

> <U>
-0.154

> <W>
-2.989

> <W(PB)>
-4.588

> <W(SA)>
1.599

> <Valence>
6.334

> <Coulomb>
-7.439

> <VdW>
0.951

> <VdW6>
-2.120

> <VdW12>
3.072

> <Bond>
0.065

> <Angle>
0.930

> <Pdih>
5.339

> <Idih>
0.000

> <Tether>
0.000

$$$$
VeraChem MOL file


 13 13  0  0  0  0  0  0  0  0999 V2000     
   18.4344   19.2271   22.0515 C   0  0  0  0  0  0  0  0  0  0  0  0
   17.6072   19.0012   21.3684 H   0  0  0  0  0  0  0  0  0  0  0  0
   18.0389   19.7874   22.9087 H   0  0  0  0  0  0  0  0  0  0  0  0
   19.7132   19.8523   21.4011 C   0  0  0  0  0  0  0  0  0  0  0  0
   19.8998   19.5348   20.3680 H   0  0  0  0  0  0  0  0  0  0  0  0
   19.7946   20.9436   21.4525 H   0  0  0  0  0  0  0  0  0  0  0  0
   20.5285   19.0604   22.4705 C   0  0  0  0  0  0  0  0  0  0  0  0
   21.4947   18.6776   22.1174 H   0  0  0  0  0  0  0  0  0  0  0  0
   19.3613   18.0250   22.4318 C   0  0  0  0  0  0  0  0  0  0  0  0
   19.1331   17.5234   23.3787 H   0  0  0  0  0  0  0  0  0  0  0  0
   19.4621   17.2641   21.6484 H   0  0  0  0  0  0  0  0  0  0  0  0
   20.6946   19.7274   23.7057 O   0  0  0  0  0  0  0  0  0  0  0  0
   21.0592   19.0754   24.3414 H   0  0  0  0  0  0  0  0  0  0  0  0
  1  2  1  0  0  0  0
  1  3  1  0  0  0  0
  1  4  1  0  0  0  0
  4  5  1  0  0  0  0
  4  6  1  0  0  0  0
  4  7  1  0  0  0  0
  7  8  1  0  0  0  0
  1  9  1  0  0  0  0
  7  9  1  0  0  0  0
  9 10  1  0  0  0  0
  9 11  1  0  0  0  0
  7 12  1  0  0  0  0
 12 13  1  0  0  0  0
M  END
> <VConfSearch Rank>
13

> <Conf_Id>
20

> <Delta U+W>
1.030

> <U+W>
-2.101

> <U>
0.841

> <W>
-2.942

> <W(PB)>
-4.530

> <W(SA)>
1.587

> <Valence>
6.736

> <Coulomb>
-7.246

> <VdW>
1.352

> <VdW6>
-2.500

> <VdW12>
3.851

> <Bond>
0.063

> <Angle>
0.687

> <Pdih>
5.986

> <Idih>
0.000

> <Tether>
0.000

$$$$
VeraChem MOL file


 13 13  0  0  0  0  0  0  0  0999 V2000     
   18.7365   18.8598   22.9953 C   0  0  0  0  0  0  0  0  0  0  0  0
   18.1722   17.9179   22.9983 H   0  0  0  0  0  0  0  0  0  0  0  0
   18.2726   19.5480   23.7120 H   0  0  0  0  0  0  0  0  0  0  0  0
   19.0287   19.4427   21.5733 C   0  0  0  0  0  0  0  0  0  0  0  0
   18.2681   19.2516   20.8082 H   0  0  0  0  0  0  0  0  0  0  0  0
   19.2813   20.5101   21.5594 H   0  0  0  0  0  0  0  0  0  0  0  0
   20.2541   18.4797   21.5647 C   0  0  0  0  0  0  0  0  0  0  0  0
   20.0092   17.4520   21.2637 H   0  0  0  0  0  0  0  0  0  0  0  0
   20.2879   18.6931   23.1082 C   0  0  0  0  0  0  0  0  0  0  0  0
   20.8220   19.5929   23.4375 H   0  0  0  0  0  0  0  0  0  0  0  0
   20.6394   17.8399   23.6988 H   0  0  0  0  0  0  0  0  0  0  0  0
   21.3837   18.9451   20.8653 O   0  0  0  0  0  0  0  0  0  0  0  0
   21.5530   19.8600   21.1733 H   0  0  0  0  0  0  0  0  0  0  0  0
  1  2  1  0  0  0  0
  1  3  1  0  0  0  0
  1  4  1  0  0  0  0
  4  5  1  0  0  0  0
  4  6  1  0  0  0  0
  4  7  1  0  0  0  0
  7  8  1  0  0  0  0
  1  9  1  0  0  0  0
  7  9  1  0  0  0  0
  9 10  1  0  0  0  0
  9 11  1  0  0  0  0
  7 12  1  0  0  0  0
 12 13  1  0  0  0  0
M  END
> <VConfSearch Rank>
14

> <Conf_Id>
24

> <Delta U+W>
0.356

> <U+W>
-2.775

> <U>
-0.184

> <W>
-2.591

> <W(PB)>
-4.184

> <W(SA)>
1.593

> <Valence>
6.840

> <Coulomb>
-7.916

> <VdW>
0.893

> <VdW6>
-2.167

> <VdW12>
3.060

> <Bond>
0.059

> <Angle>
0.918

> <Pdih>
5.862

> <Idih>
0.000

> <Tether>
0.000

$$$$
VeraChem MOL file


 13 13  0  0  0  0  0  0  0  0999 V2000     
   19.6917   19.9746   22.7172 C   0  0  0  0  0  0  0  0  0  0  0  0
   19.8222   21.0560   22.5911 H   0  0  0  0  0  0  0  0  0  0  0  0
   19.4652   19.7736   23.7720 H   0  0  0  0  0  0  0  0  0  0  0  0
   20.8139   19.0736   22.1015 C   0  0  0  0  0  0  0  0  0  0  0  0
   21.2968   19.4956   21.2117 H   0  0  0  0  0  0  0  0  0  0  0  0
   21.5935   18.7330   22.7921 H   0  0  0  0  0  0  0  0  0  0  0  0
   19.6857   18.0435   21.7852 C   0  0  0  0  0  0  0  0  0  0  0  0
   19.8161   17.4916   20.8455 H   0  0  0  0  0  0  0  0  0  0  0  0
   18.7348   19.2769   21.6937 C   0  0  0  0  0  0  0  0  0  0  0  0
   18.7079   19.7487   20.7039 H   0  0  0  0  0  0  0  0  0  0  0  0
   17.7046   19.1132   22.0295 H   0  0  0  0  0  0  0  0  0  0  0  0
   19.3923   17.1467   22.8346 O   0  0  0  0  0  0  0  0  0  0  0  0
   19.2872   17.6912   23.6419 H   0  0  0  0  0  0  0  0  0  0  0  0
  1  2  1  0  0  0  0
  1  3  1  0  0  0  0
  1  4  1  0  0  0  0
  4  5  1  0  0  0  0
  4  6  1  0  0  0  0
  4  7  1  0  0  0  0
  7  8  1  0  0  0  0
  1  9  1  0  0  0  0
  7  9  1  0  0  0  0
  9 10  1  0  0  0  0
  9 11  1  0  0  0  0
  7 12  1  0  0  0  0
 12 13  1  0  0  0  0
M  END
> <VConfSearch Rank>
15

> <Conf_Id>
44

> <Delta U+W>
0.823

> <U+W>
-2.308

> <U>
0.039

> <W>
-2.348

> <W(PB)>
-3.918

> <W(SA)>
1.571

> <Valence>
7.320

> <Coulomb>
-8.530

> <VdW>
1.249

> <VdW6>
-2.615

> <VdW12>
3.864

> <Bond>
0.056

> <Angle>
0.694

> <Pdih>
6.570

> <Idih>
0.000

> <Tether>
0.000

$$$$
VeraChem MOL file


 13 13  0  0  0  0  0  0  0  0999 V2000     
   19.2566   18.7575   21.0271 C   0  0  0  0  0  0  0  0  0  0  0  0
   20.0275   18.9104   20.2603 H   0  0  0  0  0  0  0  0  0  0  0  0
   18.3589   18.3518   20.5456 H   0  0  0  0  0  0  0  0  0  0  0  0
   19.0327   19.9763   21.9819 C   0  0  0  0  0  0  0  0  0  0  0  0
   19.1829   20.9686   21.5430 H   0  0  0  0  0  0  0  0  0  0  0  0
   18.0765   19.9694   22.5198 H   0  0  0  0  0  0  0  0  0  0  0  0
   20.2342   19.4056   22.7939 C   0  0  0  0  0  0  0  0  0  0  0  0
   21.2159   19.6987   22.3971 H   0  0  0  0  0  0  0  0  0  0  0  0
   19.7478   18.0067   22.3086 C   0  0  0  0  0  0  0  0  0  0  0  0
   20.5301   17.2548   22.1569 H   0  0  0  0  0  0  0  0  0  0  0  0
   18.9476   17.5662   22.9165 H   0  0  0  0  0  0  0  0  0  0  0  0
   20.1744   19.6151   24.1857 O   0  0  0  0  0  0  0  0  0  0  0  0
   20.8875   19.0768   24.5916 H   0  0  0  0  0  0  0  0  0  0  0  0
  1  2  1  0  0  0  0
  1  3  1  0  0  0  0
  1  4  1  0  0  0  0
  4  5  1  0  0  0  0
  4  6  1  0  0  0  0
  4  7  1  0  0  0  0
  7  8  1  0  0  0  0
  1  9  1  0  0  0  0
  7  9  1  0  0  0  0
  9 10  1  0  0  0  0
  9 11  1  0  0  0  0
  7 12  1  0  0  0  0
 12 13  1  0  0  0  0
M  END
> <VConfSearch Rank>
16

> <Conf_Id>
22

> <Delta U+W>
0.000

> <U+W>
-3.131

> <U>
-0.154

> <W>
-2.978

> <W(PB)>
-4.579

> <W(SA)>
1.601

> <Valence>
6.333

> <Coulomb>
-7.439

> <VdW>
0.952

> <VdW6>
-2.120

> <VdW12>
3.072

> <Bond>
0.065

> <Angle>
0.931

> <Pdih>
5.338

> <Idih>
0.000

> <Tether>
0.000

$$$$
VeraChem MOL file


 13 13  0  0  0  0  0  0  0  0999 V2000     
   18.6411   18.1310   21.8812 C   0  0  0  0  0  0  0  0  0  0  0  0
   18.9199   17.0692   21.8590 H   0  0  0  0  0  0  0  0  0  0  0  0
   17.6055   18.2287   21.5344 H   0  0  0  0  0  0  0  0  0  0  0  0
   19.6809   19.0948   21.2199 C   0  0  0  0  0  0  0  0  0  0  0  0
   19.2825   20.0792   20.9444 H   0  0  0  0  0  0  0  0  0  0  0  0
   20.2405   18.6902   20.3694 H   0  0  0  0  0  0  0  0  0  0  0  0
   20.4116   19.0539   22.5960 C   0  0  0  0  0  0  0  0  0  0  0  0
   21.0667   18.1817   22.7272 H   0  0  0  0  0  0  0  0  0  0  0  0
   18.9923   18.8721   23.2134 C   0  0  0  0  0  0  0  0  0  0  0  0
   18.4445   19.8085   23.3768 H   0  0  0  0  0  0  0  0  0  0  0  0
   18.9442   18.2715   24.1282 H   0  0  0  0  0  0  0  0  0  0  0  0
   21.0791   20.2400   22.9594 O   0  0  0  0  0  0  0  0  0  0  0  0
   21.8734   20.3134   22.3877 H   0  0  0  0  0  0  0  0  0  0  0  0
  1  2  1  0  0  0  0
  1  3  1  0  0  0  0
  1  4  1  0  0  0  0
  4  5  1  0  0  0  0
  4  6  1  0  0  0  0
  4  7  1  0  0  0  0
  7  8  1  0  0  0  0
  1  9  1  0  0  0  0
  7  9  1  0  0  0  0
  9 10  1  0  0  0  0
  9 11  1  0  0  0  0
  7 12  1  0  0  0  0
 12 13  1  0  0  0  0
M  END
> <VConfSearch Rank>
17

> <Conf_Id>
19

> <Delta U+W>
-0.011

> <U+W>
-3.142

> <U>
-0.154

> <W>
-2.989

> <W(PB)>
-4.588

> <W(SA)>
1.599

> <Valence>
6.334

> <Coulomb>
-7.439

> <VdW>
0.951

> <VdW6>
-2.120

> <VdW12>
3.072

> <Bond>
0.065

> <Angle>
0.930

> <Pdih>
5.339

> <Idih>
0.000

> <Tether>
0.000

$$$$
VeraChem MOL file


 13 13  0  0  0  0  0  0  0  0999 V2000     
   19.1827   18.3342   23.1733 C   0  0  0  0  0  0  0  0  0  0  0  0
   19.1915   17.3275   23.6075 H   0  0  0  0  0  0  0  0  0  0  0  0
   18.5746   18.9871   23.8129 H   0  0  0  0  0  0  0  0  0  0  0  0
   18.8458   18.4229   21.6476 C   0  0  0  0  0  0  0  0  0  0  0  0
   19.1642   17.5534   21.0600 H   0  0  0  0  0  0  0  0  0  0  0  0
   17.8042   18.6526   21.3974 H   0  0  0  0  0  0  0  0  0  0  0  0
   19.8369   19.6273   21.5958 C   0  0  0  0  0  0  0  0  0  0  0  0
   20.4190   19.7007   20.6681 H   0  0  0  0  0  0  0  0  0  0  0  0
   20.5764   18.9258   22.7779 C   0  0  0  0  0  0  0  0  0  0  0  0
   21.0426   19.5899   23.5140 H   0  0  0  0  0  0  0  0  0  0  0  0
   21.3147   18.1776   22.4647 H   0  0  0  0  0  0  0  0  0  0  0  0
   19.2655   20.8817   21.9091 O   0  0  0  0  0  0  0  0  0  0  0  0
   20.0037   21.5188   22.0157 H   0  0  0  0  0  0  0  0  0  0  0  0
  1  2  1  0  0  0  0
  1  3  1  0  0  0  0
  1  4  1  0  0  0  0
  4  5  1  0  0  0  0
  4  6  1  0  0  0  0
  4  7  1  0  0  0  0
  7  8  1  0  0  0  0
  1  9  1  0  0  0  0
  7  9  1  0  0  0  0
  9 10  1  0  0  0  0
  9 11  1  0  0  0  0
  7 12  1  0  0  0  0
 12 13  1  0  0  0  0
M  END
> <VConfSearch Rank>
18

> <Conf_Id>
20

> <Delta U+W>
1.030

> <U+W>
-2.101

> <U>
0.841

> <W>
-2.942

> <W(PB)>
-4.530

> <W(SA)>
1.587

> <Valence>
6.736

> <Coulomb>
-7.246

> <VdW>
1.352

> <VdW6>
-2.500

> <VdW12>
3.851

> <Bond>
0.063

> <Angle>
0.687

> <Pdih>
5.986

> <Idih>
0.000

> <Tether>
0.000

$$$$
VeraChem MOL file


 13 13  0  0  0  0  0  0  0  0999 V2000     
   20.5404   19.8978   21.8644 C   0  0  0  0  0  0  0  0  0  0  0  0
   20.9992   19.8449   20.8683 H   0  0  0  0  0  0  0  0  0  0  0  0
   20.8920   20.8086   22.3638 H   0  0  0  0  0  0  0  0  0  0  0  0
   20.6333   18.5774   22.6983 C   0  0  0  0  0  0  0  0  0  0  0  0
   21.5261   17.9644   22.5328 H   0  0  0  0  0  0  0  0  0  0  0  0
   20.4908   18.7073   23.7782 H   0  0  0  0  0  0  0  0  0  0  0  0
   19.3575   18.1394   21.9175 C   0  0  0  0  0  0  0  0  0  0  0  0
   19.5674   17.7126   20.9274 H   0  0  0  0  0  0  0  0  0  0  0  0
   18.9951   19.6550   21.8865 C   0  0  0  0  0  0  0  0  0  0  0  0
   18.4865   20.0257   22.7849 H   0  0  0  0  0  0  0  0  0  0  0  0
   18.4412   19.9936   21.0040 H   0  0  0  0  0  0  0  0  0  0  0  0
   18.4638   17.3188   22.6316 O   0  0  0  0  0  0  0  0  0  0  0  0
   18.3151   17.7474   23.5005 H   0  0  0  0  0  0  0  0  0  0  0  0
  1  2  1  0  0  0  0
  1  3  1  0  0  0  0
  1  4  1  0  0  0  0
  4  5  1  0  0  0  0
  4  6  1  0  0  0  0
  4  7  1  0  0  0  0
  7  8  1  0  0  0  0
  1  9  1  0  0  0  0
  7  9  1  0  0  0  0
  9 10  1  0  0  0  0
  9 11  1  0  0  0  0
  7 12  1  0  0  0  0
 12 13  1  0  0  0  0
M  END
> <VConfSearch Rank>
19

> <Conf_Id>
24

> <Delta U+W>
0.356

> <U+W>
-2.775

> <U>
-0.184

> <W>
-2.591

> <W(PB)>
-4.184

> <W(SA)>
1.593

> <Valence>
6.840

> <Coulomb>
-7.916

> <VdW>
0.893

> <VdW6>
-2.167

> <VdW12>
3.060

> <Bond>
0.059

> <Angle>
0.918

> <Pdih>
5.862

> <Idih>
0.000

> <Tether>
0.000

$$$$
VeraChem MOL file


 13 13  0  0  0  0  0  0  0  0999 V2000     
   19.2216   19.9815   22.3562 C   0  0  0  0  0  0  0  0  0  0  0  0
   18.9381   20.9286   21.8817 H   0  0  0  0  0  0  0  0  0  0  0  0
   18.9303   20.0227   23.4134 H   0  0  0  0  0  0  0  0  0  0  0  0
   20.6871   19.4974   22.0954 C   0  0  0  0  0  0  0  0  0  0  0  0
   21.0993   19.8018   21.1256 H   0  0  0  0  0  0  0  0  0  0  0  0
   21.4200   19.7337   22.8749 H   0  0  0  0  0  0  0  0  0  0  0  0
   20.1138   18.0465   22.1159 C   0  0  0  0  0  0  0  0  0  0  0  0
   20.5933   17.3517   21.4146 H   0  0  0  0  0  0  0  0  0  0  0  0
   18.7840   18.6811   21.6028 C   0  0  0  0  0  0  0  0  0  0  0  0
   18.7297   18.7854   20.5123 H   0  0  0  0  0  0  0  0  0  0  0  0
   17.8606   18.2069   21.9536 H   0  0  0  0  0  0  0  0  0  0  0  0
   20.0337   17.4601   23.3971 O   0  0  0  0  0  0  0  0  0  0  0  0
   19.6005   18.1204   23.9765 H   0  0  0  0  0  0  0  0  0  0  0  0
  1  2  1  0  0  0  0
  1  3  1  0  0  0  0
  1  4  1  0  0  0  0
  4  5  1  0  0  0  0
  4  6  1  0  0  0  0
  4  7  1  0  0  0  0
  7  8  1  0  0  0  0
  1  9  1  0  0  0  0
  7  9  1  0  0  0  0
  9 10  1  0  0  0  0
  9 11  1  0  0  0  0
  7 12  1  0  0  0  0
 12 13  1  0  0  0  0
M  END
> <VConfSearch Rank>
20

> <Conf_Id>
44

> <Delta U+W>
0.823

> <U+W>
-2.308

> <U>
0.039

> <W>
-2.348

> <W(PB)>
-3.918

> <W(SA)>
1.571

> <Valence>
7.320

> <Coulomb>
-8.530

> <VdW>
1.249

> <VdW6>
-2.615

> <VdW12>
3.864

> <Bond>
0.056

> <Angle>
0.694

> <Pdih>
6.570

> <Idih>
0.000

> <Tether>
0.000

$$$$
VeraChem MOL file


 13 13  0  0  0  0  0  0  0  0999 V2000     
   18.8615   20.0848   22.3299 C   0  0  0  0  0  0  0  0  0  0  0  0
   18.9418   20.6255   23.2821 H   0  0  0  0  0  0  0  0  0  0  0  0
   18.1499   20.6143   21.6852 H   0  0  0  0  0  0  0  0  0  0  0  0
   18.6451   18.5418   22.4698 C   0  0  0  0  0  0  0  0  0  0  0  0
   18.0685   18.2112   23.3406 H   0  0  0  0  0  0  0  0  0  0  0  0
   18.2448   18.0506   21.5742 H   0  0  0  0  0  0  0  0  0  0  0  0
   20.1949   18.4602   22.6127 C   0  0  0  0  0  0  0  0  0  0  0  0
   20.5567   18.6583   23.6309 H   0  0  0  0  0  0  0  0  0  0  0  0
   20.2306   19.7049   21.6753 C   0  0  0  0  0  0  0  0  0  0  0  0
   21.0560   20.4055   21.8425 H   0  0  0  0  0  0  0  0  0  0  0  0
   20.1772   19.4709   20.6047 H   0  0  0  0  0  0  0  0  0  0  0  0
   20.7873   17.2942   22.0892 O   0  0  0  0  0  0  0  0  0  0  0  0
   21.7585   17.4357   22.0909 H   0  0  0  0  0  0  0  0  0  0  0  0
  1  2  1  0  0  0  0
  1  3  1  0  0  0  0
  1  4  1  0  0  0  0
  4  5  1  0  0  0  0
  4  6  1  0  0  0  0
  4  7  1  0  0  0  0
  7  8  1  0  0  0  0
  1  9  1  0  0  0  0
  7  9  1  0  0  0  0
  9 10  1  0  0  0  0
  9 11  1  0  0  0  0
  7 12  1  0  0  0  0
 12 13  1  0  0  0  0
M  END
> <VConfSearch Rank>
21

> <Conf_Id>
22

> <Delta U+W>
0.000

> <U+W>
-3.131

> <U>
-0.154

> <W>
-2.978

> <W(PB)>
-4.579

> <W(SA)>
1.601

> <Valence>
6.333

> <Coulomb>
-7.439

> <VdW>
0.952

> <VdW6>
-2.120

> <VdW12>
3.072

> <Bond>
0.065

> <Angle>
0.931

> <Pdih>
5.338

> <Idih>
0.000

> <Tether>
0.000

$$$$
VeraChem MOL file


 13 13  0  0  0  0  0  0  0  0999 V2000     
   19.1261   18.4908   21.1062 C   0  0  0  0  0  0  0  0  0  0  0  0
   19.4807   19.0502   20.2305 H   0  0  0  0  0  0  0  0  0  0  0  0
   18.3960   17.7437   20.7728 H   0  0  0  0  0  0  0  0  0  0  0  0
   18.6950   19.3790   22.3197 C   0  0  0  0  0  0  0  0  0  0  0  0
   18.0496   18.8750   23.0499 H   0  0  0  0  0  0  0  0  0  0  0  0
   18.2560   20.3520   22.0733 H   0  0  0  0  0  0  0  0  0  0  0  0
   20.2083   19.3907   22.6926 C   0  0  0  0  0  0  0  0  0  0  0  0
   20.7959   20.1426   22.1480 H   0  0  0  0  0  0  0  0  0  0  0  0
   20.2579   17.9706   22.0526 C   0  0  0  0  0  0  0  0  0  0  0  0
   19.9572   17.1581   22.7257 H   0  0  0  0  0  0  0  0  0  0  0  0
   21.2034   17.6978   21.5714 H   0  0  0  0  0  0  0  0  0  0  0  0
   20.4888   19.4397   24.0722 O   0  0  0  0  0  0  0  0  0  0  0  0
   20.2672   20.3443   24.3819 H   0  0  0  0  0  0  0  0  0  0  0  0
  1  2  1  0  0  0  0
  1  3  1  0  0  0  0
  1  4  1  0  0  0  0
  4  5  1  0  0  0  0
  4  6  1  0  0  0  0
  4  7  1  0  0  0  0
  7  8  1  0  0  0  0
  1  9  1  0  0  0  0
  7  9  1  0  0  0  0
  9 10  1  0  0  0  0
  9 11  1  0  0  0  0
  7 12  1  0  0  0  0
 12 13  1  0  0  0  0
M  END
> <VConfSearch Rank>
22

> <Conf_Id>
19

> <Delta U+W>
-0.011

> <U+W>
-3.142

> <U>
-0.154

> <W>
-2.989

> <W(PB)>
-4.588

> <W(SA)>
1.599

> <Valence>
6.334

> <Coulomb>
-7.439

> <VdW>
0.951

> <VdW6>
-2.120

> <VdW12>
3.072

> <Bond>
0.065

> <Angle>
0.930

> <Pdih>
5.339

> <Idih>
0.000

> <Tether>
0.000

$$$$
VeraChem MOL file


 13 13  0  0  0  0  0  0  0  0999 V2000     
   19.1492   19.3791   21.1949 C   0  0  0  0  0  0  0  0  0  0  0  0
   18.3502   19.9421   20.6983 H   0  0  0  0  0  0  0  0  0  0  0  0
   19.8307   18.9871   20.4287 H   0  0  0  0  0  0  0  0  0  0  0  0
   18.6912   18.3254   22.2573 C   0  0  0  0  0  0  0  0  0  0  0  0
   17.7659   18.5847   22.7858 H   0  0  0  0  0  0  0  0  0  0  0  0
   18.6163   17.2900   21.9069 H   0  0  0  0  0  0  0  0  0  0  0  0
   19.9947   18.6848   23.0364 C   0  0  0  0  0  0  0  0  0  0  0  0
   19.8936   18.6673   24.1293 H   0  0  0  0  0  0  0  0  0  0  0  0
   19.8586   20.0987   22.3897 C   0  0  0  0  0  0  0  0  0  0  0  0
   20.7979   20.6106   22.1528 H   0  0  0  0  0  0  0  0  0  0  0  0
   19.2160   20.7886   22.9501 H   0  0  0  0  0  0  0  0  0  0  0  0
   21.1415   17.9568   22.6450 O   0  0  0  0  0  0  0  0  0  0  0  0
   21.9159   18.3844   23.0689 H   0  0  0  0  0  0  0  0  0  0  0  0
  1  2  1  0  0  0  0
  1  3  1  0  0  0  0
  1  4  1  0  0  0  0
  4  5  1  0  0  0  0
  4  6  1  0  0  0  0
  4  7  1  0  0  0  0
  7  8  1  0  0  0  0
  1  9  1  0  0  0  0
  7  9  1  0  0  0  0
  9 10  1  0  0  0  0
  9 11  1  0  0  0  0
  7 12  1  0  0  0  0
 12 13  1  0  0  0  0
M  END
> <VConfSearch Rank>
23

> <Conf_Id>
20

> <Delta U+W>
1.030

> <U+W>
-2.101

> <U>
0.841

> <W>
-2.942

> <W(PB)>
-4.530

> <W(SA)>
1.587

> <Valence>
6.736

> <Coulomb>
-7.246

> <VdW>
1.352

> <VdW6>
-2.500

> <VdW12>
3.851

> <Bond>
0.063

> <Angle>
0.687

> <Pdih>
5.986

> <Idih>
0.000

> <Tether>
0.000

$$$$
VeraChem MOL file


 13 13  0  0  0  0  0  0  0  0999 V2000     
   19.3388   19.7436   21.2892 C   0  0  0  0  0  0  0  0  0  0  0  0
   20.0509   20.4751   20.8851 H   0  0  0  0  0  0  0  0  0  0  0  0
   18.3789   19.8680   20.7739 H   0  0  0  0  0  0  0  0  0  0  0  0
   19.2775   19.6845   22.8513 C   0  0  0  0  0  0  0  0  0  0  0  0
   19.4584   20.6286   23.3770 H   0  0  0  0  0  0  0  0  0  0  0  0
   18.3676   19.2248   23.2565 H   0  0  0  0  0  0  0  0  0  0  0  0
   20.5017   18.7263   22.7407 C   0  0  0  0  0  0  0  0  0  0  0  0
   21.4648   19.2456   22.6428 H   0  0  0  0  0  0  0  0  0  0  0  0
   19.8851   18.2805   21.3805 C   0  0  0  0  0  0  0  0  0  0  0  0
   19.1110   17.5070   21.4569 H   0  0  0  0  0  0  0  0  0  0  0  0
   20.6025   17.9846   20.6072 H   0  0  0  0  0  0  0  0  0  0  0  0
   20.5767   17.7250   23.7275 O   0  0  0  0  0  0  0  0  0  0  0  0
   19.6948   17.2993   23.7695 H   0  0  0  0  0  0  0  0  0  0  0  0
  1  2  1  0  0  0  0
  1  3  1  0  0  0  0
  1  4  1  0  0  0  0
  4  5  1  0  0  0  0
  4  6  1  0  0  0  0
  4  7  1  0  0  0  0
  7  8  1  0  0  0  0
  1  9  1  0  0  0  0
  7  9  1  0  0  0  0
  9 10  1  0  0  0  0
  9 11  1  0  0  0  0
  7 12  1  0  0  0  0
 12 13  1  0  0  0  0
M  END
> <VConfSearch Rank>
24

> <Conf_Id>
24

> <Delta U+W>
0.356

> <U+W>
-2.775

> <U>
-0.184

> <W>
-2.591

> <W(PB)>
-4.184

> <W(SA)>
1.593

> <Valence>
6.840

> <Coulomb>
-7.916

> <VdW>
0.893

> <VdW6>
-2.167

> <VdW12>
3.060

> <Bond>
0.059

> <Angle>
0.918

> <Pdih>
5.862

> <Idih>
0.000

> <Tether>
0.000

$$$$
VeraChem MOL file


 13 13  0  0  0  0  0  0  0  0999 V2000     
   20.0832   18.1469   22.8691 C   0  0  0  0  0  0  0  0  0  0  0  0
   19.8276   17.2594   23.4602 H   0  0  0  0  0  0  0  0  0  0  0  0
   21.1656   18.3123   22.9426 H   0  0  0  0  0  0  0  0  0  0  0  0
   19.2042   19.4164   23.1259 C   0  0  0  0  0  0  0  0  0  0  0  0
   18.1706   19.1998   23.4222 H   0  0  0  0  0  0  0  0  0  0  0  0
   19.6170   20.1578   23.8192 H   0  0  0  0  0  0  0  0  0  0  0  0
   19.3783   19.7313   21.6078 C   0  0  0  0  0  0  0  0  0  0  0  0
   18.5013   20.1838   21.1277 H   0  0  0  0  0  0  0  0  0  0  0  0
   19.5081   18.1887   21.4139 C   0  0  0  0  0  0  0  0  0  0  0  0
   18.5490   17.6711   21.2905 H   0  0  0  0  0  0  0  0  0  0  0  0
   20.1853   17.8615   20.6171 H   0  0  0  0  0  0  0  0  0  0  0  0
   20.5383   20.4677   21.2856 O   0  0  0  0  0  0  0  0  0  0  0  0
   21.2834   20.0212   21.7381 H   0  0  0  0  0  0  0  0  0  0  0  0
  1  2  1  0  0  0  0
  1  3  1  0  0  0  0
  1  4  1  0  0  0  0
  4  5  1  0  0  0  0
  4  6  1  0  0  0  0
  4  7  1  0  0  0  0
  7  8  1  0  0  0  0
  1  9  1  0  0  0  0
  7  9  1  0  0  0  0
  9 10  1  0  0  0  0
  9 11  1  0  0  0  0
  7 12  1  0  0  0  0
 12 13  1  0  0  0  0
M  END
> <VConfSearch Rank>
25

> <Conf_Id>
44

> <Delta U+W>
0.823

> <U+W>
-2.308

> <U>
0.039

> <W>
-2.348

> <W(PB)>
-3.918

> <W(SA)>
1.571

> <Valence>
7.320

> <Coulomb>
-8.530

> <VdW>
1.249

> <VdW6>
-2.615

> <VdW12>
3.864

> <Bond>
0.056

> <Angle>
0.694

> <Pdih>
6.570

> <Idih>
0.000

> <Tether>
0.000

$$$$
VeraChem MOL file


 13 13  0  0  0  0  0  0  0  0999 V2000     
   19.7281   20.2069   22.8669 C   0  0  0  0  0  0  0  0  0  0  0  0
   18.7600   20.5435   23.2608 H   0  0  0  0  0  0  0  0  0  0  0  0
   20.4959   20.9346   23.1555 H   0  0  0  0  0  0  0  0  0  0  0  0
   19.7113   19.7871   21.3600 C   0  0  0  0  0  0  0  0  0  0  0  0
   19.0138   20.3312   20.7141 H   0  0  0  0  0  0  0  0  0  0  0  0
   20.6964   19.7665   20.8775 H   0  0  0  0  0  0  0  0  0  0  0  0
   19.2168   18.4025   21.8770 C   0  0  0  0  0  0  0  0  0  0  0  0
   18.1345   18.3595   22.0613 H   0  0  0  0  0  0  0  0  0  0  0  0
   20.0636   18.7053   23.1499 C   0  0  0  0  0  0  0  0  0  0  0  0
   19.6784   18.2939   24.0893 H   0  0  0  0  0  0  0  0  0  0  0  0
   21.1268   18.4490   23.0616 H   0  0  0  0  0  0  0  0  0  0  0  0
   19.6401   17.2913   21.1216 O   0  0  0  0  0  0  0  0  0  0  0  0
   19.4069   16.4866   21.6326 H   0  0  0  0  0  0  0  0  0  0  0  0
  1  2  1  0  0  0  0
  1  3  1  0  0  0  0
  1  4  1  0  0  0  0
  4  5  1  0  0  0  0
  4  6  1  0  0  0  0
  4  7  1  0  0  0  0
  7  8  1  0  0  0  0
  1  9  1  0  0  0  0
  7  9  1  0  0  0  0
  9 10  1  0  0  0  0
  9 11  1  0  0  0  0
  7 12  1  0  0  0  0
 12 13  1  0  0  0  0
M  END
> <VConfSearch Rank>
26

> <Conf_Id>
22

> <Delta U+W>
0.000

> <U+W>
-3.131

> <U>
-0.154

> <W>
-2.978

> <W(PB)>
-4.579

> <W(SA)>
1.601

> <Valence>
6.333

> <Coulomb>
-7.439

> <VdW>
0.952

> <VdW6>
-2.120

> <VdW12>
3.072

> <Bond>
0.065

> <Angle>
0.931

> <Pdih>
5.338

> <Idih>
0.000

> <Tether>
0.000

$$$$
VeraChem MOL file


 13 13  0  0  0  0  0  0  0  0999 V2000     
   19.5664   20.2381   22.1232 C   0  0  0  0  0  0  0  0  0  0  0  0
   19.8931   20.6010   21.1398 H   0  0  0  0  0  0  0  0  0  0  0  0
   19.3236   21.1024   22.7528 H   0  0  0  0  0  0  0  0  0  0  0  0
   20.5000   19.1602   22.7665 C   0  0  0  0  0  0  0  0  0  0  0  0
   20.3780   19.0361   23.8498 H   0  0  0  0  0  0  0  0  0  0  0  0
   21.5681   19.2502   22.5399 H   0  0  0  0  0  0  0  0  0  0  0  0
   19.7061   18.1334   21.9036 C   0  0  0  0  0  0  0  0  0  0  0  0
   20.0622   18.0520   20.8674 H   0  0  0  0  0  0  0  0  0  0  0  0
   18.4952   19.0989   22.0776 C   0  0  0  0  0  0  0  0  0  0  0  0
   17.9327   18.9591   23.0091 H   0  0  0  0  0  0  0  0  0  0  0  0
   17.7888   19.1325   21.2410 H   0  0  0  0  0  0  0  0  0  0  0  0
   19.5468   16.8577   22.4795 O   0  0  0  0  0  0  0  0  0  0  0  0
   20.4210   16.4128   22.4470 H   0  0  0  0  0  0  0  0  0  0  0  0
  1  2  1  0  0  0  0
  1  3  1  0  0  0  0
  1  4  1  0  0  0  0
  4  5  1  0  0  0  0
  4  6  1  0  0  0  0
  4  7  1  0  0  0  0
  7  8  1  0  0  0  0
  1  9  1  0  0  0  0
  7  9  1  0  0  0  0
  9 10  1  0  0  0  0
  9 11  1  0  0  0  0
  7 12  1  0  0  0  0
 12 13  1  0  0  0  0
M  END
> <VConfSearch Rank>
27

> <Conf_Id>
19

> <Delta U+W>
-0.011

> <U+W>
-3.142

> <U>
-0.154

> <W>
-2.989

> <W(PB)>
-4.588

> <W(SA)>
1.599

> <Valence>
6.334

> <Coulomb>
-7.439

> <VdW>
0.951

> <VdW6>
-2.120

> <VdW12>
3.072

> <Bond>
0.065

> <Angle>
0.930

> <Pdih>
5.339

> <Idih>
0.000

> <Tether>
0.000

$$$$
VeraChem MOL file


 13 13  0  0  0  0  0  0  0  0999 V2000     
   20.3903   19.7329   21.5860 C   0  0  0  0  0  0  0  0  0  0  0  0
   20.4498   20.5009   20.8059 H   0  0  0  0  0  0  0  0  0  0  0  0
   21.4064   19.5086   21.9361 H   0  0  0  0  0  0  0  0  0  0  0  0
   19.5271   18.4724   21.2469 C   0  0  0  0  0  0  0  0  0  0  0  0
   18.6821   18.6668   20.5754 H   0  0  0  0  0  0  0  0  0  0  0  0
   20.0755   17.5992   20.8765 H   0  0  0  0  0  0  0  0  0  0  0  0
   19.1475   18.4426   22.7603 C   0  0  0  0  0  0  0  0  0  0  0  0
   18.1194   18.1183   22.9674 H   0  0  0  0  0  0  0  0  0  0  0  0
   19.3511   19.9897   22.7274 C   0  0  0  0  0  0  0  0  0  0  0  0
   19.7461   20.4414   23.6441 H   0  0  0  0  0  0  0  0  0  0  0  0
   18.4633   20.5527   22.4146 H   0  0  0  0  0  0  0  0  0  0  0  0
   20.0526   17.7385   23.5868 O   0  0  0  0  0  0  0  0  0  0  0  0
   19.8105   17.9355   24.5168 H   0  0  0  0  0  0  0  0  0  0  0  0
  1  2  1  0  0  0  0
  1  3  1  0  0  0  0
  1  4  1  0  0  0  0
  4  5  1  0  0  0  0
  4  6  1  0  0  0  0
  4  7  1  0  0  0  0
  7  8  1  0  0  0  0
  1  9  1  0  0  0  0
  7  9  1  0  0  0  0
  9 10  1  0  0  0  0
  9 11  1  0  0  0  0
  7 12  1  0  0  0  0
 12 13  1  0  0  0  0
M  END
> <VConfSearch Rank>
28

> <Conf_Id>
20

> <Delta U+W>
1.030

> <U+W>
-2.101

> <U>
0.841

> <W>
-2.942

> <W(PB)>
-4.530

> <W(SA)>
1.587

> <Valence>
6.736

> <Coulomb>
-7.246

> <VdW>
1.352

> <VdW6>
-2.500

> <VdW12>
3.851

> <Bond>
0.063

> <Angle>
0.687

> <Pdih>
5.986

> <Idih>
0.000

> <Tether>
0.000

$$$$
VeraChem MOL file


 13 13  0  0  0  0  0  0  0  0999 V2000     
   19.6546   18.8520   23.4865 C   0  0  0  0  0  0  0  0  0  0  0  0
   19.9309   17.8951   23.9488 H   0  0  0  0  0  0  0  0  0  0  0  0
   19.3430   19.5453   24.2768 H   0  0  0  0  0  0  0  0  0  0  0  0
   18.6922   18.7317   22.2591 C   0  0  0  0  0  0  0  0  0  0  0  0
   17.9747   17.9043   22.2883 H   0  0  0  0  0  0  0  0  0  0  0  0
   18.1554   19.6544   22.0065 H   0  0  0  0  0  0  0  0  0  0  0  0
   19.9849   18.4774   21.4262 C   0  0  0  0  0  0  0  0  0  0  0  0
   20.3328   17.4358   21.4532 H   0  0  0  0  0  0  0  0  0  0  0  0
   20.6948   19.4057   22.4575 C   0  0  0  0  0  0  0  0  0  0  0  0
   20.6055   20.4790   22.2492 H   0  0  0  0  0  0  0  0  0  0  0  0
   21.7458   19.1735   22.6619 H   0  0  0  0  0  0  0  0  0  0  0  0
   19.9550   18.9558   20.1026 O   0  0  0  0  0  0  0  0  0  0  0  0
   19.6391   19.8829   20.1414 H   0  0  0  0  0  0  0  0  0  0  0  0
  1  2  1  0  0  0  0
  1  3  1  0  0  0  0
  1  4  1  0  0  0  0
  4  5  1  0  0  0  0
  4  6  1  0  0  0  0
  4  7  1  0  0  0  0
  7  8  1  0  0  0  0
  1  9  1  0  0  0  0
  7  9  1  0  0  0  0
  9 10  1  0  0  0  0
  9 11  1  0  0  0  0
  7 12  1  0  0  0  0
 12 13  1  0  0  0  0
M  END
> <VConfSearch Rank>
29

> <Conf_Id>
24

> <Delta U+W>
0.356

> <U+W>
-2.775

> <U>
-0.184

> <W>
-2.591

> <W(PB)>
-4.184

> <W(SA)>
1.593

> <Valence>
6.840

> <Coulomb>
-7.916

> <VdW>
0.893

> <VdW6>
-2.167

> <VdW12>
3.060

> <Bond>
0.059

> <Angle>
0.918

> <Pdih>
5.862

> <Idih>
0.000

> <Tether>
0.000

$$$$
VeraChem MOL file


 13 13  0  0  0  0  0  0  0  0999 V2000     
   18.6857   18.4702   22.2298 C   0  0  0  0  0  0  0  0  0  0  0  0
   18.1437   17.5255   22.3573 H   0  0  0  0  0  0  0  0  0  0  0  0
   17.9542   19.2671   22.0446 H   0  0  0  0  0  0  0  0  0  0  0  0
   19.8912   18.4380   21.2318 C   0  0  0  0  0  0  0  0  0  0  0  0
   20.4002   17.4687   21.1669 H   0  0  0  0  0  0  0  0  0  0  0  0
   19.6866   18.7926   20.2154 H   0  0  0  0  0  0  0  0  0  0  0  0
   20.5873   19.4599   22.1832 C   0  0  0  0  0  0  0  0  0  0  0  0
   21.6740   19.3372   22.2753 H   0  0  0  0  0  0  0  0  0  0  0  0
   19.7545   18.7990   23.3250 C   0  0  0  0  0  0  0  0  0  0  0  0
   20.2301   17.9181   23.7733 H   0  0  0  0  0  0  0  0  0  0  0  0
   19.4311   19.4678   24.1305 H   0  0  0  0  0  0  0  0  0  0  0  0
   20.2744   20.8125   21.9296 O   0  0  0  0  0  0  0  0  0  0  0  0
   19.2989   20.8614   21.8574 H   0  0  0  0  0  0  0  0  0  0  0  0
  1  2  1  0  0  0  0
  1  3  1  0  0  0  0
  1  4  1  0  0  0  0
  4  5  1  0  0  0  0
  4  6  1  0  0  0  0
  4  7  1  0  0  0  0
  7  8  1  0  0  0  0
  1  9  1  0  0  0  0
  7  9  1  0  0  0  0
  9 10  1  0  0  0  0
  9 11  1  0  0  0  0
  7 12  1  0  0  0  0
 12 13  1  0  0  0  0
M  END
> <VConfSearch Rank>
30

> <Conf_Id>
44

> <Delta U+W>
0.823

> <U+W>
-2.308

> <U>
0.039

> <W>
-2.348

> <W(PB)>
-3.918

> <W(SA)>
1.571

> <Valence>
7.320

> <Coulomb>
-8.530

> <VdW>
1.249

> <VdW6>
-2.615

> <VdW12>
3.864

> <Bond>
0.056

> <Angle>
0.694

> <Pdih>
6.570

> <Idih>
0.000

> <Tether>
0.000

$$$$
VeraChem MOL file


 13 13  0  0  0  0  0  0  0  0999 V2000     
   18.6051   18.9268   21.4738 C   0  0  0  0  0  0  0  0  0  0  0  0
   18.4744   19.7699   20.7826 H   0  0  0  0  0  0  0  0  0  0  0  0
   17.8191   18.1878   21.2777 H   0  0  0  0  0  0  0  0  0  0  0  0
   18.8078   19.3333   22.9708 C   0  0  0  0  0  0  0  0  0  0  0  0
   18.2882   20.2396   23.3005 H   0  0  0  0  0  0  0  0  0  0  0  0
   18.6142   18.5323   23.6950 H   0  0  0  0  0  0  0  0  0  0  0  0
   20.3090   19.5125   22.5924 C   0  0  0  0  0  0  0  0  0  0  0  0
   20.5375   20.4854   22.1359 H   0  0  0  0  0  0  0  0  0  0  0  0
   20.0649   18.3710   21.5596 C   0  0  0  0  0  0  0  0  0  0  0  0
   20.6563   18.4249   20.6390 H   0  0  0  0  0  0  0  0  0  0  0  0
   20.1457   17.3578   21.9726 H   0  0  0  0  0  0  0  0  0  0  0  0
   21.2283   19.2123   23.6167 O   0  0  0  0  0  0  0  0  0  0  0  0
   22.1222   19.2042   23.2117 H   0  0  0  0  0  0  0  0  0  0  0  0
  1  2  1  0  0  0  0
  1  3  1  0  0  0  0
  1  4  1  0  0  0  0
  4  5  1  0  0  0  0
  4  6  1  0  0  0  0
  4  7  1  0  0  0  0
  7  8  1  0  0  0  0
  1  9  1  0  0  0  0
  7  9  1  0  0  0  0
  9 10  1  0  0  0  0
  9 11  1  0  0  0  0
  7 12  1  0  0  0  0
 12 13  1  0  0  0  0
M  END
> <VConfSearch Rank>
31

> <Conf_Id>
22

> <Delta U+W>
0.000

> <U+W>
-3.131

> <U>
-0.154

> <W>
-2.978

> <W(PB)>
-4.579

> <W(SA)>
1.601

> <Valence>
6.333

> <Coulomb>
-7.439

> <VdW>
0.952

> <VdW6>
-2.120

> <VdW12>
3.072

> <Bond>
0.065

> <Angle>
0.931

> <Pdih>
5.338

> <Idih>
0.000

> <Tether>
0.000

$$$$
VeraChem MOL file


 13 13  0  0  0  0  0  0  0  0999 V2000     
   20.3910   19.3957   21.2762 C   0  0  0  0  0  0  0  0  0  0  0  0
   21.4635   19.2315   21.4446 H   0  0  0  0  0  0  0  0  0  0  0  0
   20.2652   19.9644   20.3472 H   0  0  0  0  0  0  0  0  0  0  0  0
   19.6072   19.9298   22.5203 C   0  0  0  0  0  0  0  0  0  0  0  0
   18.6431   20.3989   22.2875 H   0  0  0  0  0  0  0  0  0  0  0  0
   20.1653   20.5872   23.1960 H   0  0  0  0  0  0  0  0  0  0  0  0
   19.5128   18.4347   22.9503 C   0  0  0  0  0  0  0  0  0  0  0  0
   20.4050   18.0641   23.4735 H   0  0  0  0  0  0  0  0  0  0  0  0
   19.5020   18.1170   21.4246 C   0  0  0  0  0  0  0  0  0  0  0  0
   18.5140   18.1867   20.9529 H   0  0  0  0  0  0  0  0  0  0  0  0
   19.9660   17.1688   21.1323 H   0  0  0  0  0  0  0  0  0  0  0  0
   18.3409   18.0809   23.6475 O   0  0  0  0  0  0  0  0  0  0  0  0
   18.4060   18.4747   24.5441 H   0  0  0  0  0  0  0  0  0  0  0  0
  1  2  1  0  0  0  0
  1  3  1  0  0  0  0
  1  4  1  0  0  0  0
  4  5  1  0  0  0  0
  4  6  1  0  0  0  0
  4  7  1  0  0  0  0
  7  8  1  0  0  0  0
  1  9  1  0  0  0  0
  7  9  1  0  0  0  0
  9 10  1  0  0  0  0
  9 11  1  0  0  0  0
  7 12  1  0  0  0  0
 12 13  1  0  0  0  0
M  END
> <VConfSearch Rank>
32

> <Conf_Id>
19

> <Delta U+W>
-0.011

> <U+W>
-3.142

> <U>
-0.154

> <W>
-2.989

> <W(PB)>
-4.588

> <W(SA)>
1.599

> <Valence>
6.334

> <Coulomb>
-7.439

> <VdW>
0.951

> <VdW6>
-2.120

> <VdW12>
3.072

> <Bond>
0.065

> <Angle>
0.930

> <Pdih>
5.339

> <Idih>
0.000

> <Tether>
0.000

$$$$
VeraChem MOL file


 13 13  0  0  0  0  0  0  0  0999 V2000     
   18.6651   18.4080   21.8745 C   0  0  0  0  0  0  0  0  0  0  0  0
   17.5707   18.3580   21.8319 H   0  0  0  0  0  0  0  0  0  0  0  0
   19.0777   17.5885   21.2717 H   0  0  0  0  0  0  0  0  0  0  0  0
   19.2930   18.5446   23.3014 C   0  0  0  0  0  0  0  0  0  0  0  0
   18.6709   19.0890   24.0221 H   0  0  0  0  0  0  0  0  0  0  0  0
   19.6363   17.6143   23.7671 H   0  0  0  0  0  0  0  0  0  0  0  0
   20.3999   19.4140   22.6273 C   0  0  0  0  0  0  0  0  0  0  0  0
   20.7690   20.2432   23.2446 H   0  0  0  0  0  0  0  0  0  0  0  0
   19.3020   19.8088   21.5906 C   0  0  0  0  0  0  0  0  0  0  0  0
   19.6491   19.9799   20.5656 H   0  0  0  0  0  0  0  0  0  0  0  0
   18.6814   20.6599   21.8963 H   0  0  0  0  0  0  0  0  0  0  0  0
   21.4881   18.6846   22.0963 O   0  0  0  0  0  0  0  0  0  0  0  0
   22.0185   19.3069   21.5547 H   0  0  0  0  0  0  0  0  0  0  0  0
  1  2  1  0  0  0  0
  1  3  1  0  0  0  0
  1  4  1  0  0  0  0
  4  5  1  0  0  0  0
  4  6  1  0  0  0  0
  4  7  1  0  0  0  0
  7  8  1  0  0  0  0
  1  9  1  0  0  0  0
  7  9  1  0  0  0  0
  9 10  1  0  0  0  0
  9 11  1  0  0  0  0
  7 12  1  0  0  0  0
 12 13  1  0  0  0  0
M  END
> <VConfSearch Rank>
33

> <Conf_Id>
20

> <Delta U+W>
1.030

> <U+W>
-2.101

> <U>
0.841

> <W>
-2.942

> <W(PB)>
-4.530

> <W(SA)>
1.587

> <Valence>
6.736

> <Coulomb>
-7.246

> <VdW>
1.352

> <VdW6>
-2.500

> <VdW12>
3.851

> <Bond>
0.063

> <Angle>
0.687

> <Pdih>
5.986

> <Idih>
0.000

> <Tether>
0.000

$$$$
VeraChem MOL file


 13 13  0  0  0  0  0  0  0  0999 V2000     
   20.2526   18.0502   22.9680 C   0  0  0  0  0  0  0  0  0  0  0  0
   20.9775   18.3634   23.7310 H   0  0  0  0  0  0  0  0  0  0  0  0
   20.1214   16.9636   23.0352 H   0  0  0  0  0  0  0  0  0  0  0  0
   20.5205   18.6230   21.5371 C   0  0  0  0  0  0  0  0  0  0  0  0
   21.5713   18.7804   21.2698 H   0  0  0  0  0  0  0  0  0  0  0  0
   20.0293   18.0731   20.7249 H   0  0  0  0  0  0  0  0  0  0  0  0
   19.7517   19.8851   22.0320 C   0  0  0  0  0  0  0  0  0  0  0  0
   20.3740   20.5899   22.6001 H   0  0  0  0  0  0  0  0  0  0  0  0
   18.9396   18.8997   22.9256 C   0  0  0  0  0  0  0  0  0  0  0  0
   18.0950   18.4117   22.4237 H   0  0  0  0  0  0  0  0  0  0  0  0
   18.5941   19.3015   23.8845 H   0  0  0  0  0  0  0  0  0  0  0  0
   19.0067   20.5632   21.0486 O   0  0  0  0  0  0  0  0  0  0  0  0
   18.4748   19.8880   20.5776 H   0  0  0  0  0  0  0  0  0  0  0  0
  1  2  1  0  0  0  0
  1  3  1  0  0  0  0
  1  4  1  0  0  0  0
  4  5  1  0  0  0  0
  4  6  1  0  0  0  0
  4  7  1  0  0  0  0
  7  8  1  0  0  0  0
  1  9  1  0  0  0  0
  7  9  1  0  0  0  0
  9 10  1  0  0  0  0
  9 11  1  0  0  0  0
  7 12  1  0  0  0  0
 12 13  1  0  0  0  0
M  END
> <VConfSearch Rank>
34

> <Conf_Id>
24

> <Delta U+W>
0.356

> <U+W>
-2.775

> <U>
-0.184

> <W>
-2.591

> <W(PB)>
-4.184

> <W(SA)>
1.593

> <Valence>
6.840

> <Coulomb>
-7.916

> <VdW>
0.893

> <VdW6>
-2.167

> <VdW12>
3.060

> <Bond>
0.059

> <Angle>
0.918

> <Pdih>
5.862

> <Idih>
0.000

> <Tether>
0.000

$$$$
VeraChem MOL file


 13 13  0  0  0  0  0  0  0  0999 V2000     
   19.2748   19.8841   21.7028 C   0  0  0  0  0  0  0  0  0  0  0  0
   18.8503   20.2959   20.7794 H   0  0  0  0  0  0  0  0  0  0  0  0
   19.3138   20.6840   22.4531 H   0  0  0  0  0  0  0  0  0  0  0  0
   20.6004   19.0674   21.5415 C   0  0  0  0  0  0  0  0  0  0  0  0
   20.6987   18.5478   20.5806 H   0  0  0  0  0  0  0  0  0  0  0  0
   21.5305   19.6118   21.7397 H   0  0  0  0  0  0  0  0  0  0  0  0
   20.0778   18.1653   22.7022 C   0  0  0  0  0  0  0  0  0  0  0  0
   20.3334   17.1020   22.6101 H   0  0  0  0  0  0  0  0  0  0  0  0
   18.6476   18.5406   22.2046 C   0  0  0  0  0  0  0  0  0  0  0  0
   18.2672   17.8919   21.4062 H   0  0  0  0  0  0  0  0  0  0  0  0
   17.8780   18.6265   22.9798 H   0  0  0  0  0  0  0  0  0  0  0  0
   20.3934   18.6267   23.9981 O   0  0  0  0  0  0  0  0  0  0  0  0
   20.1459   19.5741   24.0218 H   0  0  0  0  0  0  0  0  0  0  0  0
  1  2  1  0  0  0  0
  1  3  1  0  0  0  0
  1  4  1  0  0  0  0
  4  5  1  0  0  0  0
  4  6  1  0  0  0  0
  4  7  1  0  0  0  0
  7  8  1  0  0  0  0
  1  9  1  0  0  0  0
  7  9  1  0  0  0  0
  9 10  1  0  0  0  0
  9 11  1  0  0  0  0
  7 12  1  0  0  0  0
 12 13  1  0  0  0  0
M  END
> <VConfSearch Rank>
35

> <Conf_Id>
44

> <Delta U+W>
0.823

> <U+W>
-2.308

> <U>
0.039

> <W>
-2.348

> <W(PB)>
-3.918

> <W(SA)>
1.571

> <Valence>
7.320

> <Coulomb>
-8.530

> <VdW>
1.249

> <VdW6>
-2.615

> <VdW12>
3.864

> <Bond>
0.056

> <Angle>
0.694

> <Pdih>
6.570

> <Idih>
0.000

> <Tether>
0.000

$$$$
VeraChem MOL file


 13 13  0  0  0  0  0  0  0  0999 V2000     
   20.6312   19.0966   23.1478 C   0  0  0  0  0  0  0  0  0  0  0  0
   20.5349   19.9424   23.8413 H   0  0  0  0  0  0  0  0  0  0  0  0
   21.4991   18.4962   23.4456 H   0  0  0  0  0  0  0  0  0  0  0  0
   20.5480   19.4794   21.6332 C   0  0  0  0  0  0  0  0  0  0  0  0
   20.9462   20.4628   21.3603 H   0  0  0  0  0  0  0  0  0  0  0  0
   20.9587   18.7293   20.9461 H   0  0  0  0  0  0  0  0  0  0  0  0
   19.0031   19.4031   21.8239 C   0  0  0  0  0  0  0  0  0  0  0  0
   18.5623   20.3197   22.2393 H   0  0  0  0  0  0  0  0  0  0  0  0
   19.3054   18.3072   22.8901 C   0  0  0  0  0  0  0  0  0  0  0  0
   18.6055   18.2525   23.7310 H   0  0  0  0  0  0  0  0  0  0  0  0
   19.4449   17.2989   22.4804 H   0  0  0  0  0  0  0  0  0  0  0  0
   18.2782   18.9651   20.6981 O   0  0  0  0  0  0  0  0  0  0  0  0
   17.3554   18.8046   20.9911 H   0  0  0  0  0  0  0  0  0  0  0  0
  1  2  1  0  0  0  0
  1  3  1  0  0  0  0
  1  4  1  0  0  0  0
  4  5  1  0  0  0  0
  4  6  1  0  0  0  0
  4  7  1  0  0  0  0
  7  8  1  0  0  0  0
  1  9  1  0  0  0  0
  7  9  1  0  0  0  0
  9 10  1  0  0  0  0
  9 11  1  0  0  0  0
  7 12  1  0  0  0  0
 12 13  1  0  0  0  0
M  END
> <VConfSearch Rank>
36

> <Conf_Id>
22

> <Delta U+W>
0.000

> <U+W>
-3.131

> <U>
-0.154

> <W>
-2.978

> <W(PB)>
-4.579

> <W(SA)>
1.601

> <Valence>
6.333

> <Coulomb>
-7.439

> <VdW>
0.952

> <VdW6>
-2.120

> <VdW12>
3.072

> <Bond>
0.065

> <Angle>
0.931

> <Pdih>
5.338

> <Idih>
0.000

> <Tether>
0.000

$$$$
VeraChem MOL file


 13 13  0  0  0  0  0  0  0  0999 V2000     
   19.1660   17.6904   22.2222 C   0  0  0  0  0  0  0  0  0  0  0  0
   18.0710   17.6335   22.2786 H   0  0  0  0  0  0  0  0  0  0  0  0
   19.5699   16.6710   22.2132 H   0  0  0  0  0  0  0  0  0  0  0  0
   19.8233   18.6809   23.2391 C   0  0  0  0  0  0  0  0  0  0  0  0
   20.8919   18.5098   23.4198 H   0  0  0  0  0  0  0  0  0  0  0  0
   19.3155   18.7892   24.2037 H   0  0  0  0  0  0  0  0  0  0  0  0
   19.5137   19.7820   22.1804 C   0  0  0  0  0  0  0  0  0  0  0  0
   18.4862   20.1682   22.2261 H   0  0  0  0  0  0  0  0  0  0  0  0
   19.7152   18.6566   21.1212 C   0  0  0  0  0  0  0  0  0  0  0  0
   20.7603   18.4825   20.8364 H   0  0  0  0  0  0  0  0  0  0  0  0
   19.1121   18.7456   20.2111 H   0  0  0  0  0  0  0  0  0  0  0  0
   20.4432   20.8389   22.1204 O   0  0  0  0  0  0  0  0  0  0  0  0
   20.3137   21.3859   22.9249 H   0  0  0  0  0  0  0  0  0  0  0  0
  1  2  1  0  0  0  0
  1  3  1  0  0  0  0
  1  4  1  0  0  0  0
  4  5  1  0  0  0  0
  4  6  1  0  0  0  0
  4  7  1  0  0  0  0
  7  8  1  0  0  0  0
  1  9  1  0  0  0  0
  7  9  1  0  0  0  0
  9 10  1  0  0  0  0
  9 11  1  0  0  0  0
  7 12  1  0  0  0  0
 12 13  1  0  0  0  0
M  END
> <VConfSearch Rank>
37

> <Conf_Id>
19

> <Delta U+W>
-0.011

> <U+W>
-3.142

> <U>
-0.154

> <W>
-2.989

> <W(PB)>
-4.588

> <W(SA)>
1.599

> <Valence>
6.334

> <Coulomb>
-7.439

> <VdW>
0.951

> <VdW6>
-2.120

> <VdW12>
3.072

> <Bond>
0.065

> <Angle>
0.930

> <Pdih>
5.339

> <Idih>
0.000

> <Tether>
0.000

$$$$
VeraChem MOL file


 13 13  0  0  0  0  0  0  0  0999 V2000     
   20.8125   19.3943   22.3756 C   0  0  0  0  0  0  0  0  0  0  0  0
   21.8473   19.1326   22.1253 H   0  0  0  0  0  0  0  0  0  0  0  0
   20.8066   20.3803   22.8583 H   0  0  0  0  0  0  0  0  0  0  0  0
   19.9879   18.2978   23.1283 C   0  0  0  0  0  0  0  0  0  0  0  0
   20.2695   17.2670   22.8812 H   0  0  0  0  0  0  0  0  0  0  0  0
   19.9391   18.3960   24.2184 H   0  0  0  0  0  0  0  0  0  0  0  0
   18.7471   18.8272   22.3437 C   0  0  0  0  0  0  0  0  0  0  0  0
   18.0253   18.0528   22.0535 H   0  0  0  0  0  0  0  0  0  0  0  0
   19.7627   19.2258   21.2275 C   0  0  0  0  0  0  0  0  0  0  0  0
   19.5214   20.1317   20.6605 H   0  0  0  0  0  0  0  0  0  0  0  0
   19.9902   18.4200   20.5191 H   0  0  0  0  0  0  0  0  0  0  0  0
   18.0751   19.9105   22.9543 O   0  0  0  0  0  0  0  0  0  0  0  0
   17.4370   20.2637   22.2984 H   0  0  0  0  0  0  0  0  0  0  0  0
  1  2  1  0  0  0  0
  1  3  1  0  0  0  0
  1  4  1  0  0  0  0
  4  5  1  0  0  0  0
  4  6  1  0  0  0  0
  4  7  1  0  0  0  0
  7  8  1  0  0  0  0
  1  9  1  0  0  0  0
  7  9  1  0  0  0  0
  9 10  1  0  0  0  0
  9 11  1  0  0  0  0
  7 12  1  0  0  0  0
 12 13  1  0  0  0  0
M  END
> <VConfSearch Rank>
38

> <Conf_Id>
20

> <Delta U+W>
1.030

> <U+W>
-2.101

> <U>
0.841

> <W>
-2.942

> <W(PB)>
-4.530

> <W(SA)>
1.587

> <Valence>
6.736

> <Coulomb>
-7.246

> <VdW>
1.352

> <VdW6>
-2.500

> <VdW12>
3.851

> <Bond>
0.063

> <Angle>
0.687

> <Pdih>
5.986

> <Idih>
0.000

> <Tether>
0.000

$$$$
VeraChem MOL file


 13 13  0  0  0  0  0  0  0  0999 V2000     
   19.1413   19.7184   23.0433 C   0  0  0  0  0  0  0  0  0  0  0  0
   19.6832   20.0297   23.9461 H   0  0  0  0  0  0  0  0  0  0  0  0
   18.1401   20.1652   23.0645 H   0  0  0  0  0  0  0  0  0  0  0  0
   19.2033   18.1851   22.7394 C   0  0  0  0  0  0  0  0  0  0  0  0
   19.2527   17.5225   23.6105 H   0  0  0  0  0  0  0  0  0  0  0  0
   18.4197   17.8205   22.0639 H   0  0  0  0  0  0  0  0  0  0  0  0
   20.5657   18.5012   22.0515 C   0  0  0  0  0  0  0  0  0  0  0  0
   21.4131   18.5555   22.7485 H   0  0  0  0  0  0  0  0  0  0  0  0
   19.9413   19.8876   21.7095 C   0  0  0  0  0  0  0  0  0  0  0  0
   19.3225   19.9036   20.8038 H   0  0  0  0  0  0  0  0  0  0  0  0
   20.6423   20.7287   21.6711 H   0  0  0  0  0  0  0  0  0  0  0  0
   20.8858   17.6928   20.9443 O   0  0  0  0  0  0  0  0  0  0  0  0
   20.0976   17.6819   20.3617 H   0  0  0  0  0  0  0  0  0  0  0  0
  1  2  1  0  0  0  0
  1  3  1  0  0  0  0
  1  4  1  0  0  0  0
  4  5  1  0  0  0  0
  4  6  1  0  0  0  0
  4  7  1  0  0  0  0
  7  8  1  0  0  0  0
  1  9  1  0  0  0  0
  7  9  1  0  0  0  0
  9 10  1  0  0  0  0
  9 11  1  0  0  0  0
  7 12  1  0  0  0  0
 12 13  1  0  0  0  0
M  END
> <VConfSearch Rank>
39

> <Conf_Id>
24

> <Delta U+W>
0.356

> <U+W>
-2.775

> <U>
-0.184

> <W>
-2.591

> <W(PB)>
-4.184

> <W(SA)>
1.593

> <Valence>
6.840

> <Coulomb>
-7.916

> <VdW>
0.893

> <VdW6>
-2.167

> <VdW12>
3.060

> <Bond>
0.059

> <Angle>
0.918

> <Pdih>
5.862

> <Idih>
0.000

> <Tether>
0.000

$$$$
VeraChem MOL file


 13 13  0  0  0  0  0  0  0  0999 V2000     
   20.6622   18.8800   21.6445 C   0  0  0  0  0  0  0  0  0  0  0  0
   21.1370   18.8398   20.6569 H   0  0  0  0  0  0  0  0  0  0  0  0
   21.4453   18.7996   22.4091 H   0  0  0  0  0  0  0  0  0  0  0  0
   19.4373   17.9283   21.8540 C   0  0  0  0  0  0  0  0  0  0  0  0
   18.8583   17.7276   20.9443 H   0  0  0  0  0  0  0  0  0  0  0  0
   19.6459   16.9744   22.3513 H   0  0  0  0  0  0  0  0  0  0  0  0
   18.8365   19.0504   22.7561 C   0  0  0  0  0  0  0  0  0  0  0  0
   17.7458   19.1565   22.6945 H   0  0  0  0  0  0  0  0  0  0  0  0
   19.6426   20.0468   21.8665 C   0  0  0  0  0  0  0  0  0  0  0  0
   19.1140   20.3656   20.9599 H   0  0  0  0  0  0  0  0  0  0  0  0
   20.0301   20.9369   22.3748 H   0  0  0  0  0  0  0  0  0  0  0  0
   19.2410   19.0032   24.1073 O   0  0  0  0  0  0  0  0  0  0  0  0
   20.2158   18.9087   24.1007 H   0  0  0  0  0  0  0  0  0  0  0  0
  1  2  1  0  0  0  0
  1  3  1  0  0  0  0
  1  4  1  0  0  0  0
  4  5  1  0  0  0  0
  4  6  1  0  0  0  0
  4  7  1  0  0  0  0
  7  8  1  0  0  0  0
  1  9  1  0  0  0  0
  7  9  1  0  0  0  0
  9 10  1  0  0  0  0
  9 11  1  0  0  0  0
  7 12  1  0  0  0  0
 12 13  1  0  0  0  0
M  END
> <VConfSearch Rank>
40

> <Conf_Id>
44

> <Delta U+W>
0.823

> <U+W>
-2.308

> <U>
0.039

> <W>
-2.348

> <W(PB)>
-3.918

> <W(SA)>
1.571

> <Valence>
7.320

> <Coulomb>
-8.530

> <VdW>
1.249

> <VdW6>
-2.615

> <VdW12>
3.864

> <Bond>
0.056

> <Angle>
0.694

> <Pdih>
6.570

> <Idih>
0.000

> <Tether>
0.000

$$$$
VeraChem MOL file


 13 13  0  0  0  0  0  0  0  0999 V2000     
   20.6917   19.6216   22.8456 C   0  0  0  0  0  0  0  0  0  0  0  0
   21.3650   18.9115   23.3435 H   0  0  0  0  0  0  0  0  0  0  0  0
   21.1072   20.6309   22.9504 H   0  0  0  0  0  0  0  0  0  0  0  0
   19.1802   19.4592   23.2150 C   0  0  0  0  0  0  0  0  0  0  0  0
   18.9651   19.1189   24.2337 H   0  0  0  0  0  0  0  0  0  0  0  0
   18.5568   20.3351   22.9964 H   0  0  0  0  0  0  0  0  0  0  0  0
   19.1546   18.3575   22.1130 C   0  0  0  0  0  0  0  0  0  0  0  0
   19.5047   17.3757   22.4601 H   0  0  0  0  0  0  0  0  0  0  0  0
   20.2525   19.2057   21.4029 C   0  0  0  0  0  0  0  0  0  0  0  0
   20.9882   18.6424   20.8184 H   0  0  0  0  0  0  0  0  0  0  0  0
   19.8663   20.0274   20.7868 H   0  0  0  0  0  0  0  0  0  0  0  0
   17.9392   18.2357   21.4112 O   0  0  0  0  0  0  0  0  0  0  0  0
   18.1012   17.6364   20.6511 H   0  0  0  0  0  0  0  0  0  0  0  0
  1  2  1  0  0  0  0
  1  3  1  0  0  0  0
  1  4  1  0  0  0  0
  4  5  1  0  0  0  0
  4  6  1  0  0  0  0
  4  7  1  0  0  0  0
  7  8  1  0  0  0  0
  1  9  1  0  0  0  0
  7  9  1  0  0  0  0
  9 10  1  0  0  0  0
  9 11  1  0  0  0  0
  7 12  1  0  0  0  0
 12 13  1  0  0  0  0
M  END
> <VConfSearch Rank>
41

> <Conf_Id>
22

> <Delta U+W>
0.000

> <U+W>
-3.131

> <U>
-0.154

> <W>
-2.978

> <W(PB)>
-4.579

> <W(SA)>
1.601

> <Valence>
6.333

> <Coulomb>
-7.439

> <VdW>
0.952

> <VdW6>
-2.120

> <VdW12>
3.072

> <Bond>
0.065

> <Angle>
0.931

> <Pdih>
5.338

> <Idih>
0.000

> <Tether>
0.000

$$$$
VeraChem MOL file


 13 13  0  0  0  0  0  0  0  0999 V2000     
   20.6646   19.7150   22.4622 C   0  0  0  0  0  0  0  0  0  0  0  0
   21.5473   19.1835   22.8416 H   0  0  0  0  0  0  0  0  0  0  0  0
   20.8920   20.7868   22.4204 H   0  0  0  0  0  0  0  0  0  0  0  0
   19.3175   19.3250   23.1555 C   0  0  0  0  0  0  0  0  0  0  0  0
   18.5087   20.0555   23.0286 H   0  0  0  0  0  0  0  0  0  0  0  0
   19.3818   19.0502   24.2140 H   0  0  0  0  0  0  0  0  0  0  0  0
   19.2822   18.1381   22.1459 C   0  0  0  0  0  0  0  0  0  0  0  0
   19.8775   17.2691   22.4583 H   0  0  0  0  0  0  0  0  0  0  0  0
   20.0325   19.0960   21.1720 C   0  0  0  0  0  0  0  0  0  0  0  0
   19.3795   19.7744   20.6090 H   0  0  0  0  0  0  0  0  0  0  0  0
   20.7282   18.6169   20.4746 H   0  0  0  0  0  0  0  0  0  0  0  0
   17.9971   17.7401   21.7281 O   0  0  0  0  0  0  0  0  0  0  0  0
   17.5732   17.2838   22.4866 H   0  0  0  0  0  0  0  0  0  0  0  0
  1  2  1  0  0  0  0
  1  3  1  0  0  0  0
  1  4  1  0  0  0  0
  4  5  1  0  0  0  0
  4  6  1  0  0  0  0
  4  7  1  0  0  0  0
  7  8  1  0  0  0  0
  1  9  1  0  0  0  0
  7  9  1  0  0  0  0
  9 10  1  0  0  0  0
  9 11  1  0  0  0  0
  7 12  1  0  0  0  0
 12 13  1  0  0  0  0
M  END
> <VConfSearch Rank>
42

> <Conf_Id>
19

> <Delta U+W>
-0.011

> <U+W>
-3.142

> <U>
-0.154

> <W>
-2.989

> <W(PB)>
-4.588

> <W(SA)>
1.599

> <Valence>
6.334

> <Coulomb>
-7.439

> <VdW>
0.951

> <VdW6>
-2.120

> <VdW12>
3.072

> <Bond>
0.065

> <Angle>
0.930

> <Pdih>
5.339

> <Idih>
0.000

> <Tether>
0.000

$$$$
VeraChem MOL file


 13 13  0  0  0  0  0  0  0  0999 V2000     
   18.4107   19.1734   22.3831 C   0  0  0  0  0  0  0  0  0  0  0  0
   17.4403   18.8929   21.9569 H   0  0  0  0  0  0  0  0  0  0  0  0
   18.2375   19.7471   23.3029 H   0  0  0  0  0  0  0  0  0  0  0  0
   19.4346   19.8243   21.3947 C   0  0  0  0  0  0  0  0  0  0  0  0
   19.3480   19.4791   20.3573 H   0  0  0  0  0  0  0  0  0  0  0  0
   19.4766   20.9191   21.3974 H   0  0  0  0  0  0  0  0  0  0  0  0
   20.5452   19.1011   22.2186 C   0  0  0  0  0  0  0  0  0  0  0  0
   21.3958   18.7435   21.6240 H   0  0  0  0  0  0  0  0  0  0  0  0
   19.4602   18.0212   22.5231 C   0  0  0  0  0  0  0  0  0  0  0  0
   19.5211   17.5439   23.5074 H   0  0  0  0  0  0  0  0  0  0  0  0
   19.3793   17.2383   21.7592 H   0  0  0  0  0  0  0  0  0  0  0  0
   21.0096   19.8157   23.3464 O   0  0  0  0  0  0  0  0  0  0  0  0
   21.5628   19.2001   23.8729 H   0  0  0  0  0  0  0  0  0  0  0  0
  1  2  1  0  0  0  0
  1  3  1  0  0  0  0
  1  4  1  0  0  0  0
  4  5  1  0  0  0  0
  4  6  1  0  0  0  0
  4  7  1  0  0  0  0
  7  8  1  0  0  0  0
  1  9  1  0  0  0  0
  7  9  1  0  0  0  0
  9 10  1  0  0  0  0
  9 11  1  0  0  0  0
  7 12  1  0  0  0  0
 12 13  1  0  0  0  0
M  END
> <VConfSearch Rank>
43

> <Conf_Id>
20

> <Delta U+W>
1.030

> <U+W>
-2.101

> <U>
0.841

> <W>
-2.942

> <W(PB)>
-4.530

> <W(SA)>
1.587

> <Valence>
6.736

> <Coulomb>
-7.246

> <VdW>
1.352

> <VdW6>
-2.500

> <VdW12>
3.851

> <Bond>
0.063

> <Angle>
0.687

> <Pdih>
5.986

> <Idih>
0.000

> <Tether>
0.000

$$$$
VeraChem MOL file


 13 13  0  0  0  0  0  0  0  0999 V2000     
   19.0569   19.7582   21.4918 C   0  0  0  0  0  0  0  0  0  0  0  0
   17.9624   19.6943   21.5518 H   0  0  0  0  0  0  0  0  0  0  0  0
   19.3228   20.5498   20.7811 H   0  0  0  0  0  0  0  0  0  0  0  0
   19.7823   18.3862   21.2953 C   0  0  0  0  0  0  0  0  0  0  0  0
   19.2399   17.6330   20.7134 H   0  0  0  0  0  0  0  0  0  0  0  0
   20.8056   18.4612   20.9070 H   0  0  0  0  0  0  0  0  0  0  0  0
   19.6783   18.2487   22.8443 C   0  0  0  0  0  0  0  0  0  0  0  0
   18.7100   17.8637   23.1920 H   0  0  0  0  0  0  0  0  0  0  0  0
   19.7861   19.8032   22.8751 C   0  0  0  0  0  0  0  0  0  0  0  0
   20.8102   20.1949   22.8399 H   0  0  0  0  0  0  0  0  0  0  0  0
   19.2470   20.3014   23.6884 H   0  0  0  0  0  0  0  0  0  0  0  0
   20.7373   17.5570   23.4622 O   0  0  0  0  0  0  0  0  0  0  0  0
   21.5698   17.9412   23.1156 H   0  0  0  0  0  0  0  0  0  0  0  0
  1  2  1  0  0  0  0
  1  3  1  0  0  0  0
  1  4  1  0  0  0  0
  4  5  1  0  0  0  0
  4  6  1  0  0  0  0
  4  7  1  0  0  0  0
  7  8  1  0  0  0  0
  1  9  1  0  0  0  0
  7  9  1  0  0  0  0
  9 10  1  0  0  0  0
  9 11  1  0  0  0  0
  7 12  1  0  0  0  0
 12 13  1  0  0  0  0
M  END
> <VConfSearch Rank>
44

> <Conf_Id>
24

> <Delta U+W>
0.356

> <U+W>
-2.775

> <U>
-0.184

> <W>
-2.591

> <W(PB)>
-4.184

> <W(SA)>
1.593

> <Valence>
6.840

> <Coulomb>
-7.916

> <VdW>
0.893

> <VdW6>
-2.167

> <VdW12>
3.060

> <Bond>
0.059

> <Angle>
0.918

> <Pdih>
5.862

> <Idih>
0.000

> <Tether>
0.000

$$$$
VeraChem MOL file


 13 13  0  0  0  0  0  0  0  0999 V2000     
   18.7214   19.4884   22.4405 C   0  0  0  0  0  0  0  0  0  0  0  0
   18.2356   20.4414   22.6817 H   0  0  0  0  0  0  0  0  0  0  0  0
   17.9526   18.7060   22.4077 H   0  0  0  0  0  0  0  0  0  0  0  0
   19.9878   19.1321   23.2887 C   0  0  0  0  0  0  0  0  0  0  0  0
   20.5624   20.0009   23.6323 H   0  0  0  0  0  0  0  0  0  0  0  0
   19.8259   18.4626   24.1410 H   0  0  0  0  0  0  0  0  0  0  0  0
   20.5531   18.4660   21.9962 C   0  0  0  0  0  0  0  0  0  0  0  0
   21.6374   18.5689   21.8613 H   0  0  0  0  0  0  0  0  0  0  0  0
   19.6941   19.5075   21.2143 C   0  0  0  0  0  0  0  0  0  0  0  0
   20.1968   20.4683   21.0493 H   0  0  0  0  0  0  0  0  0  0  0  0
   19.2767   19.1648   20.2609 H   0  0  0  0  0  0  0  0  0  0  0  0
   20.1691   17.1212   21.8072 O   0  0  0  0  0  0  0  0  0  0  0  0
   19.1990   17.0899   21.9389 H   0  0  0  0  0  0  0  0  0  0  0  0
  1  2  1  0  0  0  0
  1  3  1  0  0  0  0
  1  4  1  0  0  0  0
  4  5  1  0  0  0  0
  4  6  1  0  0  0  0
  4  7  1  0  0  0  0
  7  8  1  0  0  0  0
  1  9  1  0  0  0  0
  7  9  1  0  0  0  0
  9 10  1  0  0  0  0
  9 11  1  0  0  0  0
  7 12  1  0  0  0  0
 12 13  1  0  0  0  0
M  END
> <VConfSearch Rank>
45

> <Conf_Id>
44

> <Delta U+W>
0.823

> <U+W>
-2.308

> <U>
0.039

> <W>
-2.348

> <W(PB)>
-3.918

> <W(SA)>
1.571

> <Valence>
7.320

> <Coulomb>
-8.530

> <VdW>
1.249

> <VdW6>
-2.615

> <VdW12>
3.864

> <Bond>
0.056

> <Angle>
0.694

> <Pdih>
6.570

> <Idih>
0.000

> <Tether>
0.000

$$$$
VeraChem MOL file


 13 13  0  0  0  0  0  0  0  0999 V2000     
   18.6421   18.2538   22.5092 C   0  0  0  0  0  0  0  0  0  0  0  0
   17.9396   18.6773   23.2391 H   0  0  0  0  0  0  0  0  0  0  0  0
   18.2485   17.2913   22.1616 H   0  0  0  0  0  0  0  0  0  0  0  0
   20.1395   18.2605   22.9621 C   0  0  0  0  0  0  0  0  0  0  0  0
   20.3208   18.1376   24.0354 H   0  0  0  0  0  0  0  0  0  0  0  0
   20.7891   17.5676   22.4128 H   0  0  0  0  0  0  0  0  0  0  0  0
   20.1663   19.7265   22.4339 C   0  0  0  0  0  0  0  0  0  0  0  0
   19.7841   20.4635   23.1535 H   0  0  0  0  0  0  0  0  0  0  0  0
   19.1072   19.2486   21.3950 C   0  0  0  0  0  0  0  0  0  0  0  0
   18.3731   19.9989   21.0813 H   0  0  0  0  0  0  0  0  0  0  0  0
   19.5284   18.7713   20.5014 H   0  0  0  0  0  0  0  0  0  0  0  0
   21.3957   20.1486   21.8907 O   0  0  0  0  0  0  0  0  0  0  0  0
   21.2384   21.0124   21.4523 H   0  0  0  0  0  0  0  0  0  0  0  0
  1  2  1  0  0  0  0
  1  3  1  0  0  0  0
  1  4  1  0  0  0  0
  4  5  1  0  0  0  0
  4  6  1  0  0  0  0
  4  7  1  0  0  0  0
  7  8  1  0  0  0  0
  1  9  1  0  0  0  0
  7  9  1  0  0  0  0
  9 10  1  0  0  0  0
  9 11  1  0  0  0  0
  7 12  1  0  0  0  0
 12 13  1  0  0  0  0
M  END
> <VConfSearch Rank>
46

> <Conf_Id>
22

> <Delta U+W>
0.000

> <U+W>
-3.131

> <U>
-0.154

> <W>
-2.978

> <W(PB)>
-4.579

> <W(SA)>
1.601

> <Valence>
6.333

> <Coulomb>
-7.439

> <VdW>
0.952

> <VdW6>
-2.120

> <VdW12>
3.072

> <Bond>
0.065

> <Angle>
0.931

> <Pdih>
5.338

> <Idih>
0.000

> <Tether>
0.000

$$$$
VeraChem MOL file


 13 13  0  0  0  0  0  0  0  0999 V2000     
   20.7662   18.4619   22.7296 C   0  0  0  0  0  0  0  0  0  0  0  0
   20.6325   17.7686   23.5705 H   0  0  0  0  0  0  0  0  0  0  0  0
   21.8401   18.6102   22.5650 H   0  0  0  0  0  0  0  0  0  0  0  0
   19.8973   19.7605   22.8075 C   0  0  0  0  0  0  0  0  0  0  0  0
   20.2493   20.5858   22.1759 H   0  0  0  0  0  0  0  0  0  0  0  0
   19.6963   20.1467   23.8128 H   0  0  0  0  0  0  0  0  0  0  0  0
   18.7665   18.8960   22.1725 C   0  0  0  0  0  0  0  0  0  0  0  0
   18.2081   18.2892   22.8986 H   0  0  0  0  0  0  0  0  0  0  0  0
   19.9170   18.1226   21.4604 C   0  0  0  0  0  0  0  0  0  0  0  0
   20.2711   18.5883   20.5323 H   0  0  0  0  0  0  0  0  0  0  0  0
   19.7313   17.0595   21.2727 H   0  0  0  0  0  0  0  0  0  0  0  0
   17.8866   19.5882   21.3174 O   0  0  0  0  0  0  0  0  0  0  0  0
   17.3200   20.1569   21.8819 H   0  0  0  0  0  0  0  0  0  0  0  0
  1  2  1  0  0  0  0
  1  3  1  0  0  0  0
  1  4  1  0  0  0  0
  4  5  1  0  0  0  0
  4  6  1  0  0  0  0
  4  7  1  0  0  0  0
  7  8  1  0  0  0  0
  1  9  1  0  0  0  0
  7  9  1  0  0  0  0
  9 10  1  0  0  0  0
  9 11  1  0  0  0  0
  7 12  1  0  0  0  0
 12 13  1  0  0  0  0
M  END
> <VConfSearch Rank>
47

> <Conf_Id>
19

> <Delta U+W>
-0.011

> <U+W>
-3.142

> <U>
-0.154

> <W>
-2.989

> <W(PB)>
-4.588

> <W(SA)>
1.599

> <Valence>
6.334

> <Coulomb>
-7.439

> <VdW>
0.951

> <VdW6>
-2.120

> <VdW12>
3.072

> <Bond>
0.065

> <Angle>
0.930

> <Pdih>
5.339

> <Idih>
0.000

> <Tether>
0.000

$$$$
VeraChem MOL file


 13 13  0  0  0  0  0  0  0  0999 V2000     
   19.8012   18.7410   21.1008 C   0  0  0  0  0  0  0  0  0  0  0  0
   19.3055   18.5361   20.1446 H   0  0  0  0  0  0  0  0  0  0  0  0
   20.8877   18.7115   20.9464 H   0  0  0  0  0  0  0  0  0  0  0  0
   19.2970   17.9127   22.3291 C   0  0  0  0  0  0  0  0  0  0  0  0
   18.2368   17.6355   22.2867 H   0  0  0  0  0  0  0  0  0  0  0  0
   19.8824   17.0216   22.5816 H   0  0  0  0  0  0  0  0  0  0  0  0
   19.5919   19.1830   23.1863 C   0  0  0  0  0  0  0  0  0  0  0  0
   18.8858   19.3532   24.0092 H   0  0  0  0  0  0  0  0  0  0  0  0
   19.2898   19.9935   21.8872 C   0  0  0  0  0  0  0  0  0  0  0  0
   19.8670   20.9147   21.7511 H   0  0  0  0  0  0  0  0  0  0  0  0
   18.2274   20.2210   21.7370 H   0  0  0  0  0  0  0  0  0  0  0  0
   20.9200   19.2861   23.6593 O   0  0  0  0  0  0  0  0  0  0  0  0
   21.0290   20.1899   24.0247 H   0  0  0  0  0  0  0  0  0  0  0  0
  1  2  1  0  0  0  0
  1  3  1  0  0  0  0
  1  4  1  0  0  0  0
  4  5  1  0  0  0  0
  4  6  1  0  0  0  0
  4  7  1  0  0  0  0
  7  8  1  0  0  0  0
  1  9  1  0  0  0  0
  7  9  1  0  0  0  0
  9 10  1  0  0  0  0
  9 11  1  0  0  0  0
  7 12  1  0  0  0  0
 12 13  1  0  0  0  0
M  END
> <VConfSearch Rank>
48

> <Conf_Id>
20

> <Delta U+W>
1.030

> <U+W>
-2.101

> <U>
0.841

> <W>
-2.942

> <W(PB)>
-4.530

> <W(SA)>
1.587

> <Valence>
6.736

> <Coulomb>
-7.246

> <VdW>
1.352

> <VdW6>
-2.500

> <VdW12>
3.851

> <Bond>
0.063

> <Angle>
0.687

> <Pdih>
5.986

> <Idih>
0.000

> <Tether>
0.000

$$$$
VeraChem MOL file


 13 13  0  0  0  0  0  0  0  0999 V2000     
   18.7939   18.1312   22.4550 C   0  0  0  0  0  0  0  0  0  0  0  0
   18.1145   17.8723   21.6321 H   0  0  0  0  0  0  0  0  0  0  0  0
   18.4772   17.5892   23.3540 H   0  0  0  0  0  0  0  0  0  0  0  0
   19.0524   19.6640   22.6319 C   0  0  0  0  0  0  0  0  0  0  0  0
   18.2188   20.3265   22.3741 H   0  0  0  0  0  0  0  0  0  0  0  0
   19.4390   19.9519   23.6173 H   0  0  0  0  0  0  0  0  0  0  0  0
   20.1392   19.4832   21.5295 C   0  0  0  0  0  0  0  0  0  0  0  0
   19.7420   19.5102   20.5057 H   0  0  0  0  0  0  0  0  0  0  0  0
   20.3148   18.0433   22.0995 C   0  0  0  0  0  0  0  0  0  0  0  0
   20.9836   17.9690   22.9659 H   0  0  0  0  0  0  0  0  0  0  0  0
   20.5961   17.2745   21.3714 H   0  0  0  0  0  0  0  0  0  0  0  0
   21.2643   20.3211   21.6468 O   0  0  0  0  0  0  0  0  0  0  0  0
   21.5728   20.2564   22.5749 H   0  0  0  0  0  0  0  0  0  0  0  0
  1  2  1  0  0  0  0
  1  3  1  0  0  0  0
  1  4  1  0  0  0  0
  4  5  1  0  0  0  0
  4  6  1  0  0  0  0
  4  7  1  0  0  0  0
  7  8  1  0  0  0  0
  1  9  1  0  0  0  0
  7  9  1  0  0  0  0
  9 10  1  0  0  0  0
  9 11  1  0  0  0  0
  7 12  1  0  0  0  0
 12 13  1  0  0  0  0
M  END
> <VConfSearch Rank>
49

> <Conf_Id>
24

> <Delta U+W>
0.356

> <U+W>
-2.775

> <U>
-0.184

> <W>
-2.591

> <W(PB)>
-4.184

> <W(SA)>
1.593

> <Valence>
6.840

> <Coulomb>
-7.916

> <VdW>
0.893

> <VdW6>
-2.167

> <VdW12>
3.060

> <Bond>
0.059

> <Angle>
0.918

> <Pdih>
5.862

> <Idih>
0.000

> <Tether>
0.000

$$$$
VeraChem MOL file


 13 13  0  0  0  0  0  0  0  0999 V2000     
   19.9055   20.0059   22.5955 C   0  0  0  0  0  0  0  0  0  0  0  0
   19.4738   20.9622   22.9140 H   0  0  0  0  0  0  0  0  0  0  0  0
   20.9973   20.0713   22.6856 H   0  0  0  0  0  0  0  0  0  0  0  0
   19.3902   19.4441   21.2283 C   0  0  0  0  0  0  0  0  0  0  0  0
   18.3562   19.7183   20.9864 H   0  0  0  0  0  0  0  0  0  0  0  0
   20.0183   19.6489   20.3541 H   0  0  0  0  0  0  0  0  0  0  0  0
   19.5413   18.0252   21.8591 C   0  0  0  0  0  0  0  0  0  0  0  0
   18.7770   17.3004   21.5512 H   0  0  0  0  0  0  0  0  0  0  0  0
   19.2684   18.7233   23.2273 C   0  0  0  0  0  0  0  0  0  0  0  0
   18.2045   18.8208   23.4755 H   0  0  0  0  0  0  0  0  0  0  0  0
   19.7905   18.3007   24.0931 H   0  0  0  0  0  0  0  0  0  0  0  0
   20.8260   17.4549   21.7317 O   0  0  0  0  0  0  0  0  0  0  0  0
   21.4627   18.1418   22.0182 H   0  0  0  0  0  0  0  0  0  0  0  0
  1  2  1  0  0  0  0
  1  3  1  0  0  0  0
  1  4  1  0  0  0  0
  4  5  1  0  0  0  0
  4  6  1  0  0  0  0
  4  7  1  0  0  0  0
  7  8  1  0  0  0  0
  1  9  1  0  0  0  0
  7  9  1  0  0  0  0
  9 10  1  0  0  0  0
  9 11  1  0  0  0  0
  7 12  1  0  0  0  0
 12 13  1  0  0  0  0
M  END
> <VConfSearch Rank>
50

> <Conf_Id>
44

> <Delta U+W>
0.823

> <U+W>
-2.308

> <U>
0.039

> <W>
-2.348

> <W(PB)>
-3.918

> <W(SA)>
1.571

> <Valence>
7.320

> <Coulomb>
-8.530

> <VdW>
1.249

> <VdW6>
-2.615

> <VdW12>
3.864

> <Bond>
0.056

> <Angle>
0.694

> <Pdih>
6.570

> <Idih>
0.000

> <Tether>
0.000

$$$$
VeraChem MOL file


 13 13  0  0  0  0  0  0  0  0999 V2000     
   19.2738   19.6680   23.3419 C   0  0  0  0  0  0  0  0  0  0  0  0
   19.5172   20.7387   23.3444 H   0  0  0  0  0  0  0  0  0  0  0  0
   18.7131   19.4340   24.2546 H   0  0  0  0  0  0  0  0  0  0  0  0
   20.4775   18.7241   23.0141 C   0  0  0  0  0  0  0  0  0  0  0  0
   21.4636   19.0634   23.3496 H   0  0  0  0  0  0  0  0  0  0  0  0
   20.3401   17.6800   23.3215 H   0  0  0  0  0  0  0  0  0  0  0  0
   20.1356   19.0075   21.5202 C   0  0  0  0  0  0  0  0  0  0  0  0
   20.5649   19.9436   21.1376 H   0  0  0  0  0  0  0  0  0  0  0  0
   18.6598   19.1395   22.0036 C   0  0  0  0  0  0  0  0  0  0  0  0
   18.0359   19.8471   21.4467 H   0  0  0  0  0  0  0  0  0  0  0  0
   18.1219   18.1872   22.0911 H   0  0  0  0  0  0  0  0  0  0  0  0
   20.3862   17.9427   20.6325 O   0  0  0  0  0  0  0  0  0  0  0  0
   19.9834   18.1822   19.7702 H   0  0  0  0  0  0  0  0  0  0  0  0
  1  2  1  0  0  0  0
  1  3  1  0  0  0  0
  1  4  1  0  0  0  0
  4  5  1  0  0  0  0
  4  6  1  0  0  0  0
  4  7  1  0  0  0  0
  7  8  1  0  0  0  0
  1  9  1  0  0  0  0
  7  9  1  0  0  0  0
  9 10  1  0  0  0  0
  9 11  1  0  0  0  0
  7 12  1  0  0  0  0
 12 13  1  0  0  0  0
M  END
> <VConfSearch Rank>
51

> <Conf_Id>
22

> <Delta U+W>
0.000

> <U+W>
-3.131

> <U>
-0.154

> <W>
-2.978

> <W(PB)>
-4.579

> <W(SA)>
1.601

> <Valence>
6.333

> <Coulomb>
-7.439

> <VdW>
0.952

> <VdW6>
-2.120

> <VdW12>
3.072

> <Bond>
0.065

> <Angle>
0.931

> <Pdih>
5.338

> <Idih>
0.000

> <Tether>
0.000

$$$$
VeraChem MOL file


 13 13  0  0  0  0  0  0  0  0999 V2000     
   19.0229   19.0789   21.0840 C   0  0  0  0  0  0  0  0  0  0  0  0
   19.5919   18.6727   20.2374 H   0  0  0  0  0  0  0  0  0  0  0  0
   18.1121   19.5528   20.6990 H   0  0  0  0  0  0  0  0  0  0  0  0
   19.8657   19.9279   22.0921 C   0  0  0  0  0  0  0  0  0  0  0  0
   19.2764   20.5932   22.7354 H   0  0  0  0  0  0  0  0  0  0  0  0
   20.6985   20.4972   21.6647 H   0  0  0  0  0  0  0  0  0  0  0  0
   20.2390   18.5617   22.7426 C   0  0  0  0  0  0  0  0  0  0  0  0
   21.0680   18.0417   22.2432 H   0  0  0  0  0  0  0  0  0  0  0  0
   18.8290   18.0872   22.2782 C   0  0  0  0  0  0  0  0  0  0  0  0
   18.0133   18.3473   22.9642 H   0  0  0  0  0  0  0  0  0  0  0  0
   18.7454   17.0265   22.0175 H   0  0  0  0  0  0  0  0  0  0  0  0
   20.4352   18.5918   24.1373 O   0  0  0  0  0  0  0  0  0  0  0  0
   21.2846   19.0552   24.3014 H   0  0  0  0  0  0  0  0  0  0  0  0
  1  2  1  0  0  0  0
  1  3  1  0  0  0  0
  1  4  1  0  0  0  0
  4  5  1  0  0  0  0
  4  6  1  0  0  0  0
  4  7  1  0  0  0  0
  7  8  1  0  0  0  0
  1  9  1  0  0  0  0
  7  9  1  0  0  0  0
  9 10  1  0  0  0  0
  9 11  1  0  0  0  0
  7 12  1  0  0  0  0
 12 13  1  0  0  0  0
M  END
> <VConfSearch Rank>
52

> <Conf_Id>
19

> <Delta U+W>
-0.011

> <U+W>
-3.142

> <U>
-0.154

> <W>
-2.989

> <W(PB)>
-4.588

> <W(SA)>
1.599

> <Valence>
6.334

> <Coulomb>
-7.439

> <VdW>
0.951

> <VdW6>
-2.120

> <VdW12>
3.072

> <Bond>
0.065

> <Angle>
0.930

> <Pdih>
5.339

> <Idih>
0.000

> <Tether>
0.000

$$$$
VeraChem MOL file


 13 13  0  0  0  0  0  0  0  0999 V2000     
   20.2702   18.7235   21.2794 C   0  0  0  0  0  0  0  0  0  0  0  0
   20.7592   17.8922   20.7582 H   0  0  0  0  0  0  0  0  0  0  0  0
   20.3112   19.6131   20.6375 H   0  0  0  0  0  0  0  0  0  0  0  0
   20.7193   18.9684   22.7584 C   0  0  0  0  0  0  0  0  0  0  0  0
   21.0281   18.0637   23.2959 H   0  0  0  0  0  0  0  0  0  0  0  0
   21.4804   19.7421   22.9083 H   0  0  0  0  0  0  0  0  0  0  0  0
   19.2462   19.4041   23.0335 C   0  0  0  0  0  0  0  0  0  0  0  0
   18.8647   19.1258   24.0243 H   0  0  0  0  0  0  0  0  0  0  0  0
   18.8586   18.4221   21.8840 C   0  0  0  0  0  0  0  0  0  0  0  0
   18.0003   18.7167   21.2701 H   0  0  0  0  0  0  0  0  0  0  0  0
   18.7163   17.3843   22.2091 H   0  0  0  0  0  0  0  0  0  0  0  0
   18.9705   20.7660   22.7740 O   0  0  0  0  0  0  0  0  0  0  0  0
   17.9967   20.8777   22.8114 H   0  0  0  0  0  0  0  0  0  0  0  0
  1  2  1  0  0  0  0
  1  3  1  0  0  0  0
  1  4  1  0  0  0  0
  4  5  1  0  0  0  0
  4  6  1  0  0  0  0
  4  7  1  0  0  0  0
  7  8  1  0  0  0  0
  1  9  1  0  0  0  0
  7  9  1  0  0  0  0
  9 10  1  0  0  0  0
  9 11  1  0  0  0  0
  7 12  1  0  0  0  0
 12 13  1  0  0  0  0
M  END
> <VConfSearch Rank>
53

> <Conf_Id>
20

> <Delta U+W>
1.030

> <U+W>
-2.101

> <U>
0.841

> <W>
-2.942

> <W(PB)>
-4.530

> <W(SA)>
1.587

> <Valence>
6.736

> <Coulomb>
-7.246

> <VdW>
1.352

> <VdW6>
-2.500

> <VdW12>
3.851

> <Bond>
0.063

> <Angle>
0.687

> <Pdih>
5.986

> <Idih>
0.000

> <Tether>
0.000

$$$$
VeraChem MOL file


 13 13  0  0  0  0  0  0  0  0999 V2000     
   20.8134   18.2429   22.2329 C   0  0  0  0  0  0  0  0  0  0  0  0
   21.7795   18.7643   22.2565 H   0  0  0  0  0  0  0  0  0  0  0  0
   20.9990   17.1621   22.2324 H   0  0  0  0  0  0  0  0  0  0  0  0
   19.8128   18.7688   21.1515 C   0  0  0  0  0  0  0  0  0  0  0  0
   20.2590   19.1484   20.2256 H   0  0  0  0  0  0  0  0  0  0  0  0
   19.0085   18.0688   20.8934 H   0  0  0  0  0  0  0  0  0  0  0  0
   19.4279   19.8472   22.2089 C   0  0  0  0  0  0  0  0  0  0  0  0
   20.1047   20.7123   22.2276 H   0  0  0  0  0  0  0  0  0  0  0  0
   19.7656   18.7598   23.2731 C   0  0  0  0  0  0  0  0  0  0  0  0
   18.9508   18.0578   23.4893 H   0  0  0  0  0  0  0  0  0  0  0  0
   20.1701   19.1314   24.2211 H   0  0  0  0  0  0  0  0  0  0  0  0
   18.0851   20.2691   22.1808 O   0  0  0  0  0  0  0  0  0  0  0  0
   17.5321   19.4600   22.1651 H   0  0  0  0  0  0  0  0  0  0  0  0
  1  2  1  0  0  0  0
  1  3  1  0  0  0  0
  1  4  1  0  0  0  0
  4  5  1  0  0  0  0
  4  6  1  0  0  0  0
  4  7  1  0  0  0  0
  7  8  1  0  0  0  0
  1  9  1  0  0  0  0
  7  9  1  0  0  0  0
  9 10  1  0  0  0  0
  9 11  1  0  0  0  0
  7 12  1  0  0  0  0
 12 13  1  0  0  0  0
M  END
> <VConfSearch Rank>
54

> <Conf_Id>
24

> <Delta U+W>
0.356

> <U+W>
-2.775

> <U>
-0.184

> <W>
-2.591

> <W(PB)>
-4.184

> <W(SA)>
1.593

> <Valence>
6.840

> <Coulomb>
-7.916

> <VdW>
0.893

> <VdW6>
-2.167

> <VdW12>
3.060

> <Bond>
0.059

> <Angle>
0.918

> <Pdih>
5.862

> <Idih>
0.000

> <Tether>
0.000

$$$$
VeraChem MOL file


 13 13  0  0  0  0  0  0  0  0999 V2000     
   19.9233   18.0445   22.8054 C   0  0  0  0  0  0  0  0  0  0  0  0
   20.0936   17.6276   23.8052 H   0  0  0  0  0  0  0  0  0  0  0  0
   20.0104   17.2329   22.0720 H   0  0  0  0  0  0  0  0  0  0  0  0
   20.7337   19.3374   22.4562 C   0  0  0  0  0  0  0  0  0  0  0  0
   20.9572   19.9788   23.3174 H   0  0  0  0  0  0  0  0  0  0  0  0
   21.6562   19.1895   21.8836 H   0  0  0  0  0  0  0  0  0  0  0  0
   19.4859   19.7870   21.6347 C   0  0  0  0  0  0  0  0  0  0  0  0
   19.2834   20.8654   21.6576 H   0  0  0  0  0  0  0  0  0  0  0  0
   18.6509   18.9422   22.6462 C   0  0  0  0  0  0  0  0  0  0  0  0
   18.3637   19.4867   23.5539 H   0  0  0  0  0  0  0  0  0  0  0  0
   17.7604   18.4504   22.2388 H   0  0  0  0  0  0  0  0  0  0  0  0
   19.4535   19.3183   20.3039 O   0  0  0  0  0  0  0  0  0  0  0  0
   19.6396   18.3575   20.3449 H   0  0  0  0  0  0  0  0  0  0  0  0
  1  2  1  0  0  0  0
  1  3  1  0  0  0  0
  1  4  1  0  0  0  0
  4  5  1  0  0  0  0
  4  6  1  0  0  0  0
  4  7  1  0  0  0  0
  7  8  1  0  0  0  0
  1  9  1  0  0  0  0
  7  9  1  0  0  0  0
  9 10  1  0  0  0  0
  9 11  1  0  0  0  0
  7 12  1  0  0  0  0
 12 13  1  0  0  0  0
M  END
> <VConfSearch Rank>
55

> <Conf_Id>
44

> <Delta U+W>
0.823

> <U+W>
-2.308

> <U>
0.039

> <W>
-2.348

> <W(PB)>
-3.918

> <W(SA)>
1.571

> <Valence>
7.320

> <Coulomb>
-8.530

> <VdW>
1.249

> <VdW6>
-2.615

> <VdW12>
3.864

> <Bond>
0.056

> <Angle>
0.694

> <Pdih>
6.570

> <Idih>
0.000

> <Tether>
0.000

$$$$
VeraChem MOL file


 13 13  0  0  0  0  0  0  0  0999 V2000     
   19.0092   17.9131   22.4269 C   0  0  0  0  0  0  0  0  0  0  0  0
   19.6363   17.0193   22.3100 H   0  0  0  0  0  0  0  0  0  0  0  0
   17.9999   17.5975   22.7166 H   0  0  0  0  0  0  0  0  0  0  0  0
   19.0972   18.9334   21.2444 C   0  0  0  0  0  0  0  0  0  0  0  0
   19.2680   18.5075   20.2497 H   0  0  0  0  0  0  0  0  0  0  0  0
   18.2622   19.6426   21.1859 H   0  0  0  0  0  0  0  0  0  0  0  0
   20.3609   19.4827   21.9724 C   0  0  0  0  0  0  0  0  0  0  0  0
   21.2775   18.9167   21.7565 H   0  0  0  0  0  0  0  0  0  0  0  0
   19.6470   19.0520   23.2892 C   0  0  0  0  0  0  0  0  0  0  0  0
   20.3030   18.7293   24.1051 H   0  0  0  0  0  0  0  0  0  0  0  0
   18.9312   19.7856   23.6807 H   0  0  0  0  0  0  0  0  0  0  0  0
   20.5829   20.8668   21.8321 O   0  0  0  0  0  0  0  0  0  0  0  0
   21.2976   21.1115   22.4586 H   0  0  0  0  0  0  0  0  0  0  0  0
  1  2  1  0  0  0  0
  1  3  1  0  0  0  0
  1  4  1  0  0  0  0
  4  5  1  0  0  0  0
  4  6  1  0  0  0  0
  4  7  1  0  0  0  0
  7  8  1  0  0  0  0
  1  9  1  0  0  0  0
  7  9  1  0  0  0  0
  9 10  1  0  0  0  0
  9 11  1  0  0  0  0
  7 12  1  0  0  0  0
 12 13  1  0  0  0  0
M  END
> <VConfSearch Rank>
56

> <Conf_Id>
22

> <Delta U+W>
0.000

> <U+W>
-3.131

> <U>
-0.154

> <W>
-2.978

> <W(PB)>
-4.579

> <W(SA)>
1.601

> <Valence>
6.333

> <Coulomb>
-7.439

> <VdW>
0.952

> <VdW6>
-2.120

> <VdW12>
3.072

> <Bond>
0.065

> <Angle>
0.931

> <Pdih>
5.338

> <Idih>
0.000

> <Tether>
0.000

$$$$
VeraChem MOL file


 13 13  0  0  0  0  0  0  0  0999 V2000     
   19.6564   20.1393   22.7633 C   0  0  0  0  0  0  0  0  0  0  0  0
   19.1674   20.8938   22.1331 H   0  0  0  0  0  0  0  0  0  0  0  0
   20.0816   20.6389   23.6419 H   0  0  0  0  0  0  0  0  0  0  0  0
   20.6115   19.1657   21.9971 C   0  0  0  0  0  0  0  0  0  0  0  0
   21.3367   18.6415   22.6320 H   0  0  0  0  0  0  0  0  0  0  0  0
   21.1381   19.5869   21.1338 H   0  0  0  0  0  0  0  0  0  0  0  0
   19.3232   18.3494   21.6759 C   0  0  0  0  0  0  0  0  0  0  0  0
   18.7590   18.7283   20.8126 H   0  0  0  0  0  0  0  0  0  0  0  0
   18.7938   18.8656   23.0478 C   0  0  0  0  0  0  0  0  0  0  0  0
   19.1192   18.2736   23.9122 H   0  0  0  0  0  0  0  0  0  0  0  0
   17.7112   19.0193   23.1132 H   0  0  0  0  0  0  0  0  0  0  0  0
   19.5003   16.9548   21.5848 O   0  0  0  0  0  0  0  0  0  0  0  0
   19.9837   16.7772   20.7493 H   0  0  0  0  0  0  0  0  0  0  0  0
  1  2  1  0  0  0  0
  1  3  1  0  0  0  0
  1  4  1  0  0  0  0
  4  5  1  0  0  0  0
  4  6  1  0  0  0  0
  4  7  1  0  0  0  0
  7  8  1  0  0  0  0
  1  9  1  0  0  0  0
  7  9  1  0  0  0  0
  9 10  1  0  0  0  0
  9 11  1  0  0  0  0
  7 12  1  0  0  0  0
 12 13  1  0  0  0  0
M  END
> <VConfSearch Rank>
57

> <Conf_Id>
19

> <Delta U+W>
-0.011

> <U+W>
-3.142

> <U>
-0.154

> <W>
-2.989

> <W(PB)>
-4.588

> <W(SA)>
1.599

> <Valence>
6.334

> <Coulomb>
-7.439

> <VdW>
0.951

> <VdW6>
-2.120

> <VdW12>
3.072

> <Bond>
0.065

> <Angle>
0.930

> <Pdih>
5.339

> <Idih>
0.000

> <Tether>
0.000

$$$$
VeraChem MOL file


 13 13  0  0  0  0  0  0  0  0999 V2000     
   18.5986   19.2306   22.9264 C   0  0  0  0  0  0  0  0  0  0  0  0
   18.0160   18.9086   23.7976 H   0  0  0  0  0  0  0  0  0  0  0  0
   18.0965   20.0922   22.4673 H   0  0  0  0  0  0  0  0  0  0  0  0
   19.0097   18.1058   21.9191 C   0  0  0  0  0  0  0  0  0  0  0  0
   19.1676   17.1214   22.3759 H   0  0  0  0  0  0  0  0  0  0  0  0
   18.3639   17.9857   21.0421 H   0  0  0  0  0  0  0  0  0  0  0  0
   20.3200   18.9218   21.6895 C   0  0  0  0  0  0  0  0  0  0  0  0
   21.2157   18.3102   21.5210 H   0  0  0  0  0  0  0  0  0  0  0  0
   20.1347   19.4199   23.1571 C   0  0  0  0  0  0  0  0  0  0  0  0
   20.4672   20.4435   23.3620 H   0  0  0  0  0  0  0  0  0  0  0  0
   20.5653   18.7539   23.9148 H   0  0  0  0  0  0  0  0  0  0  0  0
   20.2284   19.9283   20.7012 O   0  0  0  0  0  0  0  0  0  0  0  0
   21.0380   20.4778   20.7701 H   0  0  0  0  0  0  0  0  0  0  0  0
  1  2  1  0  0  0  0
  1  3  1  0  0  0  0
  1  4  1  0  0  0  0
  4  5  1  0  0  0  0
  4  6  1  0  0  0  0
  4  7  1  0  0  0  0
  7  8  1  0  0  0  0
  1  9  1  0  0  0  0
  7  9  1  0  0  0  0
  9 10  1  0  0  0  0
  9 11  1  0  0  0  0
  7 12  1  0  0  0  0
 12 13  1  0  0  0  0
M  END
> <VConfSearch Rank>
58

> <Conf_Id>
20

> <Delta U+W>
1.030

> <U+W>
-2.101

> <U>
0.841

> <W>
-2.942

> <W(PB)>
-4.530

> <W(SA)>
1.587

> <Valence>
6.736

> <Coulomb>
-7.246

> <VdW>
1.352

> <VdW6>
-2.500

> <VdW12>
3.851

> <Bond>
0.063

> <Angle>
0.687

> <Pdih>
5.986

> <Idih>
0.000

> <Tether>
0.000

$$$$
VeraChem MOL file


 13 13  0  0  0  0  0  0  0  0999 V2000     
   20.6954   19.6702   21.7336 C   0  0  0  0  0  0  0  0  0  0  0  0
   20.9117   20.6304   22.2205 H   0  0  0  0  0  0  0  0  0  0  0  0
   21.3888   19.5394   20.8943 H   0  0  0  0  0  0  0  0  0  0  0  0
   19.1830   19.4215   21.4208 C   0  0  0  0  0  0  0  0  0  0  0  0
   18.5880   20.3095   21.1805 H   0  0  0  0  0  0  0  0  0  0  0  0
   18.9933   18.6543   20.6600 H   0  0  0  0  0  0  0  0  0  0  0  0
   19.0870   18.9208   22.8936 C   0  0  0  0  0  0  0  0  0  0  0  0
   18.9626   19.7269   23.6295 H   0  0  0  0  0  0  0  0  0  0  0  0
   20.5635   18.4562   22.7115 C   0  0  0  0  0  0  0  0  0  0  0  0
   20.6824   17.4733   22.2392 H   0  0  0  0  0  0  0  0  0  0  0  0
   21.1878   18.4917   23.6112 H   0  0  0  0  0  0  0  0  0  0  0  0
   18.1535   17.8923   23.1228 O   0  0  0  0  0  0  0  0  0  0  0  0
   18.3117   17.2063   22.4407 H   0  0  0  0  0  0  0  0  0  0  0  0
  1  2  1  0  0  0  0
  1  3  1  0  0  0  0
  1  4  1  0  0  0  0
  4  5  1  0  0  0  0
  4  6  1  0  0  0  0
  4  7  1  0  0  0  0
  7  8  1  0  0  0  0
  1  9  1  0  0  0  0
  7  9  1  0  0  0  0
  9 10  1  0  0  0  0
  9 11  1  0  0  0  0
  7 12  1  0  0  0  0
 12 13  1  0  0  0  0
M  END
> <VConfSearch Rank>
59

> <Conf_Id>
24

> <Delta U+W>
0.356

> <U+W>
-2.775

> <U>
-0.184

> <W>
-2.591

> <W(PB)>
-4.184

> <W(SA)>
1.593

> <Valence>
6.840

> <Coulomb>
-7.916

> <VdW>
0.893

> <VdW6>
-2.167

> <VdW12>
3.060

> <Bond>
0.059

> <Angle>
0.918

> <Pdih>
5.862

> <Idih>
0.000

> <Tether>
0.000

$$$$
VeraChem MOL file


 13 13  0  0  0  0  0  0  0  0999 V2000     
   20.7628   19.3180   22.2457 C   0  0  0  0  0  0  0  0  0  0  0  0
   21.7701   19.1166   22.6293 H   0  0  0  0  0  0  0  0  0  0  0  0
   20.7974   20.2370   21.6469 H   0  0  0  0  0  0  0  0  0  0  0  0
   19.6057   19.2611   23.2983 C   0  0  0  0  0  0  0  0  0  0  0  0
   19.7781   18.5599   24.1240 H   0  0  0  0  0  0  0  0  0  0  0  0
   19.2867   20.2216   23.7182 H   0  0  0  0  0  0  0  0  0  0  0  0
   18.7152   18.6883   22.1525 C   0  0  0  0  0  0  0  0  0  0  0  0
   17.9852   17.9329   22.4702 H   0  0  0  0  0  0  0  0  0  0  0  0
   20.0382   18.1120   21.5596 C   0  0  0  0  0  0  0  0  0  0  0  0
   20.3166   17.1292   21.9590 H   0  0  0  0  0  0  0  0  0  0  0  0
   20.0956   18.0724   20.4661 H   0  0  0  0  0  0  0  0  0  0  0  0
   18.0830   19.6629   21.3512 O   0  0  0  0  0  0  0  0  0  0  0  0
   18.7774   20.3060   21.0990 H   0  0  0  0  0  0  0  0  0  0  0  0
  1  2  1  0  0  0  0
  1  3  1  0  0  0  0
  1  4  1  0  0  0  0
  4  5  1  0  0  0  0
  4  6  1  0  0  0  0
  4  7  1  0  0  0  0
  7  8  1  0  0  0  0
  1  9  1  0  0  0  0
  7  9  1  0  0  0  0
  9 10  1  0  0  0  0
  9 11  1  0  0  0  0
  7 12  1  0  0  0  0
 12 13  1  0  0  0  0
M  END
> <VConfSearch Rank>
60

> <Conf_Id>
44

> <Delta U+W>
0.823

> <U+W>
-2.308

> <U>
0.039

> <W>
-2.348

> <W(PB)>
-3.918

> <W(SA)>
1.571

> <Valence>
7.320

> <Coulomb>
-8.530

> <VdW>
1.249

> <VdW6>
-2.615

> <VdW12>
3.864

> <Bond>
0.056

> <Angle>
0.694

> <Pdih>
6.570

> <Idih>
0.000

> <Tether>
0.000

$$$$
VeraChem MOL file


 13 13  0  0  0  0  0  0  0  0999 V2000     
   20.1398   20.2422   22.5305 C   0  0  0  0  0  0  0  0  0  0  0  0
   19.6967   21.0408   21.9210 H   0  0  0  0  0  0  0  0  0  0  0  0
   20.8300   20.6944   23.2526 H   0  0  0  0  0  0  0  0  0  0  0  0
   20.6967   19.0290   21.7148 C   0  0  0  0  0  0  0  0  0  0  0  0
   21.1080   19.2590   20.7260 H   0  0  0  0  0  0  0  0  0  0  0  0
   21.4132   18.4001   22.2576 H   0  0  0  0  0  0  0  0  0  0  0  0
   19.2308   18.5002   21.7327 C   0  0  0  0  0  0  0  0  0  0  0  0
   18.5941   18.9338   20.9492 H   0  0  0  0  0  0  0  0  0  0  0  0
   19.1123   19.2159   23.1121 C   0  0  0  0  0  0  0  0  0  0  0  0
   18.1221   19.6132   23.3609 H   0  0  0  0  0  0  0  0  0  0  0  0
   19.4817   18.6299   23.9629 H   0  0  0  0  0  0  0  0  0  0  0  0
   19.0966   17.0983   21.7675 O   0  0  0  0  0  0  0  0  0  0  0  0
   18.1508   16.9011   21.9403 H   0  0  0  0  0  0  0  0  0  0  0  0
  1  2  1  0  0  0  0
  1  3  1  0  0  0  0
  1  4  1  0  0  0  0
  4  5  1  0  0  0  0
  4  6  1  0  0  0  0
  4  7  1  0  0  0  0
  7  8  1  0  0  0  0
  1  9  1  0  0  0  0
  7  9  1  0  0  0  0
  9 10  1  0  0  0  0
  9 11  1  0  0  0  0
  7 12  1  0  0  0  0
 12 13  1  0  0  0  0
M  END
> <VConfSearch Rank>
61

> <Conf_Id>
22

> <Delta U+W>
0.000

> <U+W>
-3.131

> <U>
-0.154

> <W>
-2.978

> <W(PB)>
-4.579

> <W(SA)>
1.601

> <Valence>
6.333

> <Coulomb>
-7.439

> <VdW>
0.952

> <VdW6>
-2.120

> <VdW12>
3.072

> <Bond>
0.065

> <Angle>
0.931

> <Pdih>
5.338

> <Idih>
0.000

> <Tether>
0.000

$$$$
VeraChem MOL file


 13 13  0  0  0  0  0  0  0  0999 V2000     
   19.7234   18.1088   21.2139 C   0  0  0  0  0  0  0  0  0  0  0  0
   19.6567   17.0480   21.4890 H   0  0  0  0  0  0  0  0  0  0  0  0
   19.9049   18.1802   20.1348 H   0  0  0  0  0  0  0  0  0  0  0  0
   20.6630   18.9640   22.1267 C   0  0  0  0  0  0  0  0  0  0  0  0
   20.9914   19.9130   21.6846 H   0  0  0  0  0  0  0  0  0  0  0  0
   21.5358   18.4464   22.5396 H   0  0  0  0  0  0  0  0  0  0  0  0
   19.4317   19.0832   23.0748 C   0  0  0  0  0  0  0  0  0  0  0  0
   19.3006   18.2231   23.7457 H   0  0  0  0  0  0  0  0  0  0  0  0
   18.5715   19.0048   21.7775 C   0  0  0  0  0  0  0  0  0  0  0  0
   18.4400   19.9636   21.2608 H   0  0  0  0  0  0  0  0  0  0  0  0
   17.5928   18.5244   21.8834 H   0  0  0  0  0  0  0  0  0  0  0  0
   19.3357   20.2938   23.7888 O   0  0  0  0  0  0  0  0  0  0  0  0
   20.0348   20.2812   24.4775 H   0  0  0  0  0  0  0  0  0  0  0  0
  1  2  1  0  0  0  0
  1  3  1  0  0  0  0
  1  4  1  0  0  0  0
  4  5  1  0  0  0  0
  4  6  1  0  0  0  0
  4  7  1  0  0  0  0
  7  8  1  0  0  0  0
  1  9  1  0  0  0  0
  7  9  1  0  0  0  0
  9 10  1  0  0  0  0
  9 11  1  0  0  0  0
  7 12  1  0  0  0  0
 12 13  1  0  0  0  0
M  END
> <VConfSearch Rank>
62

> <Conf_Id>
19

> <Delta U+W>
-0.011

> <U+W>
-3.142

> <U>
-0.154

> <W>
-2.989

> <W(PB)>
-4.588

> <W(SA)>
1.599

> <Valence>
6.334

> <Coulomb>
-7.439

> <VdW>
0.951

> <VdW6>
-2.120

> <VdW12>
3.072

> <Bond>
0.065

> <Angle>
0.930

> <Pdih>
5.339

> <Idih>
0.000

> <Tether>
0.000

$$$$
VeraChem MOL file


 13 13  0  0  0  0  0  0  0  0999 V2000     
   20.1508   19.9798   22.9060 C   0  0  0  0  0  0  0  0  0  0  0  0
   20.3434   20.3959   23.9018 H   0  0  0  0  0  0  0  0  0  0  0  0
   20.6682   20.5983   22.1610 H   0  0  0  0  0  0  0  0  0  0  0  0
   18.6549   19.6697   22.5669 C   0  0  0  0  0  0  0  0  0  0  0  0
   18.0425   19.3836   23.4305 H   0  0  0  0  0  0  0  0  0  0  0  0
   18.1210   20.4391   21.9981 H   0  0  0  0  0  0  0  0  0  0  0  0
   19.1922   18.4629   21.7360 C   0  0  0  0  0  0  0  0  0  0  0  0
   18.5524   17.5713   21.7587 H   0  0  0  0  0  0  0  0  0  0  0  0
   20.3815   18.4403   22.7466 C   0  0  0  0  0  0  0  0  0  0  0  0
   21.3527   18.1398   22.3381 H   0  0  0  0  0  0  0  0  0  0  0  0
   20.1880   17.8560   23.6544 H   0  0  0  0  0  0  0  0  0  0  0  0
   19.5472   18.7698   20.4026 O   0  0  0  0  0  0  0  0  0  0  0  0
   20.0268   17.9932   20.0434 H   0  0  0  0  0  0  0  0  0  0  0  0
  1  2  1  0  0  0  0
  1  3  1  0  0  0  0
  1  4  1  0  0  0  0
  4  5  1  0  0  0  0
  4  6  1  0  0  0  0
  4  7  1  0  0  0  0
  7  8  1  0  0  0  0
  1  9  1  0  0  0  0
  7  9  1  0  0  0  0
  9 10  1  0  0  0  0
  9 11  1  0  0  0  0
  7 12  1  0  0  0  0
 12 13  1  0  0  0  0
M  END
> <VConfSearch Rank>
63

> <Conf_Id>
20

> <Delta U+W>
1.030

> <U+W>
-2.101

> <U>
0.841

> <W>
-2.942

> <W(PB)>
-4.530

> <W(SA)>
1.587

> <Valence>
6.736

> <Coulomb>
-7.246

> <VdW>
1.352

> <VdW6>
-2.500

> <VdW12>
3.851

> <Bond>
0.063

> <Angle>
0.687

> <Pdih>
5.986

> <Idih>
0.000

> <Tether>
0.000

$$$$
VeraChem MOL file


 13 13  0  0  0  0  0  0  0  0999 V2000     
   21.0103   19.1535   22.2918 C   0  0  0  0  0  0  0  0  0  0  0  0
   21.4645   19.8654   21.5899 H   0  0  0  0  0  0  0  0  0  0  0  0
   21.7972   18.7523   22.9415 H   0  0  0  0  0  0  0  0  0  0  0  0
   20.0606   18.1000   21.6317 C   0  0  0  0  0  0  0  0  0  0  0  0
   20.3228   17.7841   20.6160 H   0  0  0  0  0  0  0  0  0  0  0  0
   19.8742   17.2070   22.2410 H   0  0  0  0  0  0  0  0  0  0  0  0
   18.9652   19.2039   21.7356 C   0  0  0  0  0  0  0  0  0  0  0  0
   18.9873   19.9303   20.9118 H   0  0  0  0  0  0  0  0  0  0  0  0
   19.7239   19.6760   23.0125 C   0  0  0  0  0  0  0  0  0  0  0  0
   19.4622   19.1353   23.9304 H   0  0  0  0  0  0  0  0  0  0  0  0
   19.6887   20.7519   23.2162 H   0  0  0  0  0  0  0  0  0  0  0  0
   17.6546   18.7366   21.9493 O   0  0  0  0  0  0  0  0  0  0  0  0
   17.6972   18.0965   22.6903 H   0  0  0  0  0  0  0  0  0  0  0  0
  1  2  1  0  0  0  0
  1  3  1  0  0  0  0
  1  4  1  0  0  0  0
  4  5  1  0  0  0  0
  4  6  1  0  0  0  0
  4  7  1  0  0  0  0
  7  8  1  0  0  0  0
  1  9  1  0  0  0  0
  7  9  1  0  0  0  0
  9 10  1  0  0  0  0
  9 11  1  0  0  0  0
  7 12  1  0  0  0  0
 12 13  1  0  0  0  0
M  END
> <VConfSearch Rank>
64

> <Conf_Id>
24

> <Delta U+W>
0.356

> <U+W>
-2.775

> <U>
-0.184

> <W>
-2.591

> <W(PB)>
-4.184

> <W(SA)>
1.593

> <Valence>
6.840

> <Coulomb>
-7.916

> <VdW>
0.893

> <VdW6>
-2.167

> <VdW12>
3.060

> <Bond>
0.059

> <Angle>
0.918

> <Pdih>
5.862

> <Idih>
0.000

> <Tether>
0.000

$$$$
VeraChem MOL file


 13 13  0  0  0  0  0  0  0  0999 V2000     
   20.4896   18.2719   22.5882 C   0  0  0  0  0  0  0  0  0  0  0  0
   21.1713   17.4507   22.3367 H   0  0  0  0  0  0  0  0  0  0  0  0
   20.6326   18.5296   23.6453 H   0  0  0  0  0  0  0  0  0  0  0  0
   18.9982   18.0807   22.1529 C   0  0  0  0  0  0  0  0  0  0  0  0
   18.8642   17.4780   21.2464 H   0  0  0  0  0  0  0  0  0  0  0  0
   18.3141   17.7076   22.9233 H   0  0  0  0  0  0  0  0  0  0  0  0
   18.9696   19.6205   21.9034 C   0  0  0  0  0  0  0  0  0  0  0  0
   18.3591   19.9373   21.0482 H   0  0  0  0  0  0  0  0  0  0  0  0
   20.4957   19.4911   21.6066 C   0  0  0  0  0  0  0  0  0  0  0  0
   20.7289   19.2343   20.5661 H   0  0  0  0  0  0  0  0  0  0  0  0
   21.1150   20.3457   21.9014 H   0  0  0  0  0  0  0  0  0  0  0  0
   18.6513   20.3977   23.0376 O   0  0  0  0  0  0  0  0  0  0  0  0
   19.2222   20.0729   23.7641 H   0  0  0  0  0  0  0  0  0  0  0  0
  1  2  1  0  0  0  0
  1  3  1  0  0  0  0
  1  4  1  0  0  0  0
  4  5  1  0  0  0  0
  4  6  1  0  0  0  0
  4  7  1  0  0  0  0
  7  8  1  0  0  0  0
  1  9  1  0  0  0  0
  7  9  1  0  0  0  0
  9 10  1  0  0  0  0
  9 11  1  0  0  0  0
  7 12  1  0  0  0  0
 12 13  1  0  0  0  0
M  END
> <VConfSearch Rank>
65

> <Conf_Id>
44

> <Delta U+W>
0.823

> <U+W>
-2.308

> <U>
0.039

> <W>
-2.348

> <W(PB)>
-3.918

> <W(SA)>
1.571

> <Valence>
7.320

> <Coulomb>
-8.530

> <VdW>
1.249

> <VdW6>
-2.615

> <VdW12>
3.864

> <Bond>
0.056

> <Angle>
0.694

> <Pdih>
6.570

> <Idih>
0.000

> <Tether>
0.000

$$$$
VeraChem MOL file


 13 13  0  0  0  0  0  0  0  0999 V2000     
   18.4149   19.4445   22.3577 C   0  0  0  0  0  0  0  0  0  0  0  0
   18.1504   19.7791   23.3695 H   0  0  0  0  0  0  0  0  0  0  0  0
   17.5491   19.5937   21.7017 H   0  0  0  0  0  0  0  0  0  0  0  0
   19.0930   18.0363   22.2906 C   0  0  0  0  0  0  0  0  0  0  0  0
   18.7729   17.3089   23.0446 H   0  0  0  0  0  0  0  0  0  0  0  0
   19.0629   17.5580   21.3038 H   0  0  0  0  0  0  0  0  0  0  0  0
   20.4189   18.7945   22.6004 C   0  0  0  0  0  0  0  0  0  0  0  0
   20.5771   18.9912   23.6697 H   0  0  0  0  0  0  0  0  0  0  0  0
   19.7821   19.9872   21.8252 C   0  0  0  0  0  0  0  0  0  0  0  0
   20.0699   20.9875   22.1670 H   0  0  0  0  0  0  0  0  0  0  0  0
   19.9013   19.9384   20.7357 H   0  0  0  0  0  0  0  0  0  0  0  0
   21.5772   18.2455   22.0161 O   0  0  0  0  0  0  0  0  0  0  0  0
   22.3032   18.8930   22.1461 H   0  0  0  0  0  0  0  0  0  0  0  0
  1  2  1  0  0  0  0
  1  3  1  0  0  0  0
  1  4  1  0  0  0  0
  4  5  1  0  0  0  0
  4  6  1  0  0  0  0
  4  7  1  0  0  0  0
  7  8  1  0  0  0  0
  1  9  1  0  0  0  0
  7  9  1  0  0  0  0
  9 10  1  0  0  0  0
  9 11  1  0  0  0  0
  7 12  1  0  0  0  0
 12 13  1  0  0  0  0
M  END
> <VConfSearch Rank>
66

> <Conf_Id>
22

> <Delta U+W>
0.000

> <U+W>
-3.131

> <U>
-0.154

> <W>
-2.978

> <W(PB)>
-4.579

> <W(SA)>
1.601

> <Valence>
6.333

> <Coulomb>
-7.439

> <VdW>
0.952

> <VdW6>
-2.120

> <VdW12>
3.072

> <Bond>
0.065

> <Angle>
0.931

> <Pdih>
5.338

> <Idih>
0.000

> <Tether>
0.000

$$$$
VeraChem MOL file


 13 13  0  0  0  0  0  0  0  0999 V2000     
   18.9063   18.4127   21.2686 C   0  0  0  0  0  0  0  0  0  0  0  0
   19.2338   17.4103   20.9627 H   0  0  0  0  0  0  0  0  0  0  0  0
   18.0804   18.7251   20.6185 H   0  0  0  0  0  0  0  0  0  0  0  0
   20.0622   19.4498   21.4573 C   0  0  0  0  0  0  0  0  0  0  0  0
   19.7437   20.4995   21.4367 H   0  0  0  0  0  0  0  0  0  0  0  0
   20.9289   19.3312   20.7978 H   0  0  0  0  0  0  0  0  0  0  0  0
   20.2075   18.8451   22.8864 C   0  0  0  0  0  0  0  0  0  0  0  0
   20.8113   17.9280   22.9232 H   0  0  0  0  0  0  0  0  0  0  0  0
   18.6731   18.5842   22.8059 C   0  0  0  0  0  0  0  0  0  0  0  0
   18.0508   19.4440   23.0835 H   0  0  0  0  0  0  0  0  0  0  0  0
   18.3116   17.6999   23.3419 H   0  0  0  0  0  0  0  0  0  0  0  0
   20.6126   19.7513   23.8860 O   0  0  0  0  0  0  0  0  0  0  0  0
   21.5601   19.9531   23.7286 H   0  0  0  0  0  0  0  0  0  0  0  0
  1  2  1  0  0  0  0
  1  3  1  0  0  0  0
  1  4  1  0  0  0  0
  4  5  1  0  0  0  0
  4  6  1  0  0  0  0
  4  7  1  0  0  0  0
  7  8  1  0  0  0  0
  1  9  1  0  0  0  0
  7  9  1  0  0  0  0
  9 10  1  0  0  0  0
  9 11  1  0  0  0  0
  7 12  1  0  0  0  0
 12 13  1  0  0  0  0
M  END
> <VConfSearch Rank>
67

> <Conf_Id>
19

> <Delta U+W>
-0.011

> <U+W>
-3.142

> <U>
-0.154

> <W>
-2.989

> <W(PB)>
-4.588

> <W(SA)>
1.599

> <Valence>
6.334

> <Coulomb>
-7.439

> <VdW>
0.951

> <VdW6>
-2.120

> <VdW12>
3.072

> <Bond>
0.065

> <Angle>
0.930

> <Pdih>
5.339

> <Idih>
0.000

> <Tether>
0.000

$$$$
VeraChem MOL file


 13 13  0  0  0  0  0  0  0  0999 V2000     
   18.7075   18.9758   21.4703 C   0  0  0  0  0  0  0  0  0  0  0  0
   17.9116   19.5287   20.9578 H   0  0  0  0  0  0  0  0  0  0  0  0
   18.7384   17.9537   21.0709 H   0  0  0  0  0  0  0  0  0  0  0  0
   18.7101   19.0628   23.0328 C   0  0  0  0  0  0  0  0  0  0  0  0
   18.3225   20.0059   23.4367 H   0  0  0  0  0  0  0  0  0  0  0  0
   18.2307   18.2317   23.5618 H   0  0  0  0  0  0  0  0  0  0  0  0
   20.2666   18.9991   22.9392 C   0  0  0  0  0  0  0  0  0  0  0  0
   20.7947   19.6017   23.6893 H   0  0  0  0  0  0  0  0  0  0  0  0
   20.0997   19.6862   21.5477 C   0  0  0  0  0  0  0  0  0  0  0  0
   20.8281   19.4004   20.7809 H   0  0  0  0  0  0  0  0  0  0  0  0
   20.0488   20.7810   21.5910 H   0  0  0  0  0  0  0  0  0  0  0  0
   20.8071   17.6936   22.8996 O   0  0  0  0  0  0  0  0  0  0  0  0
   21.7560   17.7788   22.6662 H   0  0  0  0  0  0  0  0  0  0  0  0
  1  2  1  0  0  0  0
  1  3  1  0  0  0  0
  1  4  1  0  0  0  0
  4  5  1  0  0  0  0
  4  6  1  0  0  0  0
  4  7  1  0  0  0  0
  7  8  1  0  0  0  0
  1  9  1  0  0  0  0
  7  9  1  0  0  0  0
  9 10  1  0  0  0  0
  9 11  1  0  0  0  0
  7 12  1  0  0  0  0
 12 13  1  0  0  0  0
M  END
> <VConfSearch Rank>
68

> <Conf_Id>
20

> <Delta U+W>
1.030

> <U+W>
-2.101

> <U>
0.841

> <W>
-2.942

> <W(PB)>
-4.530

> <W(SA)>
1.587

> <Valence>
6.736

> <Coulomb>
-7.246

> <VdW>
1.352

> <VdW6>
-2.500

> <VdW12>
3.851

> <Bond>
0.063

> <Angle>
0.687

> <Pdih>
5.986

> <Idih>
0.000

> <Tether>
0.000

$$$$
VeraChem MOL file


 13 13  0  0  0  0  0  0  0  0999 V2000     
   19.5625   19.4074   21.0278 C   0  0  0  0  0  0  0  0  0  0  0  0
   20.4202   19.8543   20.5080 H   0  0  0  0  0  0  0  0  0  0  0  0
   18.6884   19.4572   20.3676 H   0  0  0  0  0  0  0  0  0  0  0  0
   19.3478   19.9156   22.4917 C   0  0  0  0  0  0  0  0  0  0  0  0
   19.6328   20.9551   22.6879 H   0  0  0  0  0  0  0  0  0  0  0  0
   18.3408   19.7453   22.8921 H   0  0  0  0  0  0  0  0  0  0  0  0
   20.4015   18.8383   22.8897 C   0  0  0  0  0  0  0  0  0  0  0  0
   21.4420   19.1666   22.7626 H   0  0  0  0  0  0  0  0  0  0  0  0
   19.8484   18.0172   21.6859 C   0  0  0  0  0  0  0  0  0  0  0  0
   18.9532   17.4226   21.9061 H   0  0  0  0  0  0  0  0  0  0  0  0
   20.5755   17.3802   21.1704 H   0  0  0  0  0  0  0  0  0  0  0  0
   20.2179   18.2522   24.1564 O   0  0  0  0  0  0  0  0  0  0  0  0
   19.2776   17.9808   24.2116 H   0  0  0  0  0  0  0  0  0  0  0  0
  1  2  1  0  0  0  0
  1  3  1  0  0  0  0
  1  4  1  0  0  0  0
  4  5  1  0  0  0  0
  4  6  1  0  0  0  0
  4  7  1  0  0  0  0
  7  8  1  0  0  0  0
  1  9  1  0  0  0  0
  7  9  1  0  0  0  0
  9 10  1  0  0  0  0
  9 11  1  0  0  0  0
  7 12  1  0  0  0  0
 12 13  1  0  0  0  0
M  END
> <VConfSearch Rank>
69

> <Conf_Id>
24

> <Delta U+W>
0.356

> <U+W>
-2.775

> <U>
-0.184

> <W>
-2.591

> <W(PB)>
-4.184

> <W(SA)>
1.593

> <Valence>
6.840

> <Coulomb>
-7.916

> <VdW>
0.893

> <VdW6>
-2.167

> <VdW12>
3.060

> <Bond>
0.059

> <Angle>
0.918

> <Pdih>
5.862

> <Idih>
0.000

> <Tether>
0.000

$$$$
VeraChem MOL file


 13 13  0  0  0  0  0  0  0  0999 V2000     
   18.8007   19.1537   21.5490 C   0  0  0  0  0  0  0  0  0  0  0  0
   18.1509   18.7436   20.7667 H   0  0  0  0  0  0  0  0  0  0  0  0
   18.4443   20.1600   21.8032 H   0  0  0  0  0  0  0  0  0  0  0  0
   20.3399   19.0474   21.2851 C   0  0  0  0  0  0  0  0  0  0  0  0
   20.6382   18.1789   20.6853 H   0  0  0  0  0  0  0  0  0  0  0  0
   20.8217   19.9395   20.8694 H   0  0  0  0  0  0  0  0  0  0  0  0
   20.4966   18.8422   22.8237 C   0  0  0  0  0  0  0  0  0  0  0  0
   21.2927   18.1461   23.1170 H   0  0  0  0  0  0  0  0  0  0  0  0
   19.0668   18.2197   22.7766 C   0  0  0  0  0  0  0  0  0  0  0  0
   19.0529   17.1482   22.5425 H   0  0  0  0  0  0  0  0  0  0  0  0
   18.4404   18.3913   23.6591 H   0  0  0  0  0  0  0  0  0  0  0  0
   20.5984   20.0344   23.5722 O   0  0  0  0  0  0  0  0  0  0  0  0
   19.8683   20.6132   23.2702 H   0  0  0  0  0  0  0  0  0  0  0  0
  1  2  1  0  0  0  0
  1  3  1  0  0  0  0
  1  4  1  0  0  0  0
  4  5  1  0  0  0  0
  4  6  1  0  0  0  0
  4  7  1  0  0  0  0
  7  8  1  0  0  0  0
  1  9  1  0  0  0  0
  7  9  1  0  0  0  0
  9 10  1  0  0  0  0
  9 11  1  0  0  0  0
  7 12  1  0  0  0  0
 12 13  1  0  0  0  0
M  END
> <VConfSearch Rank>
70

> <Conf_Id>
44

> <Delta U+W>
0.823

> <U+W>
-2.308

> <U>
0.039

> <W>
-2.348

> <W(PB)>
-3.918

> <W(SA)>
1.571

> <Valence>
7.320

> <Coulomb>
-8.530

> <VdW>
1.249

> <VdW6>
-2.615

> <VdW12>
3.864

> <Bond>
0.056

> <Angle>
0.694

> <Pdih>
6.570

> <Idih>
0.000

> <Tether>
0.000

$$$$
VeraChem MOL file


 13 13  0  0  0  0  0  0  0  0999 V2000     
   20.9826   19.1384   22.2909 C   0  0  0  0  0  0  0  0  0  0  0  0
   21.4005   19.7707   21.4964 H   0  0  0  0  0  0  0  0  0  0  0  0
   21.8013   18.8015   22.9378 H   0  0  0  0  0  0  0  0  0  0  0  0
   19.9983   18.0286   21.7942 C   0  0  0  0  0  0  0  0  0  0  0  0
   20.2064   17.6045   20.8059 H   0  0  0  0  0  0  0  0  0  0  0  0
   19.8355   17.2075   22.5034 H   0  0  0  0  0  0  0  0  0  0  0  0
   18.9109   19.1442   21.8376 C   0  0  0  0  0  0  0  0  0  0  0  0
   18.8922   19.7794   20.9414 H   0  0  0  0  0  0  0  0  0  0  0  0
   19.7352   19.7403   23.0184 C   0  0  0  0  0  0  0  0  0  0  0  0
   19.7127   20.8314   23.1141 H   0  0  0  0  0  0  0  0  0  0  0  0
   19.5168   19.2952   23.9972 H   0  0  0  0  0  0  0  0  0  0  0  0
   17.6130   18.7076   22.1685 O   0  0  0  0  0  0  0  0  0  0  0  0
   17.0673   19.5086   22.3223 H   0  0  0  0  0  0  0  0  0  0  0  0
  1  2  1  0  0  0  0
  1  3  1  0  0  0  0
  1  4  1  0  0  0  0
  4  5  1  0  0  0  0
  4  6  1  0  0  0  0
  4  7  1  0  0  0  0
  7  8  1  0  0  0  0
  1  9  1  0  0  0  0
  7  9  1  0  0  0  0
  9 10  1  0  0  0  0
  9 11  1  0  0  0  0
  7 12  1  0  0  0  0
 12 13  1  0  0  0  0
M  END
> <VConfSearch Rank>
71

> <Conf_Id>
22

> <Delta U+W>
0.000

> <U+W>
-3.131

> <U>
-0.154

> <W>
-2.978

> <W(PB)>
-4.579

> <W(SA)>
1.601

> <Valence>
6.333

> <Coulomb>
-7.439

> <VdW>
0.952

> <VdW6>
-2.120

> <VdW12>
3.072

> <Bond>
0.065

> <Angle>
0.931

> <Pdih>
5.338

> <Idih>
0.000

> <Tether>
0.000

$$$$
VeraChem MOL file


 13 13  0  0  0  0  0  0  0  0999 V2000     
   20.5492   18.4568   21.4241 C   0  0  0  0  0  0  0  0  0  0  0  0
   21.5420   18.8984   21.5820 H   0  0  0  0  0  0  0  0  0  0  0  0
   20.6025   17.7710   20.5702 H   0  0  0  0  0  0  0  0  0  0  0  0
   19.3705   19.4852   21.4069 C   0  0  0  0  0  0  0  0  0  0  0  0
   18.4497   19.1189   20.9360 H   0  0  0  0  0  0  0  0  0  0  0  0
   19.6021   20.4774   21.0042 H   0  0  0  0  0  0  0  0  0  0  0  0
   19.3981   19.3585   22.9601 C   0  0  0  0  0  0  0  0  0  0  0  0
   20.1528   19.9921   23.4458 H   0  0  0  0  0  0  0  0  0  0  0  0
   19.8705   17.8935   22.7162 C   0  0  0  0  0  0  0  0  0  0  0  0
   19.0586   17.1785   22.5347 H   0  0  0  0  0  0  0  0  0  0  0  0
   20.5435   17.4777   23.4740 H   0  0  0  0  0  0  0  0  0  0  0  0
   18.1489   19.4901   23.5979 O   0  0  0  0  0  0  0  0  0  0  0  0
   17.8937   20.4363   23.5448 H   0  0  0  0  0  0  0  0  0  0  0  0
  1  2  1  0  0  0  0
  1  3  1  0  0  0  0
  1  4  1  0  0  0  0
  4  5  1  0  0  0  0
  4  6  1  0  0  0  0
  4  7  1  0  0  0  0
  7  8  1  0  0  0  0
  1  9  1  0  0  0  0
  7  9  1  0  0  0  0
  9 10  1  0  0  0  0
  9 11  1  0  0  0  0
  7 12  1  0  0  0  0
 12 13  1  0  0  0  0
M  END
> <VConfSearch Rank>
72

> <Conf_Id>
19

> <Delta U+W>
-0.011

> <U+W>
-3.142

> <U>
-0.154

> <W>
-2.989

> <W(PB)>
-4.588

> <W(SA)>
1.599

> <Valence>
6.334

> <Coulomb>
-7.439

> <VdW>
0.951

> <VdW6>
-2.120

> <VdW12>
3.072

> <Bond>
0.065

> <Angle>
0.930

> <Pdih>
5.339

> <Idih>
0.000

> <Tether>
0.000

$$$$
VeraChem MOL file


 13 13  0  0  0  0  0  0  0  0999 V2000     
   19.9363   19.1872   23.4667 C   0  0  0  0  0  0  0  0  0  0  0  0
   19.6542   18.9515   24.4996 H   0  0  0  0  0  0  0  0  0  0  0  0
   20.9054   19.7029   23.4763 H   0  0  0  0  0  0  0  0  0  0  0  0
   18.8388   19.8834   22.5950 C   0  0  0  0  0  0  0  0  0  0  0  0
   17.8094   19.6078   22.8541 H   0  0  0  0  0  0  0  0  0  0  0  0
   18.9019   20.9748   22.5234 H   0  0  0  0  0  0  0  0  0  0  0  0
   19.4287   19.0895   21.3879 C   0  0  0  0  0  0  0  0  0  0  0  0
   18.6850   18.7568   20.6523 H   0  0  0  0  0  0  0  0  0  0  0  0
   19.8358   18.0107   22.4399 C   0  0  0  0  0  0  0  0  0  0  0  0
   20.7665   17.4695   22.2368 H   0  0  0  0  0  0  0  0  0  0  0  0
   19.0480   17.2805   22.6619 H   0  0  0  0  0  0  0  0  0  0  0  0
   20.5094   19.7213   20.7315 O   0  0  0  0  0  0  0  0  0  0  0  0
   20.9021   19.0636   20.1188 H   0  0  0  0  0  0  0  0  0  0  0  0
  1  2  1  0  0  0  0
  1  3  1  0  0  0  0
  1  4  1  0  0  0  0
  4  5  1  0  0  0  0
  4  6  1  0  0  0  0
  4  7  1  0  0  0  0
  7  8  1  0  0  0  0
  1  9  1  0  0  0  0
  7  9  1  0  0  0  0
  9 10  1  0  0  0  0
  9 11  1  0  0  0  0
  7 12  1  0  0  0  0
 12 13  1  0  0  0  0
M  END
> <VConfSearch Rank>
73

> <Conf_Id>
20

> <Delta U+W>
1.030

> <U+W>
-2.101

> <U>
0.841

> <W>
-2.942

> <W(PB)>
-4.530

> <W(SA)>
1.587

> <Valence>
6.736

> <Coulomb>
-7.246

> <VdW>
1.352

> <VdW6>
-2.500

> <VdW12>
3.851

> <Bond>
0.063

> <Angle>
0.687

> <Pdih>
5.986

> <Idih>
0.000

> <Tether>
0.000

$$$$
VeraChem MOL file


 13 13  0  0  0  0  0  0  0  0999 V2000     
   20.3537   18.7868   21.0956 C   0  0  0  0  0  0  0  0  0  0  0  0
   21.4327   18.9872   21.0606 H   0  0  0  0  0  0  0  0  0  0  0  0
   20.0243   18.4692   20.0990 H   0  0  0  0  0  0  0  0  0  0  0  0
   19.5019   19.9088   21.7758 C   0  0  0  0  0  0  0  0  0  0  0  0
   19.8702   20.9336   21.6556 H   0  0  0  0  0  0  0  0  0  0  0  0
   18.4339   19.8872   21.5262 H   0  0  0  0  0  0  0  0  0  0  0  0
   19.8751   19.2086   23.1173 C   0  0  0  0  0  0  0  0  0  0  0  0
   20.8582   19.4996   23.5117 H   0  0  0  0  0  0  0  0  0  0  0  0
   19.8939   17.8876   22.2903 C   0  0  0  0  0  0  0  0  0  0  0  0
   18.9135   17.4142   22.1557 H   0  0  0  0  0  0  0  0  0  0  0  0
   20.6084   17.1273   22.6244 H   0  0  0  0  0  0  0  0  0  0  0  0
   18.8963   19.2757   24.1269 O   0  0  0  0  0  0  0  0  0  0  0  0
   18.0466   19.0071   23.7189 H   0  0  0  0  0  0  0  0  0  0  0  0
  1  2  1  0  0  0  0
  1  3  1  0  0  0  0
  1  4  1  0  0  0  0
  4  5  1  0  0  0  0
  4  6  1  0  0  0  0
  4  7  1  0  0  0  0
  7  8  1  0  0  0  0
  1  9  1  0  0  0  0
  7  9  1  0  0  0  0
  9 10  1  0  0  0  0
  9 11  1  0  0  0  0
  7 12  1  0  0  0  0
 12 13  1  0  0  0  0
M  END
> <VConfSearch Rank>
74

> <Conf_Id>
24

> <Delta U+W>
0.356

> <U+W>
-2.775

> <U>
-0.184

> <W>
-2.591

> <W(PB)>
-4.184

> <W(SA)>
1.593

> <Valence>
6.840

> <Coulomb>
-7.916

> <VdW>
0.893

> <VdW6>
-2.167

> <VdW12>
3.060

> <Bond>
0.059

> <Angle>
0.918

> <Pdih>
5.862

> <Idih>
0.000

> <Tether>
0.000

$$$$
VeraChem MOL file


 13 13  0  0  0  0  0  0  0  0999 V2000     
   19.6664   17.8866   21.9089 C   0  0  0  0  0  0  0  0  0  0  0  0
   19.2452   16.8964   22.1198 H   0  0  0  0  0  0  0  0  0  0  0  0
   20.3456   17.7989   21.0515 H   0  0  0  0  0  0  0  0  0  0  0  0
   20.2545   18.6559   23.1388 C   0  0  0  0  0  0  0  0  0  0  0  0
   19.7616   18.4308   24.0923 H   0  0  0  0  0  0  0  0  0  0  0  0
   21.3385   18.5824   23.2814 H   0  0  0  0  0  0  0  0  0  0  0  0
   19.7442   19.9598   22.4508 C   0  0  0  0  0  0  0  0  0  0  0  0
   19.3742   20.7298   23.1398 H   0  0  0  0  0  0  0  0  0  0  0  0
   18.6372   19.0622   21.8161 C   0  0  0  0  0  0  0  0  0  0  0  0
   17.7476   18.9368   22.4454 H   0  0  0  0  0  0  0  0  0  0  0  0
   18.3134   19.3425   20.8075 H   0  0  0  0  0  0  0  0  0  0  0  0
   20.6440   20.5320   21.5263 O   0  0  0  0  0  0  0  0  0  0  0  0
   20.9394   19.8040   20.9415 H   0  0  0  0  0  0  0  0  0  0  0  0
  1  2  1  0  0  0  0
  1  3  1  0  0  0  0
  1  4  1  0  0  0  0
  4  5  1  0  0  0  0
  4  6  1  0  0  0  0
  4  7  1  0  0  0  0
  7  8  1  0  0  0  0
  1  9  1  0  0  0  0
  7  9  1  0  0  0  0
  9 10  1  0  0  0  0
  9 11  1  0  0  0  0
  7 12  1  0  0  0  0
 12 13  1  0  0  0  0
M  END
> <VConfSearch Rank>
75

> <Conf_Id>
44

> <Delta U+W>
0.823

> <U+W>
-2.308

> <U>
0.039

> <W>
-2.348

> <W(PB)>
-3.918

> <W(SA)>
1.571

> <Valence>
7.320

> <Coulomb>
-8.530

> <VdW>
1.249

> <VdW6>
-2.615

> <VdW12>
3.864

> <Bond>
0.056

> <Angle>
0.694

> <Pdih>
6.570

> <Idih>
0.000

> <Tether>
0.000

$$$$
VeraChem MOL file


 13 13  0  0  0  0  0  0  0  0999 V2000     
   20.7619   18.7729   21.5628 C   0  0  0  0  0  0  0  0  0  0  0  0
   21.2641   17.8519   21.8869 H   0  0  0  0  0  0  0  0  0  0  0  0
   21.3056   19.1850   20.7044 H   0  0  0  0  0  0  0  0  0  0  0  0
   20.4325   19.7788   22.7147 C   0  0  0  0  0  0  0  0  0  0  0  0
   21.1377   19.8024   23.5526 H   0  0  0  0  0  0  0  0  0  0  0  0
   20.2406   20.8077   22.3858 H   0  0  0  0  0  0  0  0  0  0  0  0
   19.1497   18.9210   22.9326 C   0  0  0  0  0  0  0  0  0  0  0  0
   19.3142   18.0274   23.5503 H   0  0  0  0  0  0  0  0  0  0  0  0
   19.2109   18.6498   21.3990 C   0  0  0  0  0  0  0  0  0  0  0  0
   18.8366   17.6739   21.0709 H   0  0  0  0  0  0  0  0  0  0  0  0
   18.7523   19.4306   20.7794 H   0  0  0  0  0  0  0  0  0  0  0  0
   18.0170   19.6327   23.3741 O   0  0  0  0  0  0  0  0  0  0  0  0
   17.2497   19.0238   23.3147 H   0  0  0  0  0  0  0  0  0  0  0  0
  1  2  1  0  0  0  0
  1  3  1  0  0  0  0
  1  4  1  0  0  0  0
  4  5  1  0  0  0  0
  4  6  1  0  0  0  0
  4  7  1  0  0  0  0
  7  8  1  0  0  0  0
  1  9  1  0  0  0  0
  7  9  1  0  0  0  0
  9 10  1  0  0  0  0
  9 11  1  0  0  0  0
  7 12  1  0  0  0  0
 12 13  1  0  0  0  0
M  END
> <VConfSearch Rank>
76

> <Conf_Id>
22

> <Delta U+W>
0.000

> <U+W>
-3.131

> <U>
-0.154

> <W>
-2.978

> <W(PB)>
-4.579

> <W(SA)>
1.601

> <Valence>
6.333

> <Coulomb>
-7.439

> <VdW>
0.952

> <VdW6>
-2.120

> <VdW12>
3.072

> <Bond>
0.065

> <Angle>
0.931

> <Pdih>
5.338

> <Idih>
0.000

> <Tether>
0.000

$$$$
VeraChem MOL file


 13 13  0  0  0  0  0  0  0  0999 V2000     
   20.5217   18.5938   23.1596 C   0  0  0  0  0  0  0  0  0  0  0  0
   21.4425   18.1703   22.7373 H   0  0  0  0  0  0  0  0  0  0  0  0
   20.5945   18.5697   24.2535 H   0  0  0  0  0  0  0  0  0  0  0  0
   19.1990   18.0266   22.5464 C   0  0  0  0  0  0  0  0  0  0  0  0
   18.3044   18.1838   23.1618 H   0  0  0  0  0  0  0  0  0  0  0  0
   19.2266   16.9795   22.2252 H   0  0  0  0  0  0  0  0  0  0  0  0
   19.4076   19.0878   21.4241 C   0  0  0  0  0  0  0  0  0  0  0  0
   20.0982   18.7687   20.6314 H   0  0  0  0  0  0  0  0  0  0  0  0
   20.0793   19.9560   22.5304 C   0  0  0  0  0  0  0  0  0  0  0  0
   19.3771   20.5377   23.1404 H   0  0  0  0  0  0  0  0  0  0  0  0
   20.8848   20.6173   22.1932 H   0  0  0  0  0  0  0  0  0  0  0  0
   18.2265   19.6225   20.8732 O   0  0  0  0  0  0  0  0  0  0  0  0
   17.8199   18.9208   20.3205 H   0  0  0  0  0  0  0  0  0  0  0  0
  1  2  1  0  0  0  0
  1  3  1  0  0  0  0
  1  4  1  0  0  0  0
  4  5  1  0  0  0  0
  4  6  1  0  0  0  0
  4  7  1  0  0  0  0
  7  8  1  0  0  0  0
  1  9  1  0  0  0  0
  7  9  1  0  0  0  0
  9 10  1  0  0  0  0
  9 11  1  0  0  0  0
  7 12  1  0  0  0  0
 12 13  1  0  0  0  0
M  END
> <VConfSearch Rank>
77

> <Conf_Id>
19

> <Delta U+W>
-0.011

> <U+W>
-3.142

> <U>
-0.154

> <W>
-2.989

> <W(PB)>
-4.588

> <W(SA)>
1.599

> <Valence>
6.334

> <Coulomb>
-7.439

> <VdW>
0.951

> <VdW6>
-2.120

> <VdW12>
3.072

> <Bond>
0.065

> <Angle>
0.930

> <Pdih>
5.339

> <Idih>
0.000

> <Tether>
0.000

$$$$
VeraChem MOL file


 13 13  0  0  0  0  0  0  0  0999 V2000     
   18.5387   18.6465   22.6746 C   0  0  0  0  0  0  0  0  0  0  0  0
   17.7980   17.8418   22.5992 H   0  0  0  0  0  0  0  0  0  0  0  0
   18.2123   19.3527   23.4491 H   0  0  0  0  0  0  0  0  0  0  0  0
   18.9695   19.3143   21.3265 C   0  0  0  0  0  0  0  0  0  0  0  0
   18.9446   18.6444   20.4585 H   0  0  0  0  0  0  0  0  0  0  0  0
   18.4554   20.2458   21.0651 H   0  0  0  0  0  0  0  0  0  0  0  0
   20.3827   19.4769   21.9684 C   0  0  0  0  0  0  0  0  0  0  0  0
   21.2193   19.3586   21.2677 H   0  0  0  0  0  0  0  0  0  0  0  0
   20.0333   18.1979   22.7918 C   0  0  0  0  0  0  0  0  0  0  0  0
   20.4434   18.1536   23.8068 H   0  0  0  0  0  0  0  0  0  0  0  0
   20.2662   17.2566   22.2792 H   0  0  0  0  0  0  0  0  0  0  0  0
   20.5561   20.6519   22.7349 O   0  0  0  0  0  0  0  0  0  0  0  0
   21.4022   20.5587   23.2223 H   0  0  0  0  0  0  0  0  0  0  0  0
  1  2  1  0  0  0  0
  1  3  1  0  0  0  0
  1  4  1  0  0  0  0
  4  5  1  0  0  0  0
  4  6  1  0  0  0  0
  4  7  1  0  0  0  0
  7  8  1  0  0  0  0
  1  9  1  0  0  0  0
  7  9  1  0  0  0  0
  9 10  1  0  0  0  0
  9 11  1  0  0  0  0
  7 12  1  0  0  0  0
 12 13  1  0  0  0  0
M  END
> <VConfSearch Rank>
78

> <Conf_Id>
20

> <Delta U+W>
1.030

> <U+W>
-2.101

> <U>
0.841

> <W>
-2.942

> <W(PB)>
-4.530

> <W(SA)>
1.587

> <Valence>
6.736

> <Coulomb>
-7.246

> <VdW>
1.352

> <VdW6>
-2.500

> <VdW12>
3.851

> <Bond>
0.063

> <Angle>
0.687

> <Pdih>
5.986

> <Idih>
0.000

> <Tether>
0.000

$$$$
VeraChem MOL file


 13 13  0  0  0  0  0  0  0  0999 V2000     
   19.8390   19.9054   21.3591 C   0  0  0  0  0  0  0  0  0  0  0  0
   20.4640   20.7704   21.6177 H   0  0  0  0  0  0  0  0  0  0  0  0
   19.4099   20.0689   20.3633 H   0  0  0  0  0  0  0  0  0  0  0  0
   18.8355   19.4664   22.4760 C   0  0  0  0  0  0  0  0  0  0  0  0
   18.4365   20.2676   23.1078 H   0  0  0  0  0  0  0  0  0  0  0  0
   18.0011   18.8473   22.1239 H   0  0  0  0  0  0  0  0  0  0  0  0
   20.0361   18.6701   23.0706 C   0  0  0  0  0  0  0  0  0  0  0  0
   20.7064   19.2772   23.6942 H   0  0  0  0  0  0  0  0  0  0  0  0
   20.5160   18.5151   21.5959 C   0  0  0  0  0  0  0  0  0  0  0  0
   20.0572   17.6835   21.0470 H   0  0  0  0  0  0  0  0  0  0  0  0
   21.6012   18.4763   21.4503 H   0  0  0  0  0  0  0  0  0  0  0  0
   19.7005   17.4704   23.7263 O   0  0  0  0  0  0  0  0  0  0  0  0
   19.1053   16.9742   23.1261 H   0  0  0  0  0  0  0  0  0  0  0  0
  1  2  1  0  0  0  0
  1  3  1  0  0  0  0
  1  4  1  0  0  0  0
  4  5  1  0  0  0  0
  4  6  1  0  0  0  0
  4  7  1  0  0  0  0
  7  8  1  0  0  0  0
  1  9  1  0  0  0  0
  7  9  1  0  0  0  0
  9 10  1  0  0  0  0
  9 11  1  0  0  0  0
  7 12  1  0  0  0  0
 12 13  1  0  0  0  0
M  END
> <VConfSearch Rank>
79

> <Conf_Id>
24

> <Delta U+W>
0.356

> <U+W>
-2.775

> <U>
-0.184

> <W>
-2.591

> <W(PB)>
-4.184

> <W(SA)>
1.593

> <Valence>
6.840

> <Coulomb>
-7.916

> <VdW>
0.893

> <VdW6>
-2.167

> <VdW12>
3.060

> <Bond>
0.059

> <Angle>
0.918

> <Pdih>
5.862

> <Idih>
0.000

> <Tether>
0.000

$$$$
VeraChem MOL file


 13 13  0  0  0  0  0  0  0  0999 V2000     
   20.5763   19.5799   22.5483 C   0  0  0  0  0  0  0  0  0  0  0  0
   21.5839   19.9341   22.3000 H   0  0  0  0  0  0  0  0  0  0  0  0
   20.3025   19.9770   23.5340 H   0  0  0  0  0  0  0  0  0  0  0  0
   20.3253   18.0460   22.3634 C   0  0  0  0  0  0  0  0  0  0  0  0
   20.9184   17.5825   21.5656 H   0  0  0  0  0  0  0  0  0  0  0  0
   20.4130   17.4298   23.2652 H   0  0  0  0  0  0  0  0  0  0  0  0
   18.8740   18.4281   21.9372 C   0  0  0  0  0  0  0  0  0  0  0  0
   18.4439   17.7968   21.1492 H   0  0  0  0  0  0  0  0  0  0  0  0
   19.4907   19.7710   21.4368 C   0  0  0  0  0  0  0  0  0  0  0  0
   19.8793   19.7304   20.4119 H   0  0  0  0  0  0  0  0  0  0  0  0
   18.8521   20.6562   21.5322 H   0  0  0  0  0  0  0  0  0  0  0  0
   17.9591   18.5585   23.0039 O   0  0  0  0  0  0  0  0  0  0  0  0
   18.3935   19.1276   23.6723 H   0  0  0  0  0  0  0  0  0  0  0  0
  1  2  1  0  0  0  0
  1  3  1  0  0  0  0
  1  4  1  0  0  0  0
  4  5  1  0  0  0  0
  4  6  1  0  0  0  0
  4  7  1  0  0  0  0
  7  8  1  0  0  0  0
  1  9  1  0  0  0  0
  7  9  1  0  0  0  0
  9 10  1  0  0  0  0
  9 11  1  0  0  0  0
  7 12  1  0  0  0  0
 12 13  1  0  0  0  0
M  END
> <VConfSearch Rank>
80

> <Conf_Id>
44

> <Delta U+W>
0.823

> <U+W>
-2.308

> <U>
0.039

> <W>
-2.348

> <W(PB)>
-3.918

> <W(SA)>
1.571

> <Valence>
7.320

> <Coulomb>
-8.530

> <VdW>
1.249

> <VdW6>
-2.615

> <VdW12>
3.864

> <Bond>
0.056

> <Angle>
0.694

> <Pdih>
6.570

> <Idih>
0.000

> <Tether>
0.000

$$$$
VeraChem MOL file


 13 13  0  0  0  0  0  0  0  0999 V2000     
   18.4566   19.1682   22.7585 C   0  0  0  0  0  0  0  0  0  0  0  0
   17.8498   18.2572   22.6722 H   0  0  0  0  0  0  0  0  0  0  0  0
   17.8794   19.9232   23.3054 H   0  0  0  0  0  0  0  0  0  0  0  0
   19.1174   19.6434   21.4225 C   0  0  0  0  0  0  0  0  0  0  0  0
   18.5523   19.4436   20.5056 H   0  0  0  0  0  0  0  0  0  0  0  0
   19.4402   20.6919   21.4168 H   0  0  0  0  0  0  0  0  0  0  0  0
   20.2457   18.6224   21.7591 C   0  0  0  0  0  0  0  0  0  0  0  0
   20.0141   17.5914   21.4586 H   0  0  0  0  0  0  0  0  0  0  0  0
   19.9226   18.9339   23.2517 C   0  0  0  0  0  0  0  0  0  0  0  0
   20.0685   18.1067   23.9550 H   0  0  0  0  0  0  0  0  0  0  0  0
   20.4206   19.8273   23.6490 H   0  0  0  0  0  0  0  0  0  0  0  0
   21.5371   18.9897   21.3326 O   0  0  0  0  0  0  0  0  0  0  0  0
   22.1685   18.3590   21.7411 H   0  0  0  0  0  0  0  0  0  0  0  0
  1  2  1  0  0  0  0
  1  3  1  0  0  0  0
  1  4  1  0  0  0  0
  4  5  1  0  0  0  0
  4  6  1  0  0  0  0
  4  7  1  0  0  0  0
  7  8  1  0  0  0  0
  1  9  1  0  0  0  0
  7  9  1  0  0  0  0
  9 10  1  0  0  0  0
  9 11  1  0  0  0  0
  7 12  1  0  0  0  0
 12 13  1  0  0  0  0
M  END
> <VConfSearch Rank>
81

> <Conf_Id>
22

> <Delta U+W>
0.000

> <U+W>
-3.131

> <U>
-0.154

> <W>
-2.978

> <W(PB)>
-4.579

> <W(SA)>
1.601

> <Valence>
6.333

> <Coulomb>
-7.439

> <VdW>
0.952

> <VdW6>
-2.120

> <VdW12>
3.072

> <Bond>
0.065

> <Angle>
0.931

> <Pdih>
5.338

> <Idih>
0.000

> <Tether>
0.000

$$$$
VeraChem MOL file


 13 13  0  0  0  0  0  0  0  0999 V2000     
   18.8847   18.2406   23.0929 C   0  0  0  0  0  0  0  0  0  0  0  0
   19.0746   17.1595   23.0657 H   0  0  0  0  0  0  0  0  0  0  0  0
   18.0711   18.4358   23.8016 H   0  0  0  0  0  0  0  0  0  0  0  0
   18.7499   18.9170   21.6888 C   0  0  0  0  0  0  0  0  0  0  0  0
   18.2480   19.8926   21.6966 H   0  0  0  0  0  0  0  0  0  0  0  0
   18.3105   18.3007   20.8968 H   0  0  0  0  0  0  0  0  0  0  0  0
   20.3067   18.9895   21.7092 C   0  0  0  0  0  0  0  0  0  0  0  0
   20.8005   18.0614   21.3901 H   0  0  0  0  0  0  0  0  0  0  0  0
   20.1643   19.1258   23.2552 C   0  0  0  0  0  0  0  0  0  0  0  0
   19.9749   20.1480   23.6057 H   0  0  0  0  0  0  0  0  0  0  0  0
   20.9784   18.6951   23.8482 H   0  0  0  0  0  0  0  0  0  0  0  0
   20.8668   20.1045   21.0554 O   0  0  0  0  0  0  0  0  0  0  0  0
   20.7516   19.9641   20.0909 H   0  0  0  0  0  0  0  0  0  0  0  0
  1  2  1  0  0  0  0
  1  3  1  0  0  0  0
  1  4  1  0  0  0  0
  4  5  1  0  0  0  0
  4  6  1  0  0  0  0
  4  7  1  0  0  0  0
  7  8  1  0  0  0  0
  1  9  1  0  0  0  0
  7  9  1  0  0  0  0
  9 10  1  0  0  0  0
  9 11  1  0  0  0  0
  7 12  1  0  0  0  0
 12 13  1  0  0  0  0
M  END
> <VConfSearch Rank>
82

> <Conf_Id>
19

> <Delta U+W>
-0.011

> <U+W>
-3.142

> <U>
-0.154

> <W>
-2.989

> <W(PB)>
-4.588

> <W(SA)>
1.599

> <Valence>
6.334

> <Coulomb>
-7.439

> <VdW>
0.951

> <VdW6>
-2.120

> <VdW12>
3.072

> <Bond>
0.065

> <Angle>
0.930

> <Pdih>
5.339

> <Idih>
0.000

> <Tether>
0.000

$$$$
VeraChem MOL file


 13 13  0  0  0  0  0  0  0  0999 V2000     
   20.2412   19.7843   21.4972 C   0  0  0  0  0  0  0  0  0  0  0  0
   21.2306   20.1090   21.1540 H   0  0  0  0  0  0  0  0  0  0  0  0
   19.4783   20.2487   20.8587 H   0  0  0  0  0  0  0  0  0  0  0  0
   19.9688   19.9127   23.0329 C   0  0  0  0  0  0  0  0  0  0  0  0
   20.8573   19.7914   23.6643 H   0  0  0  0  0  0  0  0  0  0  0  0
   19.4317   20.8124   23.3527 H   0  0  0  0  0  0  0  0  0  0  0  0
   19.1041   18.6213   22.8910 C   0  0  0  0  0  0  0  0  0  0  0  0
   19.1488   17.9442   23.7538 H   0  0  0  0  0  0  0  0  0  0  0  0
   20.0586   18.2455   21.7147 C   0  0  0  0  0  0  0  0  0  0  0  0
   19.6033   17.6938   20.8848 H   0  0  0  0  0  0  0  0  0  0  0  0
   20.9695   17.7199   22.0261 H   0  0  0  0  0  0  0  0  0  0  0  0
   17.7584   18.8444   22.5203 O   0  0  0  0  0  0  0  0  0  0  0  0
   17.3710   17.9722   22.2935 H   0  0  0  0  0  0  0  0  0  0  0  0
  1  2  1  0  0  0  0
  1  3  1  0  0  0  0
  1  4  1  0  0  0  0
  4  5  1  0  0  0  0
  4  6  1  0  0  0  0
  4  7  1  0  0  0  0
  7  8  1  0  0  0  0
  1  9  1  0  0  0  0
  7  9  1  0  0  0  0
  9 10  1  0  0  0  0
  9 11  1  0  0  0  0
  7 12  1  0  0  0  0
 12 13  1  0  0  0  0
M  END
> <VConfSearch Rank>
83

> <Conf_Id>
20

> <Delta U+W>
1.030

> <U+W>
-2.101

> <U>
0.841

> <W>
-2.942

> <W(PB)>
-4.530

> <W(SA)>
1.587

> <Valence>
6.736

> <Coulomb>
-7.246

> <VdW>
1.352

> <VdW6>
-2.500

> <VdW12>
3.851

> <Bond>
0.063

> <Angle>
0.687

> <Pdih>
5.986

> <Idih>
0.000

> <Tether>
0.000

$$$$
VeraChem MOL file


 13 13  0  0  0  0  0  0  0  0999 V2000     
   19.5545   20.2155   22.0997 C   0  0  0  0  0  0  0  0  0  0  0  0
   19.4309   20.8019   23.0198 H   0  0  0  0  0  0  0  0  0  0  0  0
   19.4796   20.8926   21.2404 H   0  0  0  0  0  0  0  0  0  0  0  0
   18.6843   18.9174   22.0297 C   0  0  0  0  0  0  0  0  0  0  0  0
   17.7108   18.9619   22.5303 H   0  0  0  0  0  0  0  0  0  0  0  0
   18.5422   18.5158   21.0188 H   0  0  0  0  0  0  0  0  0  0  0  0
   19.8339   18.2501   22.8437 C   0  0  0  0  0  0  0  0  0  0  0  0
   19.7690   18.4221   23.9267 H   0  0  0  0  0  0  0  0  0  0  0  0
   20.7801   19.2432   22.1036 C   0  0  0  0  0  0  0  0  0  0  0  0
   21.1064   18.9145   21.1092 H   0  0  0  0  0  0  0  0  0  0  0  0
   21.6574   19.5755   22.6694 H   0  0  0  0  0  0  0  0  0  0  0  0
   20.0554   16.8870   22.5707 O   0  0  0  0  0  0  0  0  0  0  0  0
   20.1040   16.7954   21.5961 H   0  0  0  0  0  0  0  0  0  0  0  0
  1  2  1  0  0  0  0
  1  3  1  0  0  0  0
  1  4  1  0  0  0  0
  4  5  1  0  0  0  0
  4  6  1  0  0  0  0
  4  7  1  0  0  0  0
  7  8  1  0  0  0  0
  1  9  1  0  0  0  0
  7  9  1  0  0  0  0
  9 10  1  0  0  0  0
  9 11  1  0  0  0  0
  7 12  1  0  0  0  0
 12 13  1  0  0  0  0
M  END
> <VConfSearch Rank>
84

> <Conf_Id>
24

> <Delta U+W>
0.356

> <U+W>
-2.775

> <U>
-0.184

> <W>
-2.591

> <W(PB)>
-4.184

> <W(SA)>
1.593

> <Valence>
6.840

> <Coulomb>
-7.916

> <VdW>
0.893

> <VdW6>
-2.167

> <VdW12>
3.060

> <Bond>
0.059

> <Angle>
0.918

> <Pdih>
5.862

> <Idih>
0.000

> <Tether>
0.000

$$$$
VeraChem MOL file


 13 13  0  0  0  0  0  0  0  0999 V2000     
   20.7859   19.1422   22.4155 C   0  0  0  0  0  0  0  0  0  0  0  0
   21.6345   19.8273   22.3021 H   0  0  0  0  0  0  0  0  0  0  0  0
   21.1313   18.2484   22.9505 H   0  0  0  0  0  0  0  0  0  0  0  0
   19.9607   18.8544   21.1169 C   0  0  0  0  0  0  0  0  0  0  0  0
   19.9389   19.6845   20.4003 H   0  0  0  0  0  0  0  0  0  0  0  0
   20.2140   17.9351   20.5772 H   0  0  0  0  0  0  0  0  0  0  0  0
   18.7061   18.7787   22.0412 C   0  0  0  0  0  0  0  0  0  0  0  0
   17.7833   19.1751   21.5988 H   0  0  0  0  0  0  0  0  0  0  0  0
   19.4662   19.7738   22.9718 C   0  0  0  0  0  0  0  0  0  0  0  0
   19.3233   20.8292   22.7100 H   0  0  0  0  0  0  0  0  0  0  0  0
   19.2892   19.6546   24.0466 H   0  0  0  0  0  0  0  0  0  0  0  0
   18.4632   17.5084   22.6061 O   0  0  0  0  0  0  0  0  0  0  0  0
   19.3153   17.2062   22.9830 H   0  0  0  0  0  0  0  0  0  0  0  0
  1  2  1  0  0  0  0
  1  3  1  0  0  0  0
  1  4  1  0  0  0  0
  4  5  1  0  0  0  0
  4  6  1  0  0  0  0
  4  7  1  0  0  0  0
  7  8  1  0  0  0  0
  1  9  1  0  0  0  0
  7  9  1  0  0  0  0
  9 10  1  0  0  0  0
  9 11  1  0  0  0  0
  7 12  1  0  0  0  0
 12 13  1  0  0  0  0
M  END
> <VConfSearch Rank>
85

> <Conf_Id>
44

> <Delta U+W>
0.823

> <U+W>
-2.308

> <U>
0.039

> <W>
-2.348

> <W(PB)>
-3.918

> <W(SA)>
1.571

> <Valence>
7.320

> <Coulomb>
-8.530

> <VdW>
1.249

> <VdW6>
-2.615

> <VdW12>
3.864

> <Bond>
0.056

> <Angle>
0.694

> <Pdih>
6.570

> <Idih>
0.000

> <Tether>
0.000

$$$$
VeraChem MOL file


 13 13  0  0  0  0  0  0  0  0999 V2000     
   20.3813   18.9834   23.3564 C   0  0  0  0  0  0  0  0  0  0  0  0
   20.7657   17.9784   23.5748 H   0  0  0  0  0  0  0  0  0  0  0  0
   20.7568   19.6756   24.1194 H   0  0  0  0  0  0  0  0  0  0  0  0
   18.8453   19.0478   23.0665 C   0  0  0  0  0  0  0  0  0  0  0  0
   18.2212   18.3245   23.6025 H   0  0  0  0  0  0  0  0  0  0  0  0
   18.3992   20.0447   23.1708 H   0  0  0  0  0  0  0  0  0  0  0  0
   19.2281   18.6615   21.6060 C   0  0  0  0  0  0  0  0  0  0  0  0
   19.3684   17.5823   21.4557 H   0  0  0  0  0  0  0  0  0  0  0  0
   20.5518   19.4408   21.8701 C   0  0  0  0  0  0  0  0  0  0  0  0
   21.4393   19.0656   21.3489 H   0  0  0  0  0  0  0  0  0  0  0  0
   20.4818   20.5245   21.7134 H   0  0  0  0  0  0  0  0  0  0  0  0
   18.3998   19.2028   20.6031 O   0  0  0  0  0  0  0  0  0  0  0  0
   18.8340   19.0260   19.7409 H   0  0  0  0  0  0  0  0  0  0  0  0
  1  2  1  0  0  0  0
  1  3  1  0  0  0  0
  1  4  1  0  0  0  0
  4  5  1  0  0  0  0
  4  6  1  0  0  0  0
  4  7  1  0  0  0  0
  7  8  1  0  0  0  0
  1  9  1  0  0  0  0
  7  9  1  0  0  0  0
  9 10  1  0  0  0  0
  9 11  1  0  0  0  0
  7 12  1  0  0  0  0
 12 13  1  0  0  0  0
M  END
> <VConfSearch Rank>
86

> <Conf_Id>
22

> <Delta U+W>
0.000

> <U+W>
-3.131

> <U>
-0.154

> <W>
-2.978

> <W(PB)>
-4.579

> <W(SA)>
1.601

> <Valence>
6.333

> <Coulomb>
-7.439

> <VdW>
0.952

> <VdW6>
-2.120

> <VdW12>
3.072

> <Bond>
0.065

> <Angle>
0.931

> <Pdih>
5.338

> <Idih>
0.000

> <Tether>
0.000

$$$$
VeraChem MOL file


 13 13  0  0  0  0  0  0  0  0999 V2000     
   19.0043   18.0892   21.4392 C   0  0  0  0  0  0  0  0  0  0  0  0
   18.0326   18.4628   21.0902 H   0  0  0  0  0  0  0  0  0  0  0  0
   19.1534   17.0775   21.0434 H   0  0  0  0  0  0  0  0  0  0  0  0
   19.2648   18.2732   22.9707 C   0  0  0  0  0  0  0  0  0  0  0  0
   20.0544   17.6316   23.3814 H   0  0  0  0  0  0  0  0  0  0  0  0
   18.3851   18.2098   23.6205 H   0  0  0  0  0  0  0  0  0  0  0  0
   19.7302   19.7124   22.5949 C   0  0  0  0  0  0  0  0  0  0  0  0
   18.9079   20.4331   22.4873 H   0  0  0  0  0  0  0  0  0  0  0  0
   20.1956   19.0847   21.2465 C   0  0  0  0  0  0  0  0  0  0  0  0
   21.1904   18.6232   21.2795 H   0  0  0  0  0  0  0  0  0  0  0  0
   20.1406   19.7412   20.3714 H   0  0  0  0  0  0  0  0  0  0  0  0
   20.7582   20.2428   23.3989 O   0  0  0  0  0  0  0  0  0  0  0  0
   20.3645   20.4529   24.2730 H   0  0  0  0  0  0  0  0  0  0  0  0
  1  2  1  0  0  0  0
  1  3  1  0  0  0  0
  1  4  1  0  0  0  0
  4  5  1  0  0  0  0
  4  6  1  0  0  0  0
  4  7  1  0  0  0  0
  7  8  1  0  0  0  0
  1  9  1  0  0  0  0
  7  9  1  0  0  0  0
  9 10  1  0  0  0  0
  9 11  1  0  0  0  0
  7 12  1  0  0  0  0
 12 13  1  0  0  0  0
M  END
> <VConfSearch Rank>
87

> <Conf_Id>
19

> <Delta U+W>
-0.011

> <U+W>
-3.142

> <U>
-0.154

> <W>
-2.989

> <W(PB)>
-4.588

> <W(SA)>
1.599

> <Valence>
6.334

> <Coulomb>
-7.439

> <VdW>
0.951

> <VdW6>
-2.120

> <VdW12>
3.072

> <Bond>
0.065

> <Angle>
0.930

> <Pdih>
5.339

> <Idih>
0.000

> <Tether>
0.000

$$$$
VeraChem MOL file


 13 13  0  0  0  0  0  0  0  0999 V2000     
   19.5787   19.3558   23.4734 C   0  0  0  0  0  0  0  0  0  0  0  0
   18.9526   19.3584   24.3734 H   0  0  0  0  0  0  0  0  0  0  0  0
   20.5811   19.7140   23.7420 H   0  0  0  0  0  0  0  0  0  0  0  0
   18.9641   20.0360   22.2052 C   0  0  0  0  0  0  0  0  0  0  0  0
   17.8715   19.9694   22.1375 H   0  0  0  0  0  0  0  0  0  0  0  0
   19.2639   21.0740   22.0229 H   0  0  0  0  0  0  0  0  0  0  0  0
   19.7233   18.9551   21.3741 C   0  0  0  0  0  0  0  0  0  0  0  0
   19.1898   18.6079   20.4799 H   0  0  0  0  0  0  0  0  0  0  0  0
   19.5634   18.0392   22.6278 C   0  0  0  0  0  0  0  0  0  0  0  0
   20.3830   17.3372   22.8170 H   0  0  0  0  0  0  0  0  0  0  0  0
   18.6158   17.4881   22.6631 H   0  0  0  0  0  0  0  0  0  0  0  0
   21.0568   19.2873   21.0433 O   0  0  0  0  0  0  0  0  0  0  0  0
   21.4778   18.4772   20.6846 H   0  0  0  0  0  0  0  0  0  0  0  0
  1  2  1  0  0  0  0
  1  3  1  0  0  0  0
  1  4  1  0  0  0  0
  4  5  1  0  0  0  0
  4  6  1  0  0  0  0
  4  7  1  0  0  0  0
  7  8  1  0  0  0  0
  1  9  1  0  0  0  0
  7  9  1  0  0  0  0
  9 10  1  0  0  0  0
  9 11  1  0  0  0  0
  7 12  1  0  0  0  0
 12 13  1  0  0  0  0
M  END
> <VConfSearch Rank>
88

> <Conf_Id>
20

> <Delta U+W>
1.030

> <U+W>
-2.101

> <U>
0.841

> <W>
-2.942

> <W(PB)>
-4.530

> <W(SA)>
1.587

> <Valence>
6.736

> <Coulomb>
-7.246

> <VdW>
1.352

> <VdW6>
-2.500

> <VdW12>
3.851

> <Bond>
0.063

> <Angle>
0.687

> <Pdih>
5.986

> <Idih>
0.000

> <Tether>
0.000

$$$$
VeraChem MOL file


 13 13  0  0  0  0  0  0  0  0999 V2000     
   20.9445   18.9878   22.6673 C   0  0  0  0  0  0  0  0  0  0  0  0
   21.2584   18.1896   23.3529 H   0  0  0  0  0  0  0  0  0  0  0  0
   21.7862   19.6754   22.5219 H   0  0  0  0  0  0  0  0  0  0  0  0
   19.5704   19.6482   23.0180 C   0  0  0  0  0  0  0  0  0  0  0  0
   19.3202   19.7041   24.0832 H   0  0  0  0  0  0  0  0  0  0  0  0
   19.4082   20.6345   22.5662 H   0  0  0  0  0  0  0  0  0  0  0  0
   18.9377   18.4577   22.2360 C   0  0  0  0  0  0  0  0  0  0  0  0
   18.8270   17.5426   22.8335 H   0  0  0  0  0  0  0  0  0  0  0  0
   20.2312   18.4901   21.3670 C   0  0  0  0  0  0  0  0  0  0  0  0
   20.2167   19.2176   20.5461 H   0  0  0  0  0  0  0  0  0  0  0  0
   20.5646   17.5233   20.9740 H   0  0  0  0  0  0  0  0  0  0  0  0
   17.7426   18.7507   21.5521 O   0  0  0  0  0  0  0  0  0  0  0  0
   17.9008   19.5712   21.0399 H   0  0  0  0  0  0  0  0  0  0  0  0
  1  2  1  0  0  0  0
  1  3  1  0  0  0  0
  1  4  1  0  0  0  0
  4  5  1  0  0  0  0
  4  6  1  0  0  0  0
  4  7  1  0  0  0  0
  7  8  1  0  0  0  0
  1  9  1  0  0  0  0
  7  9  1  0  0  0  0
  9 10  1  0  0  0  0
  9 11  1  0  0  0  0
  7 12  1  0  0  0  0
 12 13  1  0  0  0  0
M  END
> <VConfSearch Rank>
89

> <Conf_Id>
24

> <Delta U+W>
0.356

> <U+W>
-2.775

> <U>
-0.184

> <W>
-2.591

> <W(PB)>
-4.184

> <W(SA)>
1.593

> <Valence>
6.840

> <Coulomb>
-7.916

> <VdW>
0.893

> <VdW6>
-2.167

> <VdW12>
3.060

> <Bond>
0.059

> <Angle>
0.918

> <Pdih>
5.862

> <Idih>
0.000

> <Tether>
0.000

$$$$
VeraChem MOL file


 13 13  0  0  0  0  0  0  0  0999 V2000     
   20.4930   18.2309   22.4906 C   0  0  0  0  0  0  0  0  0  0  0  0
   21.4319   18.0721   23.0343 H   0  0  0  0  0  0  0  0  0  0  0  0
   20.1999   17.2833   22.0211 H   0  0  0  0  0  0  0  0  0  0  0  0
   20.4537   19.4755   21.5422 C   0  0  0  0  0  0  0  0  0  0  0  0
   21.0786   20.3152   21.8701 H   0  0  0  0  0  0  0  0  0  0  0  0
   20.6576   19.2826   20.4830 H   0  0  0  0  0  0  0  0  0  0  0  0
   18.9495   19.6110   21.9333 C   0  0  0  0  0  0  0  0  0  0  0  0
   18.5858   20.6433   22.0145 H   0  0  0  0  0  0  0  0  0  0  0  0
   19.3543   18.9508   23.2876 C   0  0  0  0  0  0  0  0  0  0  0  0
   19.7096   19.6618   24.0434 H   0  0  0  0  0  0  0  0  0  0  0  0
   18.6012   18.3012   23.7476 H   0  0  0  0  0  0  0  0  0  0  0  0
   18.0622   18.8476   21.1448 O   0  0  0  0  0  0  0  0  0  0  0  0
   18.4348   17.9426   21.1074 H   0  0  0  0  0  0  0  0  0  0  0  0
  1  2  1  0  0  0  0
  1  3  1  0  0  0  0
  1  4  1  0  0  0  0
  4  5  1  0  0  0  0
  4  6  1  0  0  0  0
  4  7  1  0  0  0  0
  7  8  1  0  0  0  0
  1  9  1  0  0  0  0
  7  9  1  0  0  0  0
  9 10  1  0  0  0  0
  9 11  1  0  0  0  0
  7 12  1  0  0  0  0
 12 13  1  0  0  0  0
M  END
> <VConfSearch Rank>
90

> <Conf_Id>
44

> <Delta U+W>
0.823

> <U+W>
-2.308

> <U>
0.039

> <W>
-2.348

> <W(PB)>
-3.918

> <W(SA)>
1.571

> <Valence>
7.320

> <Coulomb>
-8.530

> <VdW>
1.249

> <VdW6>
-2.615

> <VdW12>
3.864

> <Bond>
0.056

> <Angle>
0.694

> <Pdih>
6.570

> <Idih>
0.000

> <Tether>
0.000

$$$$
VeraChem MOL file


 13 13  0  0  0  0  0  0  0  0999 V2000     
   19.1506   18.6474   23.3964 C   0  0  0  0  0  0  0  0  0  0  0  0
   19.8941   18.5462   24.1980 H   0  0  0  0  0  0  0  0  0  0  0  0
   18.1581   18.4324   23.8099 H   0  0  0  0  0  0  0  0  0  0  0  0
   19.5163   17.9074   22.0675 C   0  0  0  0  0  0  0  0  0  0  0  0
   20.0894   16.9798   22.1723 H   0  0  0  0  0  0  0  0  0  0  0  0
   18.6691   17.7247   21.3949 H   0  0  0  0  0  0  0  0  0  0  0  0
   20.3463   19.1822   21.7286 C   0  0  0  0  0  0  0  0  0  0  0  0
   21.3477   19.1917   22.1805 H   0  0  0  0  0  0  0  0  0  0  0  0
   19.2737   19.9580   22.5512 C   0  0  0  0  0  0  0  0  0  0  0  0
   19.6308   20.8450   23.0859 H   0  0  0  0  0  0  0  0  0  0  0  0
   18.3717   20.2254   21.9865 H   0  0  0  0  0  0  0  0  0  0  0  0
   20.4117   19.5122   20.3606 O   0  0  0  0  0  0  0  0  0  0  0  0
   20.8132   20.4055   20.2960 H   0  0  0  0  0  0  0  0  0  0  0  0
  1  2  1  0  0  0  0
  1  3  1  0  0  0  0
  1  4  1  0  0  0  0
  4  5  1  0  0  0  0
  4  6  1  0  0  0  0
  4  7  1  0  0  0  0
  7  8  1  0  0  0  0
  1  9  1  0  0  0  0
  7  9  1  0  0  0  0
  9 10  1  0  0  0  0
  9 11  1  0  0  0  0
  7 12  1  0  0  0  0
 12 13  1  0  0  0  0
M  END
> <VConfSearch Rank>
91

> <Conf_Id>
22

> <Delta U+W>
0.000

> <U+W>
-3.131

> <U>
-0.154

> <W>
-2.978

> <W(PB)>
-4.579

> <W(SA)>
1.601

> <Valence>
6.333

> <Coulomb>
-7.439

> <VdW>
0.952

> <VdW6>
-2.120

> <VdW12>
3.072

> <Bond>
0.065

> <Angle>
0.931

> <Pdih>
5.338

> <Idih>
0.000

> <Tether>
0.000

$$$$
VeraChem MOL file


 13 13  0  0  0  0  0  0  0  0999 V2000     
   18.8534   19.5742   21.3983 C   0  0  0  0  0  0  0  0  0  0  0  0
   18.1594   18.9205   20.8535 H   0  0  0  0  0  0  0  0  0  0  0  0
   18.7300   20.6000   21.0309 H   0  0  0  0  0  0  0  0  0  0  0  0
   20.3235   19.0456   21.4792 C   0  0  0  0  0  0  0  0  0  0  0  0
   21.0729   19.8105   21.7183 H   0  0  0  0  0  0  0  0  0  0  0  0
   20.6749   18.4641   20.6199 H   0  0  0  0  0  0  0  0  0  0  0  0
   19.8295   18.2180   22.7041 C   0  0  0  0  0  0  0  0  0  0  0  0
   19.3372   17.2734   22.4347 H   0  0  0  0  0  0  0  0  0  0  0  0
   18.8382   19.3946   22.9522 C   0  0  0  0  0  0  0  0  0  0  0  0
   19.2620   20.2346   23.5163 H   0  0  0  0  0  0  0  0  0  0  0  0
   17.8758   19.1206   23.3981 H   0  0  0  0  0  0  0  0  0  0  0  0
   20.7859   18.0123   23.7178 O   0  0  0  0  0  0  0  0  0  0  0  0
   21.4396   17.3660   23.3739 H   0  0  0  0  0  0  0  0  0  0  0  0
  1  2  1  0  0  0  0
  1  3  1  0  0  0  0
  1  4  1  0  0  0  0
  4  5  1  0  0  0  0
  4  6  1  0  0  0  0
  4  7  1  0  0  0  0
  7  8  1  0  0  0  0
  1  9  1  0  0  0  0
  7  9  1  0  0  0  0
  9 10  1  0  0  0  0
  9 11  1  0  0  0  0
  7 12  1  0  0  0  0
 12 13  1  0  0  0  0
M  END
> <VConfSearch Rank>
92

> <Conf_Id>
19

> <Delta U+W>
-0.011

> <U+W>
-3.142

> <U>
-0.154

> <W>
-2.989

> <W(PB)>
-4.588

> <W(SA)>
1.599

> <Valence>
6.334

> <Coulomb>
-7.439

> <VdW>
0.951

> <VdW6>
-2.120

> <VdW12>
3.072

> <Bond>
0.065

> <Angle>
0.930

> <Pdih>
5.339

> <Idih>
0.000

> <Tether>
0.000

$$$$
VeraChem MOL file


 13 13  0  0  0  0  0  0  0  0999 V2000     
   18.5229   19.0068   22.8136 C   0  0  0  0  0  0  0  0  0  0  0  0
   17.9627   18.6795   23.6974 H   0  0  0  0  0  0  0  0  0  0  0  0
   17.8452   19.5661   22.1555 H   0  0  0  0  0  0  0  0  0  0  0  0
   19.3708   17.9082   22.0902 C   0  0  0  0  0  0  0  0  0  0  0  0
   19.7599   17.1248   22.7517 H   0  0  0  0  0  0  0  0  0  0  0  0
   18.9017   17.4325   21.2218 H   0  0  0  0  0  0  0  0  0  0  0  0
   20.3941   19.0425   21.7715 C   0  0  0  0  0  0  0  0  0  0  0  0
   21.4454   18.7275   21.7875 H   0  0  0  0  0  0  0  0  0  0  0  0
   19.8921   19.7128   23.0886 C   0  0  0  0  0  0  0  0  0  0  0  0
   19.8752   20.8082   23.0934 H   0  0  0  0  0  0  0  0  0  0  0  0
   20.4075   19.3669   23.9929 H   0  0  0  0  0  0  0  0  0  0  0  0
   20.1255   19.7713   20.5904 O   0  0  0  0  0  0  0  0  0  0  0  0
   20.7186   20.5525   20.5897 H   0  0  0  0  0  0  0  0  0  0  0  0
  1  2  1  0  0  0  0
  1  3  1  0  0  0  0
  1  4  1  0  0  0  0
  4  5  1  0  0  0  0
  4  6  1  0  0  0  0
  4  7  1  0  0  0  0
  7  8  1  0  0  0  0
  1  9  1  0  0  0  0
  7  9  1  0  0  0  0
  9 10  1  0  0  0  0
  9 11  1  0  0  0  0
  7 12  1  0  0  0  0
 12 13  1  0  0  0  0
M  END
> <VConfSearch Rank>
93

> <Conf_Id>
20

> <Delta U+W>
1.030

> <U+W>
-2.101

> <U>
0.841

> <W>
-2.942

> <W(PB)>
-4.530

> <W(SA)>
1.587

> <Valence>
6.736

> <Coulomb>
-7.246

> <VdW>
1.352

> <VdW6>
-2.500

> <VdW12>
3.851

> <Bond>
0.063

> <Angle>
0.687

> <Pdih>
5.986

> <Idih>
0.000

> <Tether>
0.000

$$$$
VeraChem MOL file


 13 13  0  0  0  0  0  0  0  0999 V2000     
   20.5855   18.7783   23.1655 C   0  0  0  0  0  0  0  0  0  0  0  0
   20.6094   17.7968   23.6571 H   0  0  0  0  0  0  0  0  0  0  0  0
   21.3359   19.4241   23.6368 H   0  0  0  0  0  0  0  0  0  0  0  0
   19.1562   19.3926   23.0006 C   0  0  0  0  0  0  0  0  0  0  0  0
   18.4338   19.1510   23.7881 H   0  0  0  0  0  0  0  0  0  0  0  0
   19.1408   20.4760   22.8292 H   0  0  0  0  0  0  0  0  0  0  0  0
   19.0656   18.5241   21.7096 C   0  0  0  0  0  0  0  0  0  0  0  0
   18.7667   17.4833   21.8946 H   0  0  0  0  0  0  0  0  0  0  0  0
   20.6071   18.7273   21.6020 C   0  0  0  0  0  0  0  0  0  0  0  0
   20.9161   19.6620   21.1181 H   0  0  0  0  0  0  0  0  0  0  0  0
   21.1661   17.8982   21.1543 H   0  0  0  0  0  0  0  0  0  0  0  0
   18.3082   19.0782   20.6603 O   0  0  0  0  0  0  0  0  0  0  0  0
   18.6171   20.0009   20.5418 H   0  0  0  0  0  0  0  0  0  0  0  0
  1  2  1  0  0  0  0
  1  3  1  0  0  0  0
  1  4  1  0  0  0  0
  4  5  1  0  0  0  0
  4  6  1  0  0  0  0
  4  7  1  0  0  0  0
  7  8  1  0  0  0  0
  1  9  1  0  0  0  0
  7  9  1  0  0  0  0
  9 10  1  0  0  0  0
  9 11  1  0  0  0  0
  7 12  1  0  0  0  0
 12 13  1  0  0  0  0
M  END
> <VConfSearch Rank>
94

> <Conf_Id>
24

> <Delta U+W>
0.356

> <U+W>
-2.775

> <U>
-0.184

> <W>
-2.591

> <W(PB)>
-4.184

> <W(SA)>
1.593

> <Valence>
6.840

> <Coulomb>
-7.916

> <VdW>
0.893

> <VdW6>
-2.167

> <VdW12>
3.060

> <Bond>
0.059

> <Angle>
0.918

> <Pdih>
5.862

> <Idih>
0.000

> <Tether>
0.000

$$$$
VeraChem MOL file


 13 13  0  0  0  0  0  0  0  0999 V2000     
   19.5021   19.0581   21.1039 C   0  0  0  0  0  0  0  0  0  0  0  0
   19.3629   18.5160   20.1610 H   0  0  0  0  0  0  0  0  0  0  0  0
   19.4258   20.1337   20.8997 H   0  0  0  0  0  0  0  0  0  0  0  0
   20.7438   18.6366   21.9586 C   0  0  0  0  0  0  0  0  0  0  0  0
   21.0313   17.5835   21.8518 H   0  0  0  0  0  0  0  0  0  0  0  0
   21.6409   19.2556   21.8454 H   0  0  0  0  0  0  0  0  0  0  0  0
   19.8653   18.9324   23.2134 C   0  0  0  0  0  0  0  0  0  0  0  0
   20.0357   18.2601   24.0640 H   0  0  0  0  0  0  0  0  0  0  0  0
   18.6469   18.5555   22.3147 C   0  0  0  0  0  0  0  0  0  0  0  0
   18.4203   17.4825   22.2953 H   0  0  0  0  0  0  0  0  0  0  0  0
   17.7189   19.1038   22.5116 H   0  0  0  0  0  0  0  0  0  0  0  0
   19.8871   20.2750   23.6478 O   0  0  0  0  0  0  0  0  0  0  0  0
   19.7308   20.8251   22.8527 H   0  0  0  0  0  0  0  0  0  0  0  0
  1  2  1  0  0  0  0
  1  3  1  0  0  0  0
  1  4  1  0  0  0  0
  4  5  1  0  0  0  0
  4  6  1  0  0  0  0
  4  7  1  0  0  0  0
  7  8  1  0  0  0  0
  1  9  1  0  0  0  0
  7  9  1  0  0  0  0
  9 10  1  0  0  0  0
  9 11  1  0  0  0  0
  7 12  1  0  0  0  0
 12 13  1  0  0  0  0
M  END
> <VConfSearch Rank>
95

> <Conf_Id>
44

> <Delta U+W>
0.823

> <U+W>
-2.308

> <U>
0.039

> <W>
-2.348

> <W(PB)>
-3.918

> <W(SA)>
1.571

> <Valence>
7.320

> <Coulomb>
-8.530

> <VdW>
1.249

> <VdW6>
-2.615

> <VdW12>
3.864

> <Bond>
0.056

> <Angle>
0.694

> <Pdih>
6.570

> <Idih>
0.000

> <Tether>
0.000

$$$$
VeraChem MOL file


 13 13  0  0  0  0  0  0  0  0999 V2000     
   18.3632   19.0541   22.4509 C   0  0  0  0  0  0  0  0  0  0  0  0
   17.7827   19.2798   21.5467 H   0  0  0  0  0  0  0  0  0  0  0  0
   17.6666   18.8477   23.2722 H   0  0  0  0  0  0  0  0  0  0  0  0
   19.5109   20.0705   22.7625 C   0  0  0  0  0  0  0  0  0  0  0  0
   19.3279   21.1106   22.4716 H   0  0  0  0  0  0  0  0  0  0  0  0
   19.8728   20.0521   23.7980 H   0  0  0  0  0  0  0  0  0  0  0  0
   20.3627   19.2280   21.7658 C   0  0  0  0  0  0  0  0  0  0  0  0
   20.2028   19.4940   20.7119 H   0  0  0  0  0  0  0  0  0  0  0  0
   19.5133   18.0132   22.2475 C   0  0  0  0  0  0  0  0  0  0  0  0
   19.3303   17.2321   21.5014 H   0  0  0  0  0  0  0  0  0  0  0  0
   19.8737   17.5424   23.1707 H   0  0  0  0  0  0  0  0  0  0  0  0
   21.7384   19.1562   22.0605 O   0  0  0  0  0  0  0  0  0  0  0  0
   22.1275   18.4771   21.4683 H   0  0  0  0  0  0  0  0  0  0  0  0
  1  2  1  0  0  0  0
  1  3  1  0  0  0  0
  1  4  1  0  0  0  0
  4  5  1  0  0  0  0
  4  6  1  0  0  0  0
  4  7  1  0  0  0  0
  7  8  1  0  0  0  0
  1  9  1  0  0  0  0
  7  9  1  0  0  0  0
  9 10  1  0  0  0  0
  9 11  1  0  0  0  0
  7 12  1  0  0  0  0
 12 13  1  0  0  0  0
M  END
> <VConfSearch Rank>
96

> <Conf_Id>
22

> <Delta U+W>
0.000

> <U+W>
-3.131

> <U>
-0.154

> <W>
-2.978

> <W(PB)>
-4.579

> <W(SA)>
1.601

> <Valence>
6.333

> <Coulomb>
-7.439

> <VdW>
0.952

> <VdW6>
-2.120

> <VdW12>
3.072

> <Bond>
0.065

> <Angle>
0.931

> <Pdih>
5.338

> <Idih>
0.000

> <Tether>
0.000

$$$$
VeraChem MOL file


 13 13  0  0  0  0  0  0  0  0999 V2000     
   19.9460   20.1961   22.0808 C   0  0  0  0  0  0  0  0  0  0  0  0
   19.9299   20.7750   23.0136 H   0  0  0  0  0  0  0  0  0  0  0  0
   20.1784   20.8745   21.2513 H   0  0  0  0  0  0  0  0  0  0  0  0
   18.7143   19.2542   21.8736 C   0  0  0  0  0  0  0  0  0  0  0  0
   18.5524   18.9330   20.8370 H   0  0  0  0  0  0  0  0  0  0  0  0
   17.7627   19.6069   22.2862 H   0  0  0  0  0  0  0  0  0  0  0  0
   19.5000   18.2345   22.7522 C   0  0  0  0  0  0  0  0  0  0  0  0
   19.3914   18.4004   23.8329 H   0  0  0  0  0  0  0  0  0  0  0  0
   20.7835   18.8763   22.1442 C   0  0  0  0  0  0  0  0  0  0  0  0
   21.0759   18.4700   21.1680 H   0  0  0  0  0  0  0  0  0  0  0  0
   21.6630   18.8924   22.7970 H   0  0  0  0  0  0  0  0  0  0  0  0
   19.2948   16.8783   22.4312 O   0  0  0  0  0  0  0  0  0  0  0  0
   18.3898   16.6428   22.7290 H   0  0  0  0  0  0  0  0  0  0  0  0
  1  2  1  0  0  0  0
  1  3  1  0  0  0  0
  1  4  1  0  0  0  0
  4  5  1  0  0  0  0
  4  6  1  0  0  0  0
  4  7  1  0  0  0  0
  7  8  1  0  0  0  0
  1  9  1  0  0  0  0
  7  9  1  0  0  0  0
  9 10  1  0  0  0  0
  9 11  1  0  0  0  0
  7 12  1  0  0  0  0
 12 13  1  0  0  0  0
M  END
> <VConfSearch Rank>
97

> <Conf_Id>
19

> <Delta U+W>
-0.011

> <U+W>
-3.142

> <U>
-0.154

> <W>
-2.989

> <W(PB)>
-4.588

> <W(SA)>
1.599

> <Valence>
6.334

> <Coulomb>
-7.439

> <VdW>
0.951

> <VdW6>
-2.120

> <VdW12>
3.072

> <Bond>
0.065

> <Angle>
0.930

> <Pdih>
5.339

> <Idih>
0.000

> <Tether>
0.000

$$$$
VeraChem MOL file


 13 13  0  0  0  0  0  0  0  0999 V2000     
   19.9638   18.0297   21.6812 C   0  0  0  0  0  0  0  0  0  0  0  0
   19.7908   16.9520   21.5778 H   0  0  0  0  0  0  0  0  0  0  0  0
   20.6786   18.3460   20.9103 H   0  0  0  0  0  0  0  0  0  0  0  0
   20.2964   18.5384   23.1233 C   0  0  0  0  0  0  0  0  0  0  0  0
   19.8314   17.9577   23.9291 H   0  0  0  0  0  0  0  0  0  0  0  0
   21.3594   18.6695   23.3541 H   0  0  0  0  0  0  0  0  0  0  0  0
   19.5203   19.8374   22.7414 C   0  0  0  0  0  0  0  0  0  0  0  0
   18.9501   20.2877   23.5641 H   0  0  0  0  0  0  0  0  0  0  0  0
   18.6851   18.9252   21.7894 C   0  0  0  0  0  0  0  0  0  0  0  0
   18.3435   19.3893   20.8576 H   0  0  0  0  0  0  0  0  0  0  0  0
   17.8291   18.4377   22.2716 H   0  0  0  0  0  0  0  0  0  0  0  0
   20.2965   20.8251   22.0933 O   0  0  0  0  0  0  0  0  0  0  0  0
   19.6764   21.5037   21.7509 H   0  0  0  0  0  0  0  0  0  0  0  0
  1  2  1  0  0  0  0
  1  3  1  0  0  0  0
  1  4  1  0  0  0  0
  4  5  1  0  0  0  0
  4  6  1  0  0  0  0
  4  7  1  0  0  0  0
  7  8  1  0  0  0  0
  1  9  1  0  0  0  0
  7  9  1  0  0  0  0
  9 10  1  0  0  0  0
  9 11  1  0  0  0  0
  7 12  1  0  0  0  0
 12 13  1  0  0  0  0
M  END
> <VConfSearch Rank>
98

> <Conf_Id>
20

> <Delta U+W>
1.030

> <U+W>
-2.101

> <U>
0.841

> <W>
-2.942

> <W(PB)>
-4.530

> <W(SA)>
1.587

> <Valence>
6.736

> <Coulomb>
-7.246

> <VdW>
1.352

> <VdW6>
-2.500

> <VdW12>
3.851

> <Bond>
0.063

> <Angle>
0.687

> <Pdih>
5.986

> <Idih>
0.000

> <Tether>
0.000

$$$$
VeraChem MOL file


 13 13  0  0  0  0  0  0  0  0999 V2000     
   18.5166   18.6455   22.0259 C   0  0  0  0  0  0  0  0  0  0  0  0
   17.9881   18.1228   22.8340 H   0  0  0  0  0  0  0  0  0  0  0  0
   17.8214   18.7924   21.1907 H   0  0  0  0  0  0  0  0  0  0  0  0
   19.9126   18.0418   21.6598 C   0  0  0  0  0  0  0  0  0  0  0  0
   20.0143   16.9571   21.7758 H   0  0  0  0  0  0  0  0  0  0  0  0
   20.2888   18.3266   20.6694 H   0  0  0  0  0  0  0  0  0  0  0  0
   20.4573   18.9026   22.8394 C   0  0  0  0  0  0  0  0  0  0  0  0
   20.3383   18.4317   23.8247 H   0  0  0  0  0  0  0  0  0  0  0  0
   19.3216   19.9077   22.4801 C   0  0  0  0  0  0  0  0  0  0  0  0
   19.5656   20.6095   21.6731 H   0  0  0  0  0  0  0  0  0  0  0  0
   18.9013   20.4709   23.3206 H   0  0  0  0  0  0  0  0  0  0  0  0
   21.7684   19.3890   22.6777 O   0  0  0  0  0  0  0  0  0  0  0  0
   21.8142   19.7952   21.7868 H   0  0  0  0  0  0  0  0  0  0  0  0
  1  2  1  0  0  0  0
  1  3  1  0  0  0  0
  1  4  1  0  0  0  0
  4  5  1  0  0  0  0
  4  6  1  0  0  0  0
  4  7  1  0  0  0  0
  7  8  1  0  0  0  0
  1  9  1  0  0  0  0
  7  9  1  0  0  0  0
  9 10  1  0  0  0  0
  9 11  1  0  0  0  0
  7 12  1  0  0  0  0
 12 13  1  0  0  0  0
M  END
> <VConfSearch Rank>
99

> <Conf_Id>
24

> <Delta U+W>
0.356

> <U+W>
-2.775

> <U>
-0.184

> <W>
-2.591

> <W(PB)>
-4.184

> <W(SA)>
1.593

> <Valence>
6.840

> <Coulomb>
-7.916

> <VdW>
0.893

> <VdW6>
-2.167

> <VdW12>
3.060

> <Bond>
0.059

> <Angle>
0.918

> <Pdih>
5.862

> <Idih>
0.000

> <Tether>
0.000

$$$$
VeraChem MOL file


 13 13  0  0  0  0  0  0  0  0999 V2000     
   19.8924   19.5277   21.2522 C   0  0  0  0  0  0  0  0  0  0  0  0
   19.6656   19.6038   20.1820 H   0  0  0  0  0  0  0  0  0  0  0  0
   20.6106   20.3160   21.5111 H   0  0  0  0  0  0  0  0  0  0  0  0
   20.2664   18.0995   21.7724 C   0  0  0  0  0  0  0  0  0  0  0  0
   19.7882   17.2781   21.2251 H   0  0  0  0  0  0  0  0  0  0  0  0
   21.3368   17.8824   21.8607 H   0  0  0  0  0  0  0  0  0  0  0  0
   19.5388   18.4912   23.0957 C   0  0  0  0  0  0  0  0  0  0  0  0
   18.9964   17.6712   23.5834 H   0  0  0  0  0  0  0  0  0  0  0  0
   18.6570   19.4227   22.2076 C   0  0  0  0  0  0  0  0  0  0  0  0
   17.7841   18.9257   21.7670 H   0  0  0  0  0  0  0  0  0  0  0  0
   18.3265   20.3572   22.6746 H   0  0  0  0  0  0  0  0  0  0  0  0
   20.3461   19.1633   24.0382 O   0  0  0  0  0  0  0  0  0  0  0  0
   20.8028   19.8792   23.5501 H   0  0  0  0  0  0  0  0  0  0  0  0
  1  2  1  0  0  0  0
  1  3  1  0  0  0  0
  1  4  1  0  0  0  0
  4  5  1  0  0  0  0
  4  6  1  0  0  0  0
  4  7  1  0  0  0  0
  7  8  1  0  0  0  0
  1  9  1  0  0  0  0
  7  9  1  0  0  0  0
  9 10  1  0  0  0  0
  9 11  1  0  0  0  0
  7 12  1  0  0  0  0
 12 13  1  0  0  0  0
M  END
> <VConfSearch Rank>
100

> <Conf_Id>
44

> <Delta U+W>
0.823

> <U+W>
-2.308

> <U>
0.039

> <W>
-2.348

> <W(PB)>
-3.918

> <W(SA)>
1.571

> <Valence>
7.320

> <Coulomb>
-8.530

> <VdW>
1.249

> <VdW6>
-2.615

> <VdW12>
3.864

> <Bond>
0.056

> <Angle>
0.694

> <Pdih>
6.570

> <Idih>
0.000

> <Tether>
0.000

$$$$
VeraChem MOL file


 13 13  0  0  0  0  0  0  0  0999 V2000     
   20.5867   19.6812   21.5495 C   0  0  0  0  0  0  0  0  0  0  0  0
   20.3689   19.7205   20.4741 H   0  0  0  0  0  0  0  0  0  0  0  0
   21.5076   20.2447   21.7414 H   0  0  0  0  0  0  0  0  0  0  0  0
   20.5121   18.2516   22.1804 C   0  0  0  0  0  0  0  0  0  0  0  0
   20.8026   17.4198   21.5295 H   0  0  0  0  0  0  0  0  0  0  0  0
   21.0307   18.1454   23.1414 H   0  0  0  0  0  0  0  0  0  0  0  0
   18.9808   18.5163   22.2990 C   0  0  0  0  0  0  0  0  0  0  0  0
   18.4225   18.3072   21.3762 H   0  0  0  0  0  0  0  0  0  0  0  0
   19.3713   20.0148   22.4762 C   0  0  0  0  0  0  0  0  0  0  0  0
   18.6537   20.7450   22.0863 H   0  0  0  0  0  0  0  0  0  0  0  0
   19.6410   20.2974   23.5015 H   0  0  0  0  0  0  0  0  0  0  0  0
   18.3512   17.9221   23.4103 O   0  0  0  0  0  0  0  0  0  0  0  0
   17.4437   18.2920   23.4624 H   0  0  0  0  0  0  0  0  0  0  0  0
  1  2  1  0  0  0  0
  1  3  1  0  0  0  0
  1  4  1  0  0  0  0
  4  5  1  0  0  0  0
  4  6  1  0  0  0  0
  4  7  1  0  0  0  0
  7  8  1  0  0  0  0
  1  9  1  0  0  0  0
  7  9  1  0  0  0  0
  9 10  1  0  0  0  0
  9 11  1  0  0  0  0
  7 12  1  0  0  0  0
 12 13  1  0  0  0  0
M  END
> <VConfSearch Rank>
101

> <Conf_Id>
22

> <Delta U+W>
0.000

> <U+W>
-3.131

> <U>
-0.154

> <W>
-2.978

> <W(PB)>
-4.579

> <W(SA)>
1.601

> <Valence>
6.333

> <Coulomb>
-7.439

> <VdW>
0.952

> <VdW6>
-2.120

> <VdW12>
3.072

> <Bond>
0.065

> <Angle>
0.931

> <Pdih>
5.338

> <Idih>
0.000

> <Tether>
0.000

$$$$
VeraChem MOL file


 13 13  0  0  0  0  0  0  0  0999 V2000     
   19.1821   18.0878   23.1620 C   0  0  0  0  0  0  0  0  0  0  0  0
   18.1523   17.7524   22.9815 H   0  0  0  0  0  0  0  0  0  0  0  0
   19.5312   17.6547   24.1069 H   0  0  0  0  0  0  0  0  0  0  0  0
   19.4102   19.6254   22.9851 C   0  0  0  0  0  0  0  0  0  0  0  0
   20.3166   20.0124   23.4673 H   0  0  0  0  0  0  0  0  0  0  0  0
   18.5663   20.2717   23.2501 H   0  0  0  0  0  0  0  0  0  0  0  0
   19.5704   19.3039   21.4685 C   0  0  0  0  0  0  0  0  0  0  0  0
   18.6180   19.2227   20.9269 H   0  0  0  0  0  0  0  0  0  0  0  0
   20.1446   17.9334   21.9384 C   0  0  0  0  0  0  0  0  0  0  0  0
   21.2126   17.9498   22.1886 H   0  0  0  0  0  0  0  0  0  0  0  0
   19.9511   17.0833   21.2752 H   0  0  0  0  0  0  0  0  0  0  0  0
   20.4745   20.1279   20.7699 O   0  0  0  0  0  0  0  0  0  0  0  0
   20.0523   21.0090   20.6766 H   0  0  0  0  0  0  0  0  0  0  0  0
  1  2  1  0  0  0  0
  1  3  1  0  0  0  0
  1  4  1  0  0  0  0
  4  5  1  0  0  0  0
  4  6  1  0  0  0  0
  4  7  1  0  0  0  0
  7  8  1  0  0  0  0
  1  9  1  0  0  0  0
  7  9  1  0  0  0  0
  9 10  1  0  0  0  0
  9 11  1  0  0  0  0
  7 12  1  0  0  0  0
 12 13  1  0  0  0  0
M  END
> <VConfSearch Rank>
102

> <Conf_Id>
19

> <Delta U+W>
-0.011

> <U+W>
-3.142

> <U>
-0.154

> <W>
-2.989

> <W(PB)>
-4.588

> <W(SA)>
1.599

> <Valence>
6.334

> <Coulomb>
-7.439

> <VdW>
0.951

> <VdW6>
-2.120

> <VdW12>
3.072

> <Bond>
0.065

> <Angle>
0.930

> <Pdih>
5.339

> <Idih>
0.000

> <Tether>
0.000

$$$$
VeraChem MOL file


 13 13  0  0  0  0  0  0  0  0999 V2000     
   20.7893   18.7783   21.9588 C   0  0  0  0  0  0  0  0  0  0  0  0
   21.8222   18.6800   22.3127 H   0  0  0  0  0  0  0  0  0  0  0  0
   20.7442   18.4508   20.9119 H   0  0  0  0  0  0  0  0  0  0  0  0
   20.0926   20.1510   22.2405 C   0  0  0  0  0  0  0  0  0  0  0  0
   20.4301   20.6532   23.1552 H   0  0  0  0  0  0  0  0  0  0  0  0
   20.1054   20.8748   21.4181 H   0  0  0  0  0  0  0  0  0  0  0  0
   18.7710   19.3381   22.4077 C   0  0  0  0  0  0  0  0  0  0  0  0
   18.0887   19.7276   23.1744 H   0  0  0  0  0  0  0  0  0  0  0  0
   19.6841   18.1639   22.8806 C   0  0  0  0  0  0  0  0  0  0  0  0
   19.3446   17.1560   22.6173 H   0  0  0  0  0  0  0  0  0  0  0  0
   19.9229   18.1840   23.9508 H   0  0  0  0  0  0  0  0  0  0  0  0
   18.0639   19.0988   21.2074 O   0  0  0  0  0  0  0  0  0  0  0  0
   17.3627   18.4432   21.4088 H   0  0  0  0  0  0  0  0  0  0  0  0
  1  2  1  0  0  0  0
  1  3  1  0  0  0  0
  1  4  1  0  0  0  0
  4  5  1  0  0  0  0
  4  6  1  0  0  0  0
  4  7  1  0  0  0  0
  7  8  1  0  0  0  0
  1  9  1  0  0  0  0
  7  9  1  0  0  0  0
  9 10  1  0  0  0  0
  9 11  1  0  0  0  0
  7 12  1  0  0  0  0
 12 13  1  0  0  0  0
M  END
> <VConfSearch Rank>
103

> <Conf_Id>
20

> <Delta U+W>
1.030

> <U+W>
-2.101

> <U>
0.841

> <W>
-2.942

> <W(PB)>
-4.530

> <W(SA)>
1.587

> <Valence>
6.736

> <Coulomb>
-7.246

> <VdW>
1.352

> <VdW6>
-2.500

> <VdW12>
3.851

> <Bond>
0.063

> <Angle>
0.687

> <Pdih>
5.986

> <Idih>
0.000

> <Tether>
0.000

$$$$
VeraChem MOL file


 13 13  0  0  0  0  0  0  0  0999 V2000     
   19.6466   18.3656   23.3468 C   0  0  0  0  0  0  0  0  0  0  0  0
   19.5690   18.9910   24.2460 H   0  0  0  0  0  0  0  0  0  0  0  0
   19.6183   17.3121   23.6497 H   0  0  0  0  0  0  0  0  0  0  0  0
   20.7981   18.7684   22.3674 C   0  0  0  0  0  0  0  0  0  0  0  0
   21.6991   19.1872   22.8289 H   0  0  0  0  0  0  0  0  0  0  0  0
   21.0963   17.9814   21.6637 H   0  0  0  0  0  0  0  0  0  0  0  0
   19.7845   19.8063   21.7978 C   0  0  0  0  0  0  0  0  0  0  0  0
   19.7359   20.7411   22.3726 H   0  0  0  0  0  0  0  0  0  0  0  0
   18.6839   18.7720   22.1825 C   0  0  0  0  0  0  0  0  0  0  0  0
   18.5097   17.9859   21.4375 H   0  0  0  0  0  0  0  0  0  0  0  0
   17.7179   19.1941   22.4807 H   0  0  0  0  0  0  0  0  0  0  0  0
   19.9054   20.0766   20.4215 O   0  0  0  0  0  0  0  0  0  0  0  0
   19.9439   19.2111   19.9631 H   0  0  0  0  0  0  0  0  0  0  0  0
  1  2  1  0  0  0  0
  1  3  1  0  0  0  0
  1  4  1  0  0  0  0
  4  5  1  0  0  0  0
  4  6  1  0  0  0  0
  4  7  1  0  0  0  0
  7  8  1  0  0  0  0
  1  9  1  0  0  0  0
  7  9  1  0  0  0  0
  9 10  1  0  0  0  0
  9 11  1  0  0  0  0
  7 12  1  0  0  0  0
 12 13  1  0  0  0  0
M  END
> <VConfSearch Rank>
104

> <Conf_Id>
24

> <Delta U+W>
0.356

> <U+W>
-2.775

> <U>
-0.184

> <W>
-2.591

> <W(PB)>
-4.184

> <W(SA)>
1.593

> <Valence>
6.840

> <Coulomb>
-7.916

> <VdW>
0.893

> <VdW6>
-2.167

> <VdW12>
3.060

> <Bond>
0.059

> <Angle>
0.918

> <Pdih>
5.862

> <Idih>
0.000

> <Tether>
0.000

$$$$
VeraChem MOL file


 13 13  0  0  0  0  0  0  0  0999 V2000     
   20.1796   19.9432   21.9201 C   0  0  0  0  0  0  0  0  0  0  0  0
   21.0312   20.4185   21.4189 H   0  0  0  0  0  0  0  0  0  0  0  0
   19.5194   20.7313   22.3039 H   0  0  0  0  0  0  0  0  0  0  0  0
   20.5326   18.8198   22.9514 C   0  0  0  0  0  0  0  0  0  0  0  0
   21.4485   18.2628   22.7193 H   0  0  0  0  0  0  0  0  0  0  0  0
   20.5670   19.1234   24.0037 H   0  0  0  0  0  0  0  0  0  0  0  0
   19.2221   18.1108   22.4889 C   0  0  0  0  0  0  0  0  0  0  0  0
   19.2761   17.0150   22.4618 H   0  0  0  0  0  0  0  0  0  0  0  0
   19.4562   18.8122   21.1152 C   0  0  0  0  0  0  0  0  0  0  0  0
   20.1082   18.2534   20.4329 H   0  0  0  0  0  0  0  0  0  0  0  0
   18.5538   19.1092   20.5692 H   0  0  0  0  0  0  0  0  0  0  0  0
   18.0560   18.5195   23.1708 O   0  0  0  0  0  0  0  0  0  0  0  0
   18.0610   19.4989   23.1638 H   0  0  0  0  0  0  0  0  0  0  0  0
  1  2  1  0  0  0  0
  1  3  1  0  0  0  0
  1  4  1  0  0  0  0
  4  5  1  0  0  0  0
  4  6  1  0  0  0  0
  4  7  1  0  0  0  0
  7  8  1  0  0  0  0
  1  9  1  0  0  0  0
  7  9  1  0  0  0  0
  9 10  1  0  0  0  0
  9 11  1  0  0  0  0
  7 12  1  0  0  0  0
 12 13  1  0  0  0  0
M  END
> <VConfSearch Rank>
105

> <Conf_Id>
44

> <Delta U+W>
0.823

> <U+W>
-2.308

> <U>
0.039

> <W>
-2.348

> <W(PB)>
-3.918

> <W(SA)>
1.571

> <Valence>
7.320

> <Coulomb>
-8.530

> <VdW>
1.249

> <VdW6>
-2.615

> <VdW12>
3.864

> <Bond>
0.056

> <Angle>
0.694

> <Pdih>
6.570

> <Idih>
0.000

> <Tether>
0.000

$$$$
VeraChem MOL file


 13 13  0  0  0  0  0  0  0  0999 V2000     
   20.4615   19.8230   21.5399 C   0  0  0  0  0  0  0  0  0  0  0  0
   20.9863   19.2946   20.7330 H   0  0  0  0  0  0  0  0  0  0  0  0
   20.7200   20.8873   21.4880 H   0  0  0  0  0  0  0  0  0  0  0  0
   20.5847   19.1540   22.9486 C   0  0  0  0  0  0  0  0  0  0  0  0
   21.5241   18.6294   23.1545 H   0  0  0  0  0  0  0  0  0  0  0  0
   20.3578   19.8160   23.7935 H   0  0  0  0  0  0  0  0  0  0  0  0
   19.3940   18.2578   22.4928 C   0  0  0  0  0  0  0  0  0  0  0  0
   19.6970   17.3943   21.8848 H   0  0  0  0  0  0  0  0  0  0  0  0
   18.9371   19.4911   21.6565 C   0  0  0  0  0  0  0  0  0  0  0  0
   18.4193   19.2666   20.7176 H   0  0  0  0  0  0  0  0  0  0  0  0
   18.3492   20.2290   22.2165 H   0  0  0  0  0  0  0  0  0  0  0  0
   18.5107   17.8632   23.5168 O   0  0  0  0  0  0  0  0  0  0  0  0
   17.7310   17.4517   23.0856 H   0  0  0  0  0  0  0  0  0  0  0  0
  1  2  1  0  0  0  0
  1  3  1  0  0  0  0
  1  4  1  0  0  0  0
  4  5  1  0  0  0  0
  4  6  1  0  0  0  0
  4  7  1  0  0  0  0
  7  8  1  0  0  0  0
  1  9  1  0  0  0  0
  7  9  1  0  0  0  0
  9 10  1  0  0  0  0
  9 11  1  0  0  0  0
  7 12  1  0  0  0  0
 12 13  1  0  0  0  0
M  END
> <VConfSearch Rank>
106

> <Conf_Id>
22

> <Delta U+W>
0.000

> <U+W>
-3.131

> <U>
-0.154

> <W>
-2.978

> <W(PB)>
-4.579

> <W(SA)>
1.601

> <Valence>
6.333

> <Coulomb>
-7.439

> <VdW>
0.952

> <VdW6>
-2.120

> <VdW12>
3.072

> <Bond>
0.065

> <Angle>
0.931

> <Pdih>
5.338

> <Idih>
0.000

> <Tether>
0.000

$$$$
VeraChem MOL file


 13 13  0  0  0  0  0  0  0  0999 V2000     
   18.8620   18.5357   23.2461 C   0  0  0  0  0  0  0  0  0  0  0  0
   18.3056   17.6128   23.0355 H   0  0  0  0  0  0  0  0  0  0  0  0
   18.5700   18.9025   24.2373 H   0  0  0  0  0  0  0  0  0  0  0  0
   18.8427   19.5897   22.0903 C   0  0  0  0  0  0  0  0  0  0  0  0
   19.0995   20.6112   22.3976 H   0  0  0  0  0  0  0  0  0  0  0  0
   17.9317   19.6226   21.4827 H   0  0  0  0  0  0  0  0  0  0  0  0
   20.0298   18.7759   21.4922 C   0  0  0  0  0  0  0  0  0  0  0  0
   19.7195   17.8976   20.9095 H   0  0  0  0  0  0  0  0  0  0  0  0
   20.3996   18.4501   22.9707 C   0  0  0  0  0  0  0  0  0  0  0  0
   20.9996   19.2213   23.4696 H   0  0  0  0  0  0  0  0  0  0  0  0
   20.8678   17.4745   23.1407 H   0  0  0  0  0  0  0  0  0  0  0  0
   20.9845   19.5333   20.7855 O   0  0  0  0  0  0  0  0  0  0  0  0
   20.5696   19.8072   19.9393 H   0  0  0  0  0  0  0  0  0  0  0  0
  1  2  1  0  0  0  0
  1  3  1  0  0  0  0
  1  4  1  0  0  0  0
  4  5  1  0  0  0  0
  4  6  1  0  0  0  0
  4  7  1  0  0  0  0
  7  8  1  0  0  0  0
  1  9  1  0  0  0  0
  7  9  1  0  0  0  0
  9 10  1  0  0  0  0
  9 11  1  0  0  0  0
  7 12  1  0  0  0  0
 12 13  1  0  0  0  0
M  END
> <VConfSearch Rank>
107

> <Conf_Id>
19

> <Delta U+W>
-0.011

> <U+W>
-3.142

> <U>
-0.154

> <W>
-2.989

> <W(PB)>
-4.588

> <W(SA)>
1.599

> <Valence>
6.334

> <Coulomb>
-7.439

> <VdW>
0.951

> <VdW6>
-2.120

> <VdW12>
3.072

> <Bond>
0.065

> <Angle>
0.930

> <Pdih>
5.339

> <Idih>
0.000

> <Tether>
0.000

$$$$
VeraChem MOL file


 13 13  0  0  0  0  0  0  0  0999 V2000     
   19.1319   18.2006   21.5462 C   0  0  0  0  0  0  0  0  0  0  0  0
   18.3259   17.9871   20.8342 H   0  0  0  0  0  0  0  0  0  0  0  0
   19.7997   17.3304   21.5917 H   0  0  0  0  0  0  0  0  0  0  0  0
   18.6893   18.7534   22.9417 C   0  0  0  0  0  0  0  0  0  0  0  0
   17.7735   19.3565   22.9226 H   0  0  0  0  0  0  0  0  0  0  0  0
   18.6063   18.0155   23.7473 H   0  0  0  0  0  0  0  0  0  0  0  0
   20.0065   19.5902   22.9219 C   0  0  0  0  0  0  0  0  0  0  0  0
   19.9236   20.5841   23.3803 H   0  0  0  0  0  0  0  0  0  0  0  0
   19.8627   19.5727   21.3678 C   0  0  0  0  0  0  0  0  0  0  0  0
   20.7990   19.5480   20.7994 H   0  0  0  0  0  0  0  0  0  0  0  0
   19.2311   20.3746   20.9665 H   0  0  0  0  0  0  0  0  0  0  0  0
   21.1449   18.9193   23.4239 O   0  0  0  0  0  0  0  0  0  0  0  0
   21.9272   19.4674   23.2007 H   0  0  0  0  0  0  0  0  0  0  0  0
  1  2  1  0  0  0  0
  1  3  1  0  0  0  0
  1  4  1  0  0  0  0
  4  5  1  0  0  0  0
  4  6  1  0  0  0  0
  4  7  1  0  0  0  0
  7  8  1  0  0  0  0
  1  9  1  0  0  0  0
  7  9  1  0  0  0  0
  9 10  1  0  0  0  0
  9 11  1  0  0  0  0
  7 12  1  0  0  0  0
 12 13  1  0  0  0  0
M  END
> <VConfSearch Rank>
108

> <Conf_Id>
20

> <Delta U+W>
1.030

> <U+W>
-2.101

> <U>
0.841

> <W>
-2.942

> <W(PB)>
-4.530

> <W(SA)>
1.587

> <Valence>
6.736

> <Coulomb>
-7.246

> <VdW>
1.352

> <VdW6>
-2.500

> <VdW12>
3.851

> <Bond>
0.063

> <Angle>
0.687

> <Pdih>
5.986

> <Idih>
0.000

> <Tether>
0.000

$$$$
VeraChem MOL file


 13 13  0  0  0  0  0  0  0  0999 V2000     
   19.0982   18.1893   23.0112 C   0  0  0  0  0  0  0  0  0  0  0  0
   18.0633   17.9310   22.7507 H   0  0  0  0  0  0  0  0  0  0  0  0
   19.3531   17.7001   23.9589 H   0  0  0  0  0  0  0  0  0  0  0  0
   19.4367   19.7134   22.9118 C   0  0  0  0  0  0  0  0  0  0  0  0
   18.6192   20.4050   23.1436 H   0  0  0  0  0  0  0  0  0  0  0  0
   20.3280   20.0216   23.4721 H   0  0  0  0  0  0  0  0  0  0  0  0
   19.6789   19.4354   21.3974 C   0  0  0  0  0  0  0  0  0  0  0  0
   18.7619   19.4405   20.7927 H   0  0  0  0  0  0  0  0  0  0  0  0
   20.1290   18.0128   21.8477 C   0  0  0  0  0  0  0  0  0  0  0  0
   21.1750   17.9409   22.1701 H   0  0  0  0  0  0  0  0  0  0  0  0
   19.9229   17.2024   21.1398 H   0  0  0  0  0  0  0  0  0  0  0  0
   20.6769   20.2213   20.7907 O   0  0  0  0  0  0  0  0  0  0  0  0
   21.4656   20.1791   21.3712 H   0  0  0  0  0  0  0  0  0  0  0  0
  1  2  1  0  0  0  0
  1  3  1  0  0  0  0
  1  4  1  0  0  0  0
  4  5  1  0  0  0  0
  4  6  1  0  0  0  0
  4  7  1  0  0  0  0
  7  8  1  0  0  0  0
  1  9  1  0  0  0  0
  7  9  1  0  0  0  0
  9 10  1  0  0  0  0
  9 11  1  0  0  0  0
  7 12  1  0  0  0  0
 12 13  1  0  0  0  0
M  END
> <VConfSearch Rank>
109

> <Conf_Id>
24

> <Delta U+W>
0.356

> <U+W>
-2.775

> <U>
-0.184

> <W>
-2.591

> <W(PB)>
-4.184

> <W(SA)>
1.593

> <Valence>
6.840

> <Coulomb>
-7.916

> <VdW>
0.893

> <VdW6>
-2.167

> <VdW12>
3.060

> <Bond>
0.059

> <Angle>
0.918

> <Pdih>
5.862

> <Idih>
0.000

> <Tether>
0.000

$$$$
VeraChem MOL file


 13 13  0  0  0  0  0  0  0  0999 V2000     
   19.6115   17.8488   22.1804 C   0  0  0  0  0  0  0  0  0  0  0  0
   19.8561   16.9347   21.6264 H   0  0  0  0  0  0  0  0  0  0  0  0
   19.0564   17.5680   23.0845 H   0  0  0  0  0  0  0  0  0  0  0  0
   18.9664   19.0039   21.3439 C   0  0  0  0  0  0  0  0  0  0  0  0
   19.2817   19.0338   20.2938 H   0  0  0  0  0  0  0  0  0  0  0  0
   17.8736   19.0757   21.3815 H   0  0  0  0  0  0  0  0  0  0  0  0
   19.7465   19.9869   22.2708 C   0  0  0  0  0  0  0  0  0  0  0  0
   20.1177   20.8922   21.7737 H   0  0  0  0  0  0  0  0  0  0  0  0
   20.7970   18.8429   22.4179 C   0  0  0  0  0  0  0  0  0  0  0  0
   21.5611   18.8334   21.6311 H   0  0  0  0  0  0  0  0  0  0  0  0
   21.2976   18.7745   23.3902 H   0  0  0  0  0  0  0  0  0  0  0  0
   19.0767   20.3320   23.4642 O   0  0  0  0  0  0  0  0  0  0  0  0
   18.7696   19.4912   23.8616 H   0  0  0  0  0  0  0  0  0  0  0  0
  1  2  1  0  0  0  0
  1  3  1  0  0  0  0
  1  4  1  0  0  0  0
  4  5  1  0  0  0  0
  4  6  1  0  0  0  0
  4  7  1  0  0  0  0
  7  8  1  0  0  0  0
  1  9  1  0  0  0  0
  7  9  1  0  0  0  0
  9 10  1  0  0  0  0
  9 11  1  0  0  0  0
  7 12  1  0  0  0  0
 12 13  1  0  0  0  0
M  END
> <VConfSearch Rank>
110

> <Conf_Id>
44

> <Delta U+W>
0.823

> <U+W>
-2.308

> <U>
0.039

> <W>
-2.348

> <W(PB)>
-3.918

> <W(SA)>
1.571

> <Valence>
7.320

> <Coulomb>
-8.530

> <VdW>
1.249

> <VdW6>
-2.615

> <VdW12>
3.864

> <Bond>
0.056

> <Angle>
0.694

> <Pdih>
6.570

> <Idih>
0.000

> <Tether>
0.000

$$$$
VeraChem MOL file


 13 13  0  0  0  0  0  0  0  0999 V2000     
   18.9038   19.1382   21.1762 C   0  0  0  0  0  0  0  0  0  0  0  0
   19.0065   20.0967   20.6506 H   0  0  0  0  0  0  0  0  0  0  0  0
   18.2132   18.5009   20.6110 H   0  0  0  0  0  0  0  0  0  0  0  0
   18.6261   19.2599   22.7109 C   0  0  0  0  0  0  0  0  0  0  0  0
   18.0376   20.1274   23.0287 H   0  0  0  0  0  0  0  0  0  0  0  0
   18.2057   18.3591   23.1750 H   0  0  0  0  0  0  0  0  0  0  0  0
   20.1715   19.3995   22.8560 C   0  0  0  0  0  0  0  0  0  0  0  0
   20.5420   20.4195   22.6848 H   0  0  0  0  0  0  0  0  0  0  0  0
   20.2560   18.4771   21.6025 C   0  0  0  0  0  0  0  0  0  0  0  0
   21.1088   18.6515   20.9374 H   0  0  0  0  0  0  0  0  0  0  0  0
   20.1923   17.4038   21.8212 H   0  0  0  0  0  0  0  0  0  0  0  0
   20.7165   18.8612   24.0383 O   0  0  0  0  0  0  0  0  0  0  0  0
   21.6926   18.8632   23.9356 H   0  0  0  0  0  0  0  0  0  0  0  0
  1  2  1  0  0  0  0
  1  3  1  0  0  0  0
  1  4  1  0  0  0  0
  4  5  1  0  0  0  0
  4  6  1  0  0  0  0
  4  7  1  0  0  0  0
  7  8  1  0  0  0  0
  1  9  1  0  0  0  0
  7  9  1  0  0  0  0
  9 10  1  0  0  0  0
  9 11  1  0  0  0  0
  7 12  1  0  0  0  0
 12 13  1  0  0  0  0
M  END
> <VConfSearch Rank>
111

> <Conf_Id>
22

> <Delta U+W>
0.000

> <U+W>
-3.131

> <U>
-0.154

> <W>
-2.978

> <W(PB)>
-4.579

> <W(SA)>
1.601

> <Valence>
6.333

> <Coulomb>
-7.439

> <VdW>
0.952

> <VdW6>
-2.120

> <VdW12>
3.072

> <Bond>
0.065

> <Angle>
0.931

> <Pdih>
5.338

> <Idih>
0.000

> <Tether>
0.000

$$$$
VeraChem MOL file


 13 13  0  0  0  0  0  0  0  0999 V2000     
   20.8426   19.1600   21.7827 C   0  0  0  0  0  0  0  0  0  0  0  0
   21.3061   20.0601   22.2075 H   0  0  0  0  0  0  0  0  0  0  0  0
   21.5241   18.7336   21.0370 H   0  0  0  0  0  0  0  0  0  0  0  0
   19.3557   19.3403   21.3310 C   0  0  0  0  0  0  0  0  0  0  0  0
   18.9957   18.5806   20.6260 H   0  0  0  0  0  0  0  0  0  0  0  0
   19.0841   20.3312   20.9507 H   0  0  0  0  0  0  0  0  0  0  0  0
   18.9965   19.0622   22.8219 C   0  0  0  0  0  0  0  0  0  0  0  0
   19.0721   19.9454   23.4710 H   0  0  0  0  0  0  0  0  0  0  0  0
   20.2669   18.1597   22.8388 C   0  0  0  0  0  0  0  0  0  0  0  0
   20.1053   17.1405   22.4663 H   0  0  0  0  0  0  0  0  0  0  0  0
   20.7999   18.1053   23.7942 H   0  0  0  0  0  0  0  0  0  0  0  0
   17.7769   18.3894   23.0326 O   0  0  0  0  0  0  0  0  0  0  0  0
   17.0561   19.0262   22.8374 H   0  0  0  0  0  0  0  0  0  0  0  0
  1  2  1  0  0  0  0
  1  3  1  0  0  0  0
  1  4  1  0  0  0  0
  4  5  1  0  0  0  0
  4  6  1  0  0  0  0
  4  7  1  0  0  0  0
  7  8  1  0  0  0  0
  1  9  1  0  0  0  0
  7  9  1  0  0  0  0
  9 10  1  0  0  0  0
  9 11  1  0  0  0  0
  7 12  1  0  0  0  0
 12 13  1  0  0  0  0
M  END
> <VConfSearch Rank>
112

> <Conf_Id>
19

> <Delta U+W>
-0.011

> <U+W>
-3.142

> <U>
-0.154

> <W>
-2.989

> <W(PB)>
-4.588

> <W(SA)>
1.599

> <Valence>
6.334

> <Coulomb>
-7.439

> <VdW>
0.951

> <VdW6>
-2.120

> <VdW12>
3.072

> <Bond>
0.065

> <Angle>
0.930

> <Pdih>
5.339

> <Idih>
0.000

> <Tether>
0.000

$$$$
VeraChem MOL file


 13 13  0  0  0  0  0  0  0  0999 V2000     
   18.9550   19.5904   23.1582 C   0  0  0  0  0  0  0  0  0  0  0  0
   18.0010   20.0810   23.3846 H   0  0  0  0  0  0  0  0  0  0  0  0
   19.5217   19.4771   24.0916 H   0  0  0  0  0  0  0  0  0  0  0  0
   19.7748   20.1942   21.9698 C   0  0  0  0  0  0  0  0  0  0  0  0
   19.1638   20.6419   21.1767 H   0  0  0  0  0  0  0  0  0  0  0  0
   20.5679   20.8995   22.2417 H   0  0  0  0  0  0  0  0  0  0  0  0
   20.2386   18.7341   21.6724 C   0  0  0  0  0  0  0  0  0  0  0  0
   20.3604   18.5013   20.6067 H   0  0  0  0  0  0  0  0  0  0  0  0
   18.8726   18.2938   22.2859 C   0  0  0  0  0  0  0  0  0  0  0  0
   18.8761   17.3451   22.8339 H   0  0  0  0  0  0  0  0  0  0  0  0
   18.0422   18.2808   21.5695 H   0  0  0  0  0  0  0  0  0  0  0  0
   21.3800   18.3142   22.3929 O   0  0  0  0  0  0  0  0  0  0  0  0
   21.4677   17.3463   22.2601 H   0  0  0  0  0  0  0  0  0  0  0  0
  1  2  1  0  0  0  0
  1  3  1  0  0  0  0
  1  4  1  0  0  0  0
  4  5  1  0  0  0  0
  4  6  1  0  0  0  0
  4  7  1  0  0  0  0
  7  8  1  0  0  0  0
  1  9  1  0  0  0  0
  7  9  1  0  0  0  0
  9 10  1  0  0  0  0
  9 11  1  0  0  0  0
  7 12  1  0  0  0  0
 12 13  1  0  0  0  0
M  END
> <VConfSearch Rank>
113

> <Conf_Id>
20

> <Delta U+W>
1.030

> <U+W>
-2.101

> <U>
0.841

> <W>
-2.942

> <W(PB)>
-4.530

> <W(SA)>
1.587

> <Valence>
6.736

> <Coulomb>
-7.246

> <VdW>
1.352

> <VdW6>
-2.500

> <VdW12>
3.851

> <Bond>
0.063

> <Angle>
0.687

> <Pdih>
5.986

> <Idih>
0.000

> <Tether>
0.000

$$$$
VeraChem MOL file


 13 13  0  0  0  0  0  0  0  0999 V2000     
   18.7287   19.6161   22.6207 C   0  0  0  0  0  0  0  0  0  0  0  0
   17.8712   19.0535   23.0131 H   0  0  0  0  0  0  0  0  0  0  0  0
   18.4985   20.6869   22.6735 H   0  0  0  0  0  0  0  0  0  0  0  0
   19.2791   19.0982   21.2510 C   0  0  0  0  0  0  0  0  0  0  0  0
   18.5403   18.6677   20.5662 H   0  0  0  0  0  0  0  0  0  0  0  0
   19.8895   19.8238   20.6994 H   0  0  0  0  0  0  0  0  0  0  0  0
   20.0891   18.0748   22.1030 C   0  0  0  0  0  0  0  0  0  0  0  0
   19.5161   17.1818   22.3875 H   0  0  0  0  0  0  0  0  0  0  0  0
   20.1158   19.1821   23.1996 C   0  0  0  0  0  0  0  0  0  0  0  0
   20.9131   19.9265   23.0835 H   0  0  0  0  0  0  0  0  0  0  0  0
   20.1157   18.8257   24.2356 H   0  0  0  0  0  0  0  0  0  0  0  0
   21.3446   17.7121   21.5796 O   0  0  0  0  0  0  0  0  0  0  0  0
   21.8071   18.5439   21.3452 H   0  0  0  0  0  0  0  0  0  0  0  0
  1  2  1  0  0  0  0
  1  3  1  0  0  0  0
  1  4  1  0  0  0  0
  4  5  1  0  0  0  0
  4  6  1  0  0  0  0
  4  7  1  0  0  0  0
  7  8  1  0  0  0  0
  1  9  1  0  0  0  0
  7  9  1  0  0  0  0
  9 10  1  0  0  0  0
  9 11  1  0  0  0  0
  7 12  1  0  0  0  0
 12 13  1  0  0  0  0
M  END
> <VConfSearch Rank>
114

> <Conf_Id>
24

> <Delta U+W>
0.356

> <U+W>
-2.775

> <U>
-0.184

> <W>
-2.591

> <W(PB)>
-4.184

> <W(SA)>
1.593

> <Valence>
6.840

> <Coulomb>
-7.916

> <VdW>
0.893

> <VdW6>
-2.167

> <VdW12>
3.060

> <Bond>
0.059

> <Angle>
0.918

> <Pdih>
5.862

> <Idih>
0.000

> <Tether>
0.000

$$$$
VeraChem MOL file


 13 13  0  0  0  0  0  0  0  0999 V2000     
   19.3612   19.6296   21.3598 C   0  0  0  0  0  0  0  0  0  0  0  0
   19.6285   20.4634   20.6997 H   0  0  0  0  0  0  0  0  0  0  0  0
   18.3544   19.2846   21.0920 H   0  0  0  0  0  0  0  0  0  0  0  0
   19.5905   19.8675   22.8898 C   0  0  0  0  0  0  0  0  0  0  0  0
   20.4217   20.5438   23.1239 H   0  0  0  0  0  0  0  0  0  0  0  0
   18.7134   20.1812   23.4668 H   0  0  0  0  0  0  0  0  0  0  0  0
   19.9580   18.3538   22.9766 C   0  0  0  0  0  0  0  0  0  0  0  0
   20.7534   18.1132   23.6936 H   0  0  0  0  0  0  0  0  0  0  0  0
   20.4311   18.4953   21.4967 C   0  0  0  0  0  0  0  0  0  0  0  0
   21.4684   18.8352   21.3892 H   0  0  0  0  0  0  0  0  0  0  0  0
   20.2857   17.6146   20.8612 H   0  0  0  0  0  0  0  0  0  0  0  0
   18.8596   17.4882   23.1663 O   0  0  0  0  0  0  0  0  0  0  0  0
   18.1860   17.7477   22.5043 H   0  0  0  0  0  0  0  0  0  0  0  0
  1  2  1  0  0  0  0
  1  3  1  0  0  0  0
  1  4  1  0  0  0  0
  4  5  1  0  0  0  0
  4  6  1  0  0  0  0
  4  7  1  0  0  0  0
  7  8  1  0  0  0  0
  1  9  1  0  0  0  0
  7  9  1  0  0  0  0
  9 10  1  0  0  0  0
  9 11  1  0  0  0  0
  7 12  1  0  0  0  0
 12 13  1  0  0  0  0
M  END
> <VConfSearch Rank>
115

> <Conf_Id>
44

> <Delta U+W>
0.823

> <U+W>
-2.308

> <U>
0.039

> <W>
-2.348

> <W(PB)>
-3.918

> <W(SA)>
1.571

> <Valence>
7.320

> <Coulomb>
-8.530

> <VdW>
1.249

> <VdW6>
-2.615

> <VdW12>
3.864

> <Bond>
0.056

> <Angle>
0.694

> <Pdih>
6.570

> <Idih>
0.000

> <Tether>
0.000

$$$$
VeraChem MOL file


 13 13  0  0  0  0  0  0  0  0999 V2000     
   19.8598   18.0605   23.1080 C   0  0  0  0  0  0  0  0  0  0  0  0
   20.7144   18.2268   23.7770 H   0  0  0  0  0  0  0  0  0  0  0  0
   19.3703   17.1212   23.3916 H   0  0  0  0  0  0  0  0  0  0  0  0
   20.1758   18.2382   21.5862 C   0  0  0  0  0  0  0  0  0  0  0  0
   21.1865   17.9621   21.2666 H   0  0  0  0  0  0  0  0  0  0  0  0
   19.4511   17.7701   20.9084 H   0  0  0  0  0  0  0  0  0  0  0  0
   19.9360   19.7573   21.8382 C   0  0  0  0  0  0  0  0  0  0  0  0
   20.8128   20.2833   22.2404 H   0  0  0  0  0  0  0  0  0  0  0  0
   18.9197   19.2977   22.9269 C   0  0  0  0  0  0  0  0  0  0  0  0
   18.8186   19.9577   23.7954 H   0  0  0  0  0  0  0  0  0  0  0  0
   17.9188   19.0606   22.5450 H   0  0  0  0  0  0  0  0  0  0  0  0
   19.3799   20.4670   20.7558 O   0  0  0  0  0  0  0  0  0  0  0  0
   19.1291   21.3555   21.0889 H   0  0  0  0  0  0  0  0  0  0  0  0
  1  2  1  0  0  0  0
  1  3  1  0  0  0  0
  1  4  1  0  0  0  0
  4  5  1  0  0  0  0
  4  6  1  0  0  0  0
  4  7  1  0  0  0  0
  7  8  1  0  0  0  0
  1  9  1  0  0  0  0
  7  9  1  0  0  0  0
  9 10  1  0  0  0  0
  9 11  1  0  0  0  0
  7 12  1  0  0  0  0
 12 13  1  0  0  0  0
M  END
> <VConfSearch Rank>
116

> <Conf_Id>
22

> <Delta U+W>
0.000

> <U+W>
-3.131

> <U>
-0.154

> <W>
-2.978

> <W(PB)>
-4.579

> <W(SA)>
1.601

> <Valence>
6.333

> <Coulomb>
-7.439

> <VdW>
0.952

> <VdW6>
-2.120

> <VdW12>
3.072

> <Bond>
0.065

> <Angle>
0.931

> <Pdih>
5.338

> <Idih>
0.000

> <Tether>
0.000

$$$$
VeraChem MOL file


 13 13  0  0  0  0  0  0  0  0999 V2000     
   19.6858   20.2289   22.4453 C   0  0  0  0  0  0  0  0  0  0  0  0
   19.5656   20.8171   21.5260 H   0  0  0  0  0  0  0  0  0  0  0  0
   19.8739   20.9161   23.2788 H   0  0  0  0  0  0  0  0  0  0  0  0
   20.6640   19.0143   22.3221 C   0  0  0  0  0  0  0  0  0  0  0  0
   21.0406   18.6305   23.2785 H   0  0  0  0  0  0  0  0  0  0  0  0
   21.5087   19.1430   21.6365 H   0  0  0  0  0  0  0  0  0  0  0  0
   19.4372   18.2403   21.7519 C   0  0  0  0  0  0  0  0  0  0  0  0
   19.2614   18.4102   20.6807 H   0  0  0  0  0  0  0  0  0  0  0  0
   18.5782   19.1497   22.6813 C   0  0  0  0  0  0  0  0  0  0  0  0
   18.4961   18.7937   23.7158 H   0  0  0  0  0  0  0  0  0  0  0  0
   17.5764   19.3962   22.3130 H   0  0  0  0  0  0  0  0  0  0  0  0
   19.3993   16.8646   22.0530 O   0  0  0  0  0  0  0  0  0  0  0  0
   20.0948   16.4298   21.5140 H   0  0  0  0  0  0  0  0  0  0  0  0
  1  2  1  0  0  0  0
  1  3  1  0  0  0  0
  1  4  1  0  0  0  0
  4  5  1  0  0  0  0
  4  6  1  0  0  0  0
  4  7  1  0  0  0  0
  7  8  1  0  0  0  0
  1  9  1  0  0  0  0
  7  9  1  0  0  0  0
  9 10  1  0  0  0  0
  9 11  1  0  0  0  0
  7 12  1  0  0  0  0
 12 13  1  0  0  0  0
M  END
> <VConfSearch Rank>
117

> <Conf_Id>
19

> <Delta U+W>
-0.011

> <U+W>
-3.142

> <U>
-0.154

> <W>
-2.989

> <W(PB)>
-4.588

> <W(SA)>
1.599

> <Valence>
6.334

> <Coulomb>
-7.439

> <VdW>
0.951

> <VdW6>
-2.120

> <VdW12>
3.072

> <Bond>
0.065

> <Angle>
0.930

> <Pdih>
5.339

> <Idih>
0.000

> <Tether>
0.000

$$$$
VeraChem MOL file


 13 13  0  0  0  0  0  0  0  0999 V2000     
   19.2747   19.2335   21.1153 C   0  0  0  0  0  0  0  0  0  0  0  0
   18.6649   19.8525   20.4468 H   0  0  0  0  0  0  0  0  0  0  0  0
   19.8414   18.5151   20.5088 H   0  0  0  0  0  0  0  0  0  0  0  0
   18.5314   18.6053   22.3407 C   0  0  0  0  0  0  0  0  0  0  0  0
   17.6990   19.2069   22.7253 H   0  0  0  0  0  0  0  0  0  0  0  0
   18.1894   17.5717   22.2179 H   0  0  0  0  0  0  0  0  0  0  0  0
   19.8683   18.7883   23.1247 C   0  0  0  0  0  0  0  0  0  0  0  0
   19.7451   19.0488   24.1839 H   0  0  0  0  0  0  0  0  0  0  0  0
   20.1274   20.0023   22.1786 C   0  0  0  0  0  0  0  0  0  0  0  0
   21.1737   20.1883   21.9120 H   0  0  0  0  0  0  0  0  0  0  0  0
   19.6818   20.9433   22.5235 H   0  0  0  0  0  0  0  0  0  0  0  0
   20.7863   17.7215   22.9925 O   0  0  0  0  0  0  0  0  0  0  0  0
   21.6384   18.0223   23.3740 H   0  0  0  0  0  0  0  0  0  0  0  0
  1  2  1  0  0  0  0
  1  3  1  0  0  0  0
  1  4  1  0  0  0  0
  4  5  1  0  0  0  0
  4  6  1  0  0  0  0
  4  7  1  0  0  0  0
  7  8  1  0  0  0  0
  1  9  1  0  0  0  0
  7  9  1  0  0  0  0
  9 10  1  0  0  0  0
  9 11  1  0  0  0  0
  7 12  1  0  0  0  0
 12 13  1  0  0  0  0
M  END
> <VConfSearch Rank>
118

> <Conf_Id>
20

> <Delta U+W>
1.030

> <U+W>
-2.101

> <U>
0.841

> <W>
-2.942

> <W(PB)>
-4.530

> <W(SA)>
1.587

> <Valence>
6.736

> <Coulomb>
-7.246

> <VdW>
1.352

> <VdW6>
-2.500

> <VdW12>
3.851

> <Bond>
0.063

> <Angle>
0.687

> <Pdih>
5.986

> <Idih>
0.000

> <Tether>
0.000

$$$$
VeraChem MOL file


 13 13  0  0  0  0  0  0  0  0999 V2000     
   20.6785   19.8105   22.4123 C   0  0  0  0  0  0  0  0  0  0  0  0
   20.9491   20.0445   23.4504 H   0  0  0  0  0  0  0  0  0  0  0  0
   21.3115   20.4053   21.7430 H   0  0  0  0  0  0  0  0  0  0  0  0
   19.1431   19.8417   22.1138 C   0  0  0  0  0  0  0  0  0  0  0  0
   18.5548   20.5653   22.6889 H   0  0  0  0  0  0  0  0  0  0  0  0
   18.8854   19.9429   21.0523 H   0  0  0  0  0  0  0  0  0  0  0  0
   19.1329   18.3797   22.6536 C   0  0  0  0  0  0  0  0  0  0  0  0
   19.0766   18.3109   23.7485 H   0  0  0  0  0  0  0  0  0  0  0  0
   20.5827   18.2827   22.0899 C   0  0  0  0  0  0  0  0  0  0  0  0
   20.6468   18.0353   21.0231 H   0  0  0  0  0  0  0  0  0  0  0  0
   21.2658   17.6293   22.6438 H   0  0  0  0  0  0  0  0  0  0  0  0
   18.1925   17.5206   22.0541 O   0  0  0  0  0  0  0  0  0  0  0  0
   18.2889   17.6244   21.0842 H   0  0  0  0  0  0  0  0  0  0  0  0
  1  2  1  0  0  0  0
  1  3  1  0  0  0  0
  1  4  1  0  0  0  0
  4  5  1  0  0  0  0
  4  6  1  0  0  0  0
  4  7  1  0  0  0  0
  7  8  1  0  0  0  0
  1  9  1  0  0  0  0
  7  9  1  0  0  0  0
  9 10  1  0  0  0  0
  9 11  1  0  0  0  0
  7 12  1  0  0  0  0
 12 13  1  0  0  0  0
M  END
> <VConfSearch Rank>
119

> <Conf_Id>
24

> <Delta U+W>
0.356

> <U+W>
-2.775

> <U>
-0.184

> <W>
-2.591

> <W(PB)>
-4.184

> <W(SA)>
1.593

> <Valence>
6.840

> <Coulomb>
-7.916

> <VdW>
0.893

> <VdW6>
-2.167

> <VdW12>
3.060

> <Bond>
0.059

> <Angle>
0.918

> <Pdih>
5.862

> <Idih>
0.000

> <Tether>
0.000

$$$$
VeraChem MOL file


 13 13  0  0  0  0  0  0  0  0999 V2000     
   19.8698   20.0559   21.9706 C   0  0  0  0  0  0  0  0  0  0  0  0
   20.0191   21.0625   22.3790 H   0  0  0  0  0  0  0  0  0  0  0  0
   19.9049   20.1175   20.8755 H   0  0  0  0  0  0  0  0  0  0  0  0
   18.6530   19.2574   22.5465 C   0  0  0  0  0  0  0  0  0  0  0  0
   18.4029   19.4999   23.5865 H   0  0  0  0  0  0  0  0  0  0  0  0
   17.7328   19.2836   21.9520 H   0  0  0  0  0  0  0  0  0  0  0  0
   19.5329   17.9792   22.3851 C   0  0  0  0  0  0  0  0  0  0  0  0
   19.3956   17.2233   23.1688 H   0  0  0  0  0  0  0  0  0  0  0  0
   20.7549   18.9260   22.5952 C   0  0  0  0  0  0  0  0  0  0  0  0
   21.0202   19.0873   23.6472 H   0  0  0  0  0  0  0  0  0  0  0  0
   21.6644   18.6638   22.0431 H   0  0  0  0  0  0  0  0  0  0  0  0
   19.4667   17.3723   21.1127 O   0  0  0  0  0  0  0  0  0  0  0  0
   19.5948   18.0891   20.4577 H   0  0  0  0  0  0  0  0  0  0  0  0
  1  2  1  0  0  0  0
  1  3  1  0  0  0  0
  1  4  1  0  0  0  0
  4  5  1  0  0  0  0
  4  6  1  0  0  0  0
  4  7  1  0  0  0  0
  7  8  1  0  0  0  0
  1  9  1  0  0  0  0
  7  9  1  0  0  0  0
  9 10  1  0  0  0  0
  9 11  1  0  0  0  0
  7 12  1  0  0  0  0
 12 13  1  0  0  0  0
M  END
> <VConfSearch Rank>
120

> <Conf_Id>
44

> <Delta U+W>
0.823

> <U+W>
-2.308

> <U>
0.039

> <W>
-2.348

> <W(PB)>
-3.918

> <W(SA)>
1.571

> <Valence>
7.320

> <Coulomb>
-8.530

> <VdW>
1.249

> <VdW6>
-2.615

> <VdW12>
3.864

> <Bond>
0.056

> <Angle>
0.694

> <Pdih>
6.570

> <Idih>
0.000

> <Tether>
0.000

$$$$
VeraChem MOL file


 13 13  0  0  0  0  0  0  0  0999 V2000     
   18.8432   18.9878   21.2190 C   0  0  0  0  0  0  0  0  0  0  0  0
   19.3569   18.9027   20.2524 H   0  0  0  0  0  0  0  0  0  0  0  0
   17.7612   18.9501   21.0453 H   0  0  0  0  0  0  0  0  0  0  0  0
   19.3525   20.1528   22.1304 C   0  0  0  0  0  0  0  0  0  0  0  0
   19.7055   21.0520   21.6140 H   0  0  0  0  0  0  0  0  0  0  0  0
   18.6580   20.4520   22.9253 H   0  0  0  0  0  0  0  0  0  0  0  0
   20.4590   19.1528   22.5827 C   0  0  0  0  0  0  0  0  0  0  0  0
   21.3181   19.1043   21.8996 H   0  0  0  0  0  0  0  0  0  0  0  0
   19.3928   18.0426   22.3379 C   0  0  0  0  0  0  0  0  0  0  0  0
   19.7797   17.0737   22.0036 H   0  0  0  0  0  0  0  0  0  0  0  0
   18.7053   17.8779   23.1770 H   0  0  0  0  0  0  0  0  0  0  0  0
   20.8882   19.2926   23.9171 O   0  0  0  0  0  0  0  0  0  0  0  0
   21.4525   18.5166   24.1238 H   0  0  0  0  0  0  0  0  0  0  0  0
  1  2  1  0  0  0  0
  1  3  1  0  0  0  0
  1  4  1  0  0  0  0
  4  5  1  0  0  0  0
  4  6  1  0  0  0  0
  4  7  1  0  0  0  0
  7  8  1  0  0  0  0
  1  9  1  0  0  0  0
  7  9  1  0  0  0  0
  9 10  1  0  0  0  0
  9 11  1  0  0  0  0
  7 12  1  0  0  0  0
 12 13  1  0  0  0  0
M  END
> <VConfSearch Rank>
121

> <Conf_Id>
22

> <Delta U+W>
0.000

> <U+W>
-3.131

> <U>
-0.154

> <W>
-2.978

> <W(PB)>
-4.579

> <W(SA)>
1.601

> <Valence>
6.333

> <Coulomb>
-7.439

> <VdW>
0.952

> <VdW6>
-2.120

> <VdW12>
3.072

> <Bond>
0.065

> <Angle>
0.931

> <Pdih>
5.338

> <Idih>
0.000

> <Tether>
0.000

$$$$
VeraChem MOL file


 13 13  0  0  0  0  0  0  0  0999 V2000     
   20.3646   19.6746   23.0459 C   0  0  0  0  0  0  0  0  0  0  0  0
   20.7350   19.1373   23.9289 H   0  0  0  0  0  0  0  0  0  0  0  0
   20.6815   20.7220   23.1146 H   0  0  0  0  0  0  0  0  0  0  0  0
   18.8537   19.4339   22.7193 C   0  0  0  0  0  0  0  0  0  0  0  0
   18.3997   20.1910   22.0677 H   0  0  0  0  0  0  0  0  0  0  0  0
   18.1951   19.2674   23.5787 H   0  0  0  0  0  0  0  0  0  0  0  0
   19.3433   18.1524   21.9795 C   0  0  0  0  0  0  0  0  0  0  0  0
   19.5010   17.2889   22.6402 H   0  0  0  0  0  0  0  0  0  0  0  0
   20.6419   18.9610   21.6817 C   0  0  0  0  0  0  0  0  0  0  0  0
   20.5797   19.6123   20.8011 H   0  0  0  0  0  0  0  0  0  0  0  0
   21.5650   18.3743   21.6216 H   0  0  0  0  0  0  0  0  0  0  0  0
   18.5897   17.7850   20.8474 O   0  0  0  0  0  0  0  0  0  0  0  0
   17.7319   17.4342   21.1705 H   0  0  0  0  0  0  0  0  0  0  0  0
  1  2  1  0  0  0  0
  1  3  1  0  0  0  0
  1  4  1  0  0  0  0
  4  5  1  0  0  0  0
  4  6  1  0  0  0  0
  4  7  1  0  0  0  0
  7  8  1  0  0  0  0
  1  9  1  0  0  0  0
  7  9  1  0  0  0  0
  9 10  1  0  0  0  0
  9 11  1  0  0  0  0
  7 12  1  0  0  0  0
 12 13  1  0  0  0  0
M  END
> <VConfSearch Rank>
122

> <Conf_Id>
19

> <Delta U+W>
-0.011

> <U+W>
-3.142

> <U>
-0.154

> <W>
-2.989

> <W(PB)>
-4.588

> <W(SA)>
1.599

> <Valence>
6.334

> <Coulomb>
-7.439

> <VdW>
0.951

> <VdW6>
-2.120

> <VdW12>
3.072

> <Bond>
0.065

> <Angle>
0.930

> <Pdih>
5.339

> <Idih>
0.000

> <Tether>
0.000

$$$$
VeraChem MOL file


 13 13  0  0  0  0  0  0  0  0999 V2000     
   18.6962   18.7842   23.0342 C   0  0  0  0  0  0  0  0  0  0  0  0
   17.8153   19.1812   23.5522 H   0  0  0  0  0  0  0  0  0  0  0  0
   18.7446   17.7006   23.2038 H   0  0  0  0  0  0  0  0  0  0  0  0
   20.0423   19.5417   23.2859 C   0  0  0  0  0  0  0  0  0  0  0  0
   19.9312   20.6160   23.4761 H   0  0  0  0  0  0  0  0  0  0  0  0
   20.6979   19.1158   24.0535 H   0  0  0  0  0  0  0  0  0  0  0  0
   20.4072   19.1880   21.8103 C   0  0  0  0  0  0  0  0  0  0  0  0
   20.9813   19.9612   21.2835 H   0  0  0  0  0  0  0  0  0  0  0  0
   18.8702   19.2172   21.5406 C   0  0  0  0  0  0  0  0  0  0  0  0
   18.5012   18.5101   20.7894 H   0  0  0  0  0  0  0  0  0  0  0  0
   18.4742   20.2132   21.3077 H   0  0  0  0  0  0  0  0  0  0  0  0
   21.0205   17.9265   21.6352 O   0  0  0  0  0  0  0  0  0  0  0  0
   21.0398   17.7440   20.6717 H   0  0  0  0  0  0  0  0  0  0  0  0
  1  2  1  0  0  0  0
  1  3  1  0  0  0  0
  1  4  1  0  0  0  0
  4  5  1  0  0  0  0
  4  6  1  0  0  0  0
  4  7  1  0  0  0  0
  7  8  1  0  0  0  0
  1  9  1  0  0  0  0
  7  9  1  0  0  0  0
  9 10  1  0  0  0  0
  9 11  1  0  0  0  0
  7 12  1  0  0  0  0
 12 13  1  0  0  0  0
M  END
> <VConfSearch Rank>
123

> <Conf_Id>
20

> <Delta U+W>
1.030

> <U+W>
-2.101

> <U>
0.841

> <W>
-2.942

> <W(PB)>
-4.530

> <W(SA)>
1.587

> <Valence>
6.736

> <Coulomb>
-7.246

> <VdW>
1.352

> <VdW6>
-2.500

> <VdW12>
3.851

> <Bond>
0.063

> <Angle>
0.687

> <Pdih>
5.986

> <Idih>
0.000

> <Tether>
0.000

$$$$
VeraChem MOL file


 13 13  0  0  0  0  0  0  0  0999 V2000     
   20.5185   19.8850   21.7889 C   0  0  0  0  0  0  0  0  0  0  0  0
   20.4199   20.8809   22.2408 H   0  0  0  0  0  0  0  0  0  0  0  0
   21.3081   19.9222   21.0289 H   0  0  0  0  0  0  0  0  0  0  0  0
   19.1681   19.2315   21.3454 C   0  0  0  0  0  0  0  0  0  0  0  0
   18.3894   19.9205   21.0003 H   0  0  0  0  0  0  0  0  0  0  0  0
   19.2707   18.4211   20.6132 H   0  0  0  0  0  0  0  0  0  0  0  0
   19.0495   18.7637   22.8274 C   0  0  0  0  0  0  0  0  0  0  0  0
   18.6382   19.5266   23.5024 H   0  0  0  0  0  0  0  0  0  0  0  0
   20.6070   18.7072   22.8147 C   0  0  0  0  0  0  0  0  0  0  0  0
   21.0312   17.7797   22.4108 H   0  0  0  0  0  0  0  0  0  0  0  0
   21.0990   18.9332   23.7671 H   0  0  0  0  0  0  0  0  0  0  0  0
   18.4014   17.5291   23.0215 O   0  0  0  0  0  0  0  0  0  0  0  0
   18.8075   16.8924   22.3967 H   0  0  0  0  0  0  0  0  0  0  0  0
  1  2  1  0  0  0  0
  1  3  1  0  0  0  0
  1  4  1  0  0  0  0
  4  5  1  0  0  0  0
  4  6  1  0  0  0  0
  4  7  1  0  0  0  0
  7  8  1  0  0  0  0
  1  9  1  0  0  0  0
  7  9  1  0  0  0  0
  9 10  1  0  0  0  0
  9 11  1  0  0  0  0
  7 12  1  0  0  0  0
 12 13  1  0  0  0  0
M  END
> <VConfSearch Rank>
124

> <Conf_Id>
24

> <Delta U+W>
0.356

> <U+W>
-2.775

> <U>
-0.184

> <W>
-2.591

> <W(PB)>
-4.184

> <W(SA)>
1.593

> <Valence>
6.840

> <Coulomb>
-7.916

> <VdW>
0.893

> <VdW6>
-2.167

> <VdW12>
3.060

> <Bond>
0.059

> <Angle>
0.918

> <Pdih>
5.862

> <Idih>
0.000

> <Tether>
0.000

$$$$
VeraChem MOL file


 13 13  0  0  0  0  0  0  0  0999 V2000     
   18.8985   18.1949   22.0286 C   0  0  0  0  0  0  0  0  0  0  0  0
   17.8851   17.8583   22.2779 H   0  0  0  0  0  0  0  0  0  0  0  0
   19.3279   17.4930   21.3025 H   0  0  0  0  0  0  0  0  0  0  0  0
   19.8250   18.5341   23.2437 C   0  0  0  0  0  0  0  0  0  0  0  0
   19.2946   18.9092   24.1274 H   0  0  0  0  0  0  0  0  0  0  0  0
   20.5146   17.7438   23.5611 H   0  0  0  0  0  0  0  0  0  0  0  0
   20.4377   19.6536   22.3463 C   0  0  0  0  0  0  0  0  0  0  0  0
   20.7202   20.5695   22.8809 H   0  0  0  0  0  0  0  0  0  0  0  0
   19.0434   19.7063   21.6484 C   0  0  0  0  0  0  0  0  0  0  0  0
   18.3213   20.3689   22.1409 H   0  0  0  0  0  0  0  0  0  0  0  0
   19.0525   19.9364   20.5771 H   0  0  0  0  0  0  0  0  0  0  0  0
   21.4989   19.2324   21.5168 O   0  0  0  0  0  0  0  0  0  0  0  0
   21.1922   18.4175   21.0684 H   0  0  0  0  0  0  0  0  0  0  0  0
  1  2  1  0  0  0  0
  1  3  1  0  0  0  0
  1  4  1  0  0  0  0
  4  5  1  0  0  0  0
  4  6  1  0  0  0  0
  4  7  1  0  0  0  0
  7  8  1  0  0  0  0
  1  9  1  0  0  0  0
  7  9  1  0  0  0  0
  9 10  1  0  0  0  0
  9 11  1  0  0  0  0
  7 12  1  0  0  0  0
 12 13  1  0  0  0  0
M  END
> <VConfSearch Rank>
125

> <Conf_Id>
44

> <Delta U+W>
0.823

> <U+W>
-2.308

> <U>
0.039

> <W>
-2.348

> <W(PB)>
-3.918

> <W(SA)>
1.571

> <Valence>
7.320

> <Coulomb>
-8.530

> <VdW>
1.249

> <VdW6>
-2.615

> <VdW12>
3.864

> <Bond>
0.056

> <Angle>
0.694

> <Pdih>
6.570

> <Idih>
0.000

> <Tether>
0.000

$$$$
VeraChem MOL file


 13 13  0  0  0  0  0  0  0  0999 V2000     
   20.5086   18.9677   21.2346 C   0  0  0  0  0  0  0  0  0  0  0  0
   21.0386   18.0079   21.1772 H   0  0  0  0  0  0  0  0  0  0  0  0
   20.8050   19.5836   20.3772 H   0  0  0  0  0  0  0  0  0  0  0  0
   20.5668   19.6648   22.6339 C   0  0  0  0  0  0  0  0  0  0  0  0
   21.4810   19.5055   23.2159 H   0  0  0  0  0  0  0  0  0  0  0  0
   20.3377   20.7376   22.6230 H   0  0  0  0  0  0  0  0  0  0  0  0
   19.3600   18.7508   23.0041 C   0  0  0  0  0  0  0  0  0  0  0  0
   19.6511   17.7404   23.3227 H   0  0  0  0  0  0  0  0  0  0  0  0
   18.9709   18.8517   21.4982 C   0  0  0  0  0  0  0  0  0  0  0  0
   18.4738   17.9729   21.0731 H   0  0  0  0  0  0  0  0  0  0  0  0
   18.3923   19.7462   21.2358 H   0  0  0  0  0  0  0  0  0  0  0  0
   18.4336   19.3119   23.9049 O   0  0  0  0  0  0  0  0  0  0  0  0
   17.6534   18.7169   23.9276 H   0  0  0  0  0  0  0  0  0  0  0  0
  1  2  1  0  0  0  0
  1  3  1  0  0  0  0
  1  4  1  0  0  0  0
  4  5  1  0  0  0  0
  4  6  1  0  0  0  0
  4  7  1  0  0  0  0
  7  8  1  0  0  0  0
  1  9  1  0  0  0  0
  7  9  1  0  0  0  0
  9 10  1  0  0  0  0
  9 11  1  0  0  0  0
  7 12  1  0  0  0  0
 12 13  1  0  0  0  0
M  END
> <VConfSearch Rank>
126

> <Conf_Id>
22

> <Delta U+W>
0.000

> <U+W>
-3.131

> <U>
-0.154

> <W>
-2.978

> <W(PB)>
-4.579

> <W(SA)>
1.601

> <Valence>
6.333

> <Coulomb>
-7.439

> <VdW>
0.952

> <VdW6>
-2.120

> <VdW12>
3.072

> <Bond>
0.065

> <Angle>
0.931

> <Pdih>
5.338

> <Idih>
0.000

> <Tether>
0.000

$$$$
VeraChem MOL file


 13 13  0  0  0  0  0  0  0  0999 V2000     
   20.2752   19.1475   23.3751 C   0  0  0  0  0  0  0  0  0  0  0  0
   21.2711   18.6862   23.4066 H   0  0  0  0  0  0  0  0  0  0  0  0
   20.0820   19.6303   24.3405 H   0  0  0  0  0  0  0  0  0  0  0  0
   19.1400   18.2181   22.8322 C   0  0  0  0  0  0  0  0  0  0  0  0
   18.1232   18.5346   23.0964 H   0  0  0  0  0  0  0  0  0  0  0  0
   19.2451   17.1499   23.0516 H   0  0  0  0  0  0  0  0  0  0  0  0
   19.6123   18.6714   21.4177 C   0  0  0  0  0  0  0  0  0  0  0  0
   20.4739   18.1083   21.0337 H   0  0  0  0  0  0  0  0  0  0  0  0
   19.9965   20.0166   22.1045 C   0  0  0  0  0  0  0  0  0  0  0  0
   19.1674   20.7277   22.2066 H   0  0  0  0  0  0  0  0  0  0  0  0
   20.8591   20.5399   21.6777 H   0  0  0  0  0  0  0  0  0  0  0  0
   18.5985   18.7605   20.4437 O   0  0  0  0  0  0  0  0  0  0  0  0
   18.3378   17.8435   20.2107 H   0  0  0  0  0  0  0  0  0  0  0  0
  1  2  1  0  0  0  0
  1  3  1  0  0  0  0
  1  4  1  0  0  0  0
  4  5  1  0  0  0  0
  4  6  1  0  0  0  0
  4  7  1  0  0  0  0
  7  8  1  0  0  0  0
  1  9  1  0  0  0  0
  7  9  1  0  0  0  0
  9 10  1  0  0  0  0
  9 11  1  0  0  0  0
  7 12  1  0  0  0  0
 12 13  1  0  0  0  0
M  END
> <VConfSearch Rank>
127

> <Conf_Id>
19

> <Delta U+W>
-0.011

> <U+W>
-3.142

> <U>
-0.154

> <W>
-2.989

> <W(PB)>
-4.588

> <W(SA)>
1.599

> <Valence>
6.334

> <Coulomb>
-7.439

> <VdW>
0.951

> <VdW6>
-2.120

> <VdW12>
3.072

> <Bond>
0.065

> <Angle>
0.930

> <Pdih>
5.339

> <Idih>
0.000

> <Tether>
0.000

$$$$
VeraChem MOL file


 13 13  0  0  0  0  0  0  0  0999 V2000     
   20.4280   19.8561   22.7711 C   0  0  0  0  0  0  0  0  0  0  0  0
   20.9475   20.1622   23.6868 H   0  0  0  0  0  0  0  0  0  0  0  0
   20.7962   20.4681   21.9374 H   0  0  0  0  0  0  0  0  0  0  0  0
   18.8691   19.7561   22.8645 C   0  0  0  0  0  0  0  0  0  0  0  0
   18.4897   19.4744   23.8542 H   0  0  0  0  0  0  0  0  0  0  0  0
   18.3089   20.6282   22.5096 H   0  0  0  0  0  0  0  0  0  0  0  0
   18.9802   18.5669   21.8600 C   0  0  0  0  0  0  0  0  0  0  0  0
   18.2556   17.7593   22.0258 H   0  0  0  0  0  0  0  0  0  0  0  0
   20.3899   18.3187   22.4822 C   0  0  0  0  0  0  0  0  0  0  0  0
   21.1566   17.9394   21.7976 H   0  0  0  0  0  0  0  0  0  0  0  0
   20.3797   17.6883   23.3797 H   0  0  0  0  0  0  0  0  0  0  0  0
   18.9863   18.9389   20.4963 O   0  0  0  0  0  0  0  0  0  0  0  0
   19.2339   18.1431   19.9790 H   0  0  0  0  0  0  0  0  0  0  0  0
  1  2  1  0  0  0  0
  1  3  1  0  0  0  0
  1  4  1  0  0  0  0
  4  5  1  0  0  0  0
  4  6  1  0  0  0  0
  4  7  1  0  0  0  0
  7  8  1  0  0  0  0
  1  9  1  0  0  0  0
  7  9  1  0  0  0  0
  9 10  1  0  0  0  0
  9 11  1  0  0  0  0
  7 12  1  0  0  0  0
 12 13  1  0  0  0  0
M  END
> <VConfSearch Rank>
128

> <Conf_Id>
20

> <Delta U+W>
1.030

> <U+W>
-2.101

> <U>
0.841

> <W>
-2.942

> <W(PB)>
-4.530

> <W(SA)>
1.587

> <Valence>
6.736

> <Coulomb>
-7.246

> <VdW>
1.352

> <VdW6>
-2.500

> <VdW12>
3.851

> <Bond>
0.063

> <Angle>
0.687

> <Pdih>
5.986

> <Idih>
0.000

> <Tether>
0.000

$$$$
VeraChem MOL file


 13 13  0  0  0  0  0  0  0  0999 V2000     
   18.6562   18.4352   21.7821 C   0  0  0  0  0  0  0  0  0  0  0  0
   17.7086   18.8799   22.1137 H   0  0  0  0  0  0  0  0  0  0  0  0
   18.4335   17.5942   21.1146 H   0  0  0  0  0  0  0  0  0  0  0  0
   19.6814   18.1498   22.9288 C   0  0  0  0  0  0  0  0  0  0  0  0
   19.2545   17.8800   23.9010 H   0  0  0  0  0  0  0  0  0  0  0  0
   20.4626   17.4232   22.6736 H   0  0  0  0  0  0  0  0  0  0  0  0
   20.0964   19.6429   22.7627 C   0  0  0  0  0  0  0  0  0  0  0  0
   19.4497   20.3465   23.3044 H   0  0  0  0  0  0  0  0  0  0  0  0
   19.7146   19.4634   21.2623 C   0  0  0  0  0  0  0  0  0  0  0  0
   20.5032   19.0304   20.6347 H   0  0  0  0  0  0  0  0  0  0  0  0
   19.3170   20.3538   20.7629 H   0  0  0  0  0  0  0  0  0  0  0  0
   21.4531   19.9244   23.0116 O   0  0  0  0  0  0  0  0  0  0  0  0
   21.9779   19.2692   22.5056 H   0  0  0  0  0  0  0  0  0  0  0  0
  1  2  1  0  0  0  0
  1  3  1  0  0  0  0
  1  4  1  0  0  0  0
  4  5  1  0  0  0  0
  4  6  1  0  0  0  0
  4  7  1  0  0  0  0
  7  8  1  0  0  0  0
  1  9  1  0  0  0  0
  7  9  1  0  0  0  0
  9 10  1  0  0  0  0
  9 11  1  0  0  0  0
  7 12  1  0  0  0  0
 12 13  1  0  0  0  0
M  END
> <VConfSearch Rank>
129

> <Conf_Id>
24

> <Delta U+W>
0.356

> <U+W>
-2.775

> <U>
-0.184

> <W>
-2.591

> <W(PB)>
-4.184

> <W(SA)>
1.593

> <Valence>
6.840

> <Coulomb>
-7.916

> <VdW>
0.893

> <VdW6>
-2.167

> <VdW12>
3.060

> <Bond>
0.059

> <Angle>
0.918

> <Pdih>
5.862

> <Idih>
0.000

> <Tether>
0.000

$$$$
VeraChem MOL file


 13 13  0  0  0  0  0  0  0  0999 V2000     
   19.2126   19.9426   22.5096 C   0  0  0  0  0  0  0  0  0  0  0  0
   19.2429   21.0353   22.4227 H   0  0  0  0  0  0  0  0  0  0  0  0
   18.3677   19.6696   23.1545 H   0  0  0  0  0  0  0  0  0  0  0  0
   20.5678   19.2471   22.8702 C   0  0  0  0  0  0  0  0  0  0  0  0
   21.4583   19.7712   22.5022 H   0  0  0  0  0  0  0  0  0  0  0  0
   20.7195   19.0033   23.9276 H   0  0  0  0  0  0  0  0  0  0  0  0
   20.1004   18.0699   21.9593 C   0  0  0  0  0  0  0  0  0  0  0  0
   20.9020   17.5804   21.3916 H   0  0  0  0  0  0  0  0  0  0  0  0
   19.2984   19.1466   21.1646 C   0  0  0  0  0  0  0  0  0  0  0  0
   19.8777   19.6461   20.3784 H   0  0  0  0  0  0  0  0  0  0  0  0
   18.3452   18.8153   20.7375 H   0  0  0  0  0  0  0  0  0  0  0  0
   19.3064   17.0997   22.6074 O   0  0  0  0  0  0  0  0  0  0  0  0
   18.6130   17.5908   23.0945 H   0  0  0  0  0  0  0  0  0  0  0  0
  1  2  1  0  0  0  0
  1  3  1  0  0  0  0
  1  4  1  0  0  0  0
  4  5  1  0  0  0  0
  4  6  1  0  0  0  0
  4  7  1  0  0  0  0
  7  8  1  0  0  0  0
  1  9  1  0  0  0  0
  7  9  1  0  0  0  0
  9 10  1  0  0  0  0
  9 11  1  0  0  0  0
  7 12  1  0  0  0  0
 12 13  1  0  0  0  0
M  END
> <VConfSearch Rank>
130

> <Conf_Id>
44

> <Delta U+W>
0.823

> <U+W>
-2.308

> <U>
0.039

> <W>
-2.348

> <W(PB)>
-3.918

> <W(SA)>
1.571

> <Valence>
7.320

> <Coulomb>
-8.530

> <VdW>
1.249

> <VdW6>
-2.615

> <VdW12>
3.864

> <Bond>
0.056

> <Angle>
0.694

> <Pdih>
6.570

> <Idih>
0.000

> <Tether>
0.000

$$$$
VeraChem MOL file


 13 13  0  0  0  0  0  0  0  0999 V2000     
   19.0671   18.6532   23.3571 C   0  0  0  0  0  0  0  0  0  0  0  0
   18.0565   19.0660   23.4751 H   0  0  0  0  0  0  0  0  0  0  0  0
   19.2694   17.9767   24.1960 H   0  0  0  0  0  0  0  0  0  0  0  0
   20.1749   19.7133   23.0468 C   0  0  0  0  0  0  0  0  0  0  0  0
   20.0339   20.7045   23.4913 H   0  0  0  0  0  0  0  0  0  0  0  0
   21.2003   19.3791   23.2476 H   0  0  0  0  0  0  0  0  0  0  0  0
   19.7276   19.5672   21.5610 C   0  0  0  0  0  0  0  0  0  0  0  0
   18.8522   20.1776   21.3000 H   0  0  0  0  0  0  0  0  0  0  0  0
   19.3830   18.0929   21.9311 C   0  0  0  0  0  0  0  0  0  0  0  0
   18.5403   17.6488   21.3899 H   0  0  0  0  0  0  0  0  0  0  0  0
   20.2338   17.4015   21.8887 H   0  0  0  0  0  0  0  0  0  0  0  0
   20.7507   19.7255   20.6057 O   0  0  0  0  0  0  0  0  0  0  0  0
   20.3830   19.4517   19.7379 H   0  0  0  0  0  0  0  0  0  0  0  0
  1  2  1  0  0  0  0
  1  3  1  0  0  0  0
  1  4  1  0  0  0  0
  4  5  1  0  0  0  0
  4  6  1  0  0  0  0
  4  7  1  0  0  0  0
  7  8  1  0  0  0  0
  1  9  1  0  0  0  0
  7  9  1  0  0  0  0
  9 10  1  0  0  0  0
  9 11  1  0  0  0  0
  7 12  1  0  0  0  0
 12 13  1  0  0  0  0
M  END
> <VConfSearch Rank>
131

> <Conf_Id>
22

> <Delta U+W>
0.000

> <U+W>
-3.131

> <U>
-0.154

> <W>
-2.978

> <W(PB)>
-4.579

> <W(SA)>
1.601

> <Valence>
6.333

> <Coulomb>
-7.439

> <VdW>
0.952

> <VdW6>
-2.120

> <VdW12>
3.072

> <Bond>
0.065

> <Angle>
0.931

> <Pdih>
5.338

> <Idih>
0.000

> <Tether>
0.000

$$$$
VeraChem MOL file


 13 13  0  0  0  0  0  0  0  0999 V2000     
   18.4541   19.5221   22.1796 C   0  0  0  0  0  0  0  0  0  0  0  0
   18.4132   20.4694   22.7332 H   0  0  0  0  0  0  0  0  0  0  0  0
   17.4611   19.3169   21.7622 H   0  0  0  0  0  0  0  0  0  0  0  0
   19.1326   18.3421   22.9506 C   0  0  0  0  0  0  0  0  0  0  0  0
   18.8931   17.3439   22.5632 H   0  0  0  0  0  0  0  0  0  0  0  0
   19.0026   18.3388   24.0384 H   0  0  0  0  0  0  0  0  0  0  0  0
   20.4765   18.9341   22.4283 C   0  0  0  0  0  0  0  0  0  0  0  0
   20.8646   19.7630   23.0360 H   0  0  0  0  0  0  0  0  0  0  0  0
   19.6562   19.3961   21.1863 C   0  0  0  0  0  0  0  0  0  0  0  0
   19.5339   18.6291   20.4115 H   0  0  0  0  0  0  0  0  0  0  0  0
   19.9917   20.3251   20.7127 H   0  0  0  0  0  0  0  0  0  0  0  0
   21.4887   17.9905   22.1645 O   0  0  0  0  0  0  0  0  0  0  0  0
   21.8138   17.6632   23.0307 H   0  0  0  0  0  0  0  0  0  0  0  0
  1  2  1  0  0  0  0
  1  3  1  0  0  0  0
  1  4  1  0  0  0  0
  4  5  1  0  0  0  0
  4  6  1  0  0  0  0
  4  7  1  0  0  0  0
  7  8  1  0  0  0  0
  1  9  1  0  0  0  0
  7  9  1  0  0  0  0
  9 10  1  0  0  0  0
  9 11  1  0  0  0  0
  7 12  1  0  0  0  0
 12 13  1  0  0  0  0
M  END
> <VConfSearch Rank>
132

> <Conf_Id>
19

> <Delta U+W>
-0.011

> <U+W>
-3.142

> <U>
-0.154

> <W>
-2.989

> <W(PB)>
-4.588

> <W(SA)>
1.599

> <Valence>
6.334

> <Coulomb>
-7.439

> <VdW>
0.951

> <VdW6>
-2.120

> <VdW12>
3.072

> <Bond>
0.065

> <Angle>
0.930

> <Pdih>
5.339

> <Idih>
0.000

> <Tether>
0.000

$$$$
VeraChem MOL file


 13 13  0  0  0  0  0  0  0  0999 V2000     
   18.7472   19.8417   22.6168 C   0  0  0  0  0  0  0  0  0  0  0  0
   18.1124   20.1821   23.4433 H   0  0  0  0  0  0  0  0  0  0  0  0
   18.5720   20.4911   21.7491 H   0  0  0  0  0  0  0  0  0  0  0  0
   18.7035   18.3097   22.3009 C   0  0  0  0  0  0  0  0  0  0  0  0
   18.5135   17.6707   23.1717 H   0  0  0  0  0  0  0  0  0  0  0  0
   18.0335   18.0046   21.4895 H   0  0  0  0  0  0  0  0  0  0  0  0
   20.2115   18.4414   21.9214 C   0  0  0  0  0  0  0  0  0  0  0  0
   20.8262   17.5701   22.1817 H   0  0  0  0  0  0  0  0  0  0  0  0
   20.2560   19.6065   22.9591 C   0  0  0  0  0  0  0  0  0  0  0  0
   20.9362   20.4326   22.7243 H   0  0  0  0  0  0  0  0  0  0  0  0
   20.4422   19.2823   23.9902 H   0  0  0  0  0  0  0  0  0  0  0  0
   20.4568   18.8241   20.5829 O   0  0  0  0  0  0  0  0  0  0  0  0
   21.4105   19.0428   20.5132 H   0  0  0  0  0  0  0  0  0  0  0  0
  1  2  1  0  0  0  0
  1  3  1  0  0  0  0
  1  4  1  0  0  0  0
  4  5  1  0  0  0  0
  4  6  1  0  0  0  0
  4  7  1  0  0  0  0
  7  8  1  0  0  0  0
  1  9  1  0  0  0  0
  7  9  1  0  0  0  0
  9 10  1  0  0  0  0
  9 11  1  0  0  0  0
  7 12  1  0  0  0  0
 12 13  1  0  0  0  0
M  END
> <VConfSearch Rank>
133

> <Conf_Id>
20

> <Delta U+W>
1.030

> <U+W>
-2.101

> <U>
0.841

> <W>
-2.942

> <W(PB)>
-4.530

> <W(SA)>
1.587

> <Valence>
6.736

> <Coulomb>
-7.246

> <VdW>
1.352

> <VdW6>
-2.500

> <VdW12>
3.851

> <Bond>
0.063

> <Angle>
0.687

> <Pdih>
5.986

> <Idih>
0.000

> <Tether>
0.000

$$$$
VeraChem MOL file


 13 13  0  0  0  0  0  0  0  0999 V2000     
   19.1552   18.4564   21.1895 C   0  0  0  0  0  0  0  0  0  0  0  0
   19.1820   19.0261   20.2513 H   0  0  0  0  0  0  0  0  0  0  0  0
   18.5899   17.5319   21.0215 H   0  0  0  0  0  0  0  0  0  0  0  0
   18.7500   19.2902   22.4496 C   0  0  0  0  0  0  0  0  0  0  0  0
   18.0414   20.1081   22.2791 H   0  0  0  0  0  0  0  0  0  0  0  0
   18.3998   18.6927   23.3004 H   0  0  0  0  0  0  0  0  0  0  0  0
   20.2529   19.6986   22.5109 C   0  0  0  0  0  0  0  0  0  0  0  0
   20.5131   20.5353   21.8484 H   0  0  0  0  0  0  0  0  0  0  0  0
   20.5413   18.2954   21.8968 C   0  0  0  0  0  0  0  0  0  0  0  0
   20.5914   17.4756   22.6239 H   0  0  0  0  0  0  0  0  0  0  0  0
   21.4146   18.2348   21.2380 H   0  0  0  0  0  0  0  0  0  0  0  0
   20.7695   19.9105   23.8032 O   0  0  0  0  0  0  0  0  0  0  0  0
   20.5075   19.1372   24.3455 H   0  0  0  0  0  0  0  0  0  0  0  0
  1  2  1  0  0  0  0
  1  3  1  0  0  0  0
  1  4  1  0  0  0  0
  4  5  1  0  0  0  0
  4  6  1  0  0  0  0
  4  7  1  0  0  0  0
  7  8  1  0  0  0  0
  1  9  1  0  0  0  0
  7  9  1  0  0  0  0
  9 10  1  0  0  0  0
  9 11  1  0  0  0  0
  7 12  1  0  0  0  0
 12 13  1  0  0  0  0
M  END
> <VConfSearch Rank>
134

> <Conf_Id>
24

> <Delta U+W>
0.356

> <U+W>
-2.775

> <U>
-0.184

> <W>
-2.591

> <W(PB)>
-4.184

> <W(SA)>
1.593

> <Valence>
6.840

> <Coulomb>
-7.916

> <VdW>
0.893

> <VdW6>
-2.167

> <VdW12>
3.060

> <Bond>
0.059

> <Angle>
0.918

> <Pdih>
5.862

> <Idih>
0.000

> <Tether>
0.000

$$$$
VeraChem MOL file


 13 13  0  0  0  0  0  0  0  0999 V2000     
   19.5899   17.8513   22.2586 C   0  0  0  0  0  0  0  0  0  0  0  0
   19.8641   16.8933   21.8009 H   0  0  0  0  0  0  0  0  0  0  0  0
   18.9487   17.6499   23.1261 H   0  0  0  0  0  0  0  0  0  0  0  0
   19.0492   18.9471   21.2803 C   0  0  0  0  0  0  0  0  0  0  0  0
   19.4596   18.8905   20.2647 H   0  0  0  0  0  0  0  0  0  0  0  0
   17.9594   19.0377   21.2109 H   0  0  0  0  0  0  0  0  0  0  0  0
   19.7628   19.9877   22.1979 C   0  0  0  0  0  0  0  0  0  0  0  0
   20.1975   20.8460   21.6697 H   0  0  0  0  0  0  0  0  0  0  0  0
   20.7703   18.8433   22.5283 C   0  0  0  0  0  0  0  0  0  0  0  0
   21.6026   18.7612   21.8187 H   0  0  0  0  0  0  0  0  0  0  0  0
   21.1785   18.8435   23.5452 H   0  0  0  0  0  0  0  0  0  0  0  0
   18.9947   20.4346   23.2942 O   0  0  0  0  0  0  0  0  0  0  0  0
   18.6343   19.6319   23.7245 H   0  0  0  0  0  0  0  0  0  0  0  0
  1  2  1  0  0  0  0
  1  3  1  0  0  0  0
  1  4  1  0  0  0  0
  4  5  1  0  0  0  0
  4  6  1  0  0  0  0
  4  7  1  0  0  0  0
  7  8  1  0  0  0  0
  1  9  1  0  0  0  0
  7  9  1  0  0  0  0
  9 10  1  0  0  0  0
  9 11  1  0  0  0  0
  7 12  1  0  0  0  0
 12 13  1  0  0  0  0
M  END
> <VConfSearch Rank>
135

> <Conf_Id>
44

> <Delta U+W>
0.823

> <U+W>
-2.308

> <U>
0.039

> <W>
-2.348

> <W(PB)>
-3.918

> <W(SA)>
1.571

> <Valence>
7.320

> <Coulomb>
-8.530

> <VdW>
1.249

> <VdW6>
-2.615

> <VdW12>
3.864

> <Bond>
0.056

> <Angle>
0.694

> <Pdih>
6.570

> <Idih>
0.000

> <Tether>
0.000

$$$$
VeraChem MOL file


 13 13  0  0  0  0  0  0  0  0999 V2000     
   18.3767   19.1033   21.9790 C   0  0  0  0  0  0  0  0  0  0  0  0
   17.9990   18.2182   21.4504 H   0  0  0  0  0  0  0  0  0  0  0  0
   17.5354   19.7773   22.1795 H   0  0  0  0  0  0  0  0  0  0  0  0
   19.6436   19.7584   21.3360 C   0  0  0  0  0  0  0  0  0  0  0  0
   19.7201   19.6947   20.2451 H   0  0  0  0  0  0  0  0  0  0  0  0
   19.8313   20.7948   21.6431 H   0  0  0  0  0  0  0  0  0  0  0  0
   20.4513   18.6919   22.1354 C   0  0  0  0  0  0  0  0  0  0  0  0
   20.5116   17.7155   21.6351 H   0  0  0  0  0  0  0  0  0  0  0  0
   19.3115   18.7909   23.1938 C   0  0  0  0  0  0  0  0  0  0  0  0
   19.0920   17.8713   23.7473 H   0  0  0  0  0  0  0  0  0  0  0  0
   19.4241   19.6153   23.9091 H   0  0  0  0  0  0  0  0  0  0  0  0
   21.7227   19.1065   22.5781 O   0  0  0  0  0  0  0  0  0  0  0  0
   22.0535   18.4197   23.1963 H   0  0  0  0  0  0  0  0  0  0  0  0
  1  2  1  0  0  0  0
  1  3  1  0  0  0  0
  1  4  1  0  0  0  0
  4  5  1  0  0  0  0
  4  6  1  0  0  0  0
  4  7  1  0  0  0  0
  7  8  1  0  0  0  0
  1  9  1  0  0  0  0
  7  9  1  0  0  0  0
  9 10  1  0  0  0  0
  9 11  1  0  0  0  0
  7 12  1  0  0  0  0
 12 13  1  0  0  0  0
M  END
> <VConfSearch Rank>
136

> <Conf_Id>
22

> <Delta U+W>
0.000

> <U+W>
-3.131

> <U>
-0.154

> <W>
-2.978

> <W(PB)>
-4.579

> <W(SA)>
1.601

> <Valence>
6.333

> <Coulomb>
-7.439

> <VdW>
0.952

> <VdW6>
-2.120

> <VdW12>
3.072

> <Bond>
0.065

> <Angle>
0.931

> <Pdih>
5.338

> <Idih>
0.000

> <Tether>
0.000

$$$$
VeraChem MOL file


 13 13  0  0  0  0  0  0  0  0999 V2000     
   20.9240   18.8541   22.4911 C   0  0  0  0  0  0  0  0  0  0  0  0
   21.1653   18.2940   23.4042 H   0  0  0  0  0  0  0  0  0  0  0  0
   21.8549   19.2453   22.0637 H   0  0  0  0  0  0  0  0  0  0  0  0
   19.7530   19.8803   22.6428 C   0  0  0  0  0  0  0  0  0  0  0  0
   19.7203   20.6558   21.8674 H   0  0  0  0  0  0  0  0  0  0  0  0
   19.6545   20.3579   23.6238 H   0  0  0  0  0  0  0  0  0  0  0  0
   18.8147   18.6635   22.3816 C   0  0  0  0  0  0  0  0  0  0  0  0
   18.6103   18.0581   23.2754 H   0  0  0  0  0  0  0  0  0  0  0  0
   19.9724   18.1084   21.4982 C   0  0  0  0  0  0  0  0  0  0  0  0
   19.9856   18.4943   20.4713 H   0  0  0  0  0  0  0  0  0  0  0  0
   20.0659   17.0174   21.4660 H   0  0  0  0  0  0  0  0  0  0  0  0
   17.6213   18.9593   21.6941 O   0  0  0  0  0  0  0  0  0  0  0  0
   17.0398   19.4460   22.3173 H   0  0  0  0  0  0  0  0  0  0  0  0
  1  2  1  0  0  0  0
  1  3  1  0  0  0  0
  1  4  1  0  0  0  0
  4  5  1  0  0  0  0
  4  6  1  0  0  0  0
  4  7  1  0  0  0  0
  7  8  1  0  0  0  0
  1  9  1  0  0  0  0
  7  9  1  0  0  0  0
  9 10  1  0  0  0  0
  9 11  1  0  0  0  0
  7 12  1  0  0  0  0
 12 13  1  0  0  0  0
M  END
> <VConfSearch Rank>
137

> <Conf_Id>
19

> <Delta U+W>
-0.011

> <U+W>
-3.142

> <U>
-0.154

> <W>
-2.989

> <W(PB)>
-4.588

> <W(SA)>
1.599

> <Valence>
6.334

> <Coulomb>
-7.439

> <VdW>
0.951

> <VdW6>
-2.120

> <VdW12>
3.072

> <Bond>
0.065

> <Angle>
0.930

> <Pdih>
5.339

> <Idih>
0.000

> <Tether>
0.000

$$$$
VeraChem MOL file


 13 13  0  0  0  0  0  0  0  0999 V2000     
   20.0478   17.9555   21.9079 C   0  0  0  0  0  0  0  0  0  0  0  0
   19.8989   17.1292   21.2028 H   0  0  0  0  0  0  0  0  0  0  0  0
   20.9634   17.7655   22.4831 H   0  0  0  0  0  0  0  0  0  0  0  0
   18.8070   18.3529   22.7747 C   0  0  0  0  0  0  0  0  0  0  0  0
   17.8392   18.1914   22.2848 H   0  0  0  0  0  0  0  0  0  0  0  0
   18.7660   17.9234   23.7818 H   0  0  0  0  0  0  0  0  0  0  0  0
   19.3326   19.8195   22.6841 C   0  0  0  0  0  0  0  0  0  0  0  0
   18.5471   20.5837   22.6234 H   0  0  0  0  0  0  0  0  0  0  0  0
   19.9424   19.3980   21.3106 C   0  0  0  0  0  0  0  0  0  0  0  0
   20.8902   19.8759   21.0393 H   0  0  0  0  0  0  0  0  0  0  0  0
   19.2499   19.4895   20.4650 H   0  0  0  0  0  0  0  0  0  0  0  0
   20.2778   20.1748   23.6733 O   0  0  0  0  0  0  0  0  0  0  0  0
   20.6593   21.0403   23.4134 H   0  0  0  0  0  0  0  0  0  0  0  0
  1  2  1  0  0  0  0
  1  3  1  0  0  0  0
  1  4  1  0  0  0  0
  4  5  1  0  0  0  0
  4  6  1  0  0  0  0
  4  7  1  0  0  0  0
  7  8  1  0  0  0  0
  1  9  1  0  0  0  0
  7  9  1  0  0  0  0
  9 10  1  0  0  0  0
  9 11  1  0  0  0  0
  7 12  1  0  0  0  0
 12 13  1  0  0  0  0
M  END
> <VConfSearch Rank>
138

> <Conf_Id>
20

> <Delta U+W>
1.030

> <U+W>
-2.101

> <U>
0.841

> <W>
-2.942

> <W(PB)>
-4.530

> <W(SA)>
1.587

> <Valence>
6.736

> <Coulomb>
-7.246

> <VdW>
1.352

> <VdW6>
-2.500

> <VdW12>
3.851

> <Bond>
0.063

> <Angle>
0.687

> <Pdih>
5.986

> <Idih>
0.000

> <Tether>
0.000

$$$$
VeraChem MOL file


 13 13  0  0  0  0  0  0  0  0999 V2000     
   19.5298   20.1846   22.4945 C   0  0  0  0  0  0  0  0  0  0  0  0
   18.8375   20.7460   21.8533 H   0  0  0  0  0  0  0  0  0  0  0  0
   19.8995   20.8537   23.2806 H   0  0  0  0  0  0  0  0  0  0  0  0
   20.6160   19.3643   21.7233 C   0  0  0  0  0  0  0  0  0  0  0  0
   20.9639   19.7945   20.7777 H   0  0  0  0  0  0  0  0  0  0  0  0
   21.4895   19.0832   22.3245 H   0  0  0  0  0  0  0  0  0  0  0  0
   19.5216   18.2612   21.6030 C   0  0  0  0  0  0  0  0  0  0  0  0
   18.8238   18.4170   20.7690 H   0  0  0  0  0  0  0  0  0  0  0  0
   18.9972   18.7929   22.9710 C   0  0  0  0  0  0  0  0  0  0  0  0
   19.5088   18.3841   23.8510 H   0  0  0  0  0  0  0  0  0  0  0  0
   17.9154   18.7185   23.1272 H   0  0  0  0  0  0  0  0  0  0  0  0
   19.9959   16.9357   21.6113 O   0  0  0  0  0  0  0  0  0  0  0  0
   20.6095   16.8571   22.3716 H   0  0  0  0  0  0  0  0  0  0  0  0
  1  2  1  0  0  0  0
  1  3  1  0  0  0  0
  1  4  1  0  0  0  0
  4  5  1  0  0  0  0
  4  6  1  0  0  0  0
  4  7  1  0  0  0  0
  7  8  1  0  0  0  0
  1  9  1  0  0  0  0
  7  9  1  0  0  0  0
  9 10  1  0  0  0  0
  9 11  1  0  0  0  0
  7 12  1  0  0  0  0
 12 13  1  0  0  0  0
M  END
> <VConfSearch Rank>
139

> <Conf_Id>
24

> <Delta U+W>
0.356

> <U+W>
-2.775

> <U>
-0.184

> <W>
-2.591

> <W(PB)>
-4.184

> <W(SA)>
1.593

> <Valence>
6.840

> <Coulomb>
-7.916

> <VdW>
0.893

> <VdW6>
-2.167

> <VdW12>
3.060

> <Bond>
0.059

> <Angle>
0.918

> <Pdih>
5.862

> <Idih>
0.000

> <Tether>
0.000

$$$$
VeraChem MOL file


 13 13  0  0  0  0  0  0  0  0999 V2000     
   20.4109   19.3058   21.4101 C   0  0  0  0  0  0  0  0  0  0  0  0
   20.9522   19.0228   20.4995 H   0  0  0  0  0  0  0  0  0  0  0  0
   20.6651   20.3447   21.6557 H   0  0  0  0  0  0  0  0  0  0  0  0
   20.5137   18.3022   22.6069 C   0  0  0  0  0  0  0  0  0  0  0  0
   20.6323   17.2530   22.3098 H   0  0  0  0  0  0  0  0  0  0  0  0
   21.2651   18.5351   23.3697 H   0  0  0  0  0  0  0  0  0  0  0  0
   19.0460   18.7042   22.9506 C   0  0  0  0  0  0  0  0  0  0  0  0
   18.4242   17.8884   23.3410 H   0  0  0  0  0  0  0  0  0  0  0  0
   18.8796   18.9816   21.4243 C   0  0  0  0  0  0  0  0  0  0  0  0
   18.5976   18.0991   20.8373 H   0  0  0  0  0  0  0  0  0  0  0  0
   18.2087   19.8059   21.1578 H   0  0  0  0  0  0  0  0  0  0  0  0
   18.9221   19.8424   23.7757 O   0  0  0  0  0  0  0  0  0  0  0  0
   19.4943   20.5328   23.3817 H   0  0  0  0  0  0  0  0  0  0  0  0
  1  2  1  0  0  0  0
  1  3  1  0  0  0  0
  1  4  1  0  0  0  0
  4  5  1  0  0  0  0
  4  6  1  0  0  0  0
  4  7  1  0  0  0  0
  7  8  1  0  0  0  0
  1  9  1  0  0  0  0
  7  9  1  0  0  0  0
  9 10  1  0  0  0  0
  9 11  1  0  0  0  0
  7 12  1  0  0  0  0
 12 13  1  0  0  0  0
M  END
> <VConfSearch Rank>
140

> <Conf_Id>
44

> <Delta U+W>
0.823

> <U+W>
-2.308

> <U>
0.039

> <W>
-2.348

> <W(PB)>
-3.918

> <W(SA)>
1.571

> <Valence>
7.320

> <Coulomb>
-8.530

> <VdW>
1.249

> <VdW6>
-2.615

> <VdW12>
3.864

> <Bond>
0.056

> <Angle>
0.694

> <Pdih>
6.570

> <Idih>
0.000

> <Tether>
0.000

$$$$
VeraChem MOL file


 13 13  0  0  0  0  0  0  0  0999 V2000     
   19.0170   20.0423   21.6829 C   0  0  0  0  0  0  0  0  0  0  0  0
   18.4529   19.7461   20.7886 H   0  0  0  0  0  0  0  0  0  0  0  0
   18.8288   21.1045   21.8800 H   0  0  0  0  0  0  0  0  0  0  0  0
   20.5169   19.5980   21.6875 C   0  0  0  0  0  0  0  0  0  0  0  0
   21.0131   19.5599   20.7116 H   0  0  0  0  0  0  0  0  0  0  0  0
   21.1574   20.1483   22.3878 H   0  0  0  0  0  0  0  0  0  0  0  0
   19.9859   18.2373   22.2311 C   0  0  0  0  0  0  0  0  0  0  0  0
   19.6258   17.5573   21.4469 H   0  0  0  0  0  0  0  0  0  0  0  0
   18.8599   19.0784   22.9049 C   0  0  0  0  0  0  0  0  0  0  0  0
   17.8884   18.5824   23.0062 H   0  0  0  0  0  0  0  0  0  0  0  0
   19.1353   19.5166   23.8724 H   0  0  0  0  0  0  0  0  0  0  0  0
   20.8492   17.5651   23.1185 O   0  0  0  0  0  0  0  0  0  0  0  0
   20.3421   16.8215   23.5099 H   0  0  0  0  0  0  0  0  0  0  0  0
  1  2  1  0  0  0  0
  1  3  1  0  0  0  0
  1  4  1  0  0  0  0
  4  5  1  0  0  0  0
  4  6  1  0  0  0  0
  4  7  1  0  0  0  0
  7  8  1  0  0  0  0
  1  9  1  0  0  0  0
  7  9  1  0  0  0  0
  9 10  1  0  0  0  0
  9 11  1  0  0  0  0
  7 12  1  0  0  0  0
 12 13  1  0  0  0  0
M  END
> <VConfSearch Rank>
141

> <Conf_Id>
22

> <Delta U+W>
0.000

> <U+W>
-3.131

> <U>
-0.154

> <W>
-2.978

> <W(PB)>
-4.579

> <W(SA)>
1.601

> <Valence>
6.333

> <Coulomb>
-7.439

> <VdW>
0.952

> <VdW6>
-2.120

> <VdW12>
3.072

> <Bond>
0.065

> <Angle>
0.931

> <Pdih>
5.338

> <Idih>
0.000

> <Tether>
0.000

$$$$
VeraChem MOL file


 13 13  0  0  0  0  0  0  0  0999 V2000     
   18.3099   18.9345   22.2612 C   0  0  0  0  0  0  0  0  0  0  0  0
   17.8866   19.4236   23.1484 H   0  0  0  0  0  0  0  0  0  0  0  0
   17.4875   18.5394   21.6530 H   0  0  0  0  0  0  0  0  0  0  0  0
   19.4833   17.9431   22.5574 C   0  0  0  0  0  0  0  0  0  0  0  0
   19.6876   17.2225   21.7556 H   0  0  0  0  0  0  0  0  0  0  0  0
   19.4311   17.4051   23.5103 H   0  0  0  0  0  0  0  0  0  0  0  0
   20.3945   19.2074   22.5394 C   0  0  0  0  0  0  0  0  0  0  0  0
   20.4108   19.7589   23.4894 H   0  0  0  0  0  0  0  0  0  0  0  0
   19.3844   19.7782   21.4989 C   0  0  0  0  0  0  0  0  0  0  0  0
   19.5691   19.4612   20.4650 H   0  0  0  0  0  0  0  0  0  0  0  0
   19.2468   20.8648   21.5151 H   0  0  0  0  0  0  0  0  0  0  0  0
   21.7024   19.0009   22.0584 O   0  0  0  0  0  0  0  0  0  0  0  0
   22.1881   18.4950   22.7449 H   0  0  0  0  0  0  0  0  0  0  0  0
  1  2  1  0  0  0  0
  1  3  1  0  0  0  0
  1  4  1  0  0  0  0
  4  5  1  0  0  0  0
  4  6  1  0  0  0  0
  4  7  1  0  0  0  0
  7  8  1  0  0  0  0
  1  9  1  0  0  0  0
  7  9  1  0  0  0  0
  9 10  1  0  0  0  0
  9 11  1  0  0  0  0
  7 12  1  0  0  0  0
 12 13  1  0  0  0  0
M  END
> <VConfSearch Rank>
142

> <Conf_Id>
19

> <Delta U+W>
-0.011

> <U+W>
-3.142

> <U>
-0.154

> <W>
-2.989

> <W(PB)>
-4.588

> <W(SA)>
1.599

> <Valence>
6.334

> <Coulomb>
-7.439

> <VdW>
0.951

> <VdW6>
-2.120

> <VdW12>
3.072

> <Bond>
0.065

> <Angle>
0.930

> <Pdih>
5.339

> <Idih>
0.000

> <Tether>
0.000

$$$$
VeraChem MOL file


 13 13  0  0  0  0  0  0  0  0999 V2000     
   18.4930   19.1106   22.7452 C   0  0  0  0  0  0  0  0  0  0  0  0
   17.7582   18.6130   23.3889 H   0  0  0  0  0  0  0  0  0  0  0  0
   18.0799   20.0747   22.4210 H   0  0  0  0  0  0  0  0  0  0  0  0
   19.0981   18.2426   21.5922 C   0  0  0  0  0  0  0  0  0  0  0  0
   19.1749   17.1727   21.8205 H   0  0  0  0  0  0  0  0  0  0  0  0
   18.6321   18.3583   20.6074 H   0  0  0  0  0  0  0  0  0  0  0  0
   20.4209   19.0403   21.8142 C   0  0  0  0  0  0  0  0  0  0  0  0
   21.3377   18.4532   21.6741 H   0  0  0  0  0  0  0  0  0  0  0  0
   19.9555   19.1822   23.2972 C   0  0  0  0  0  0  0  0  0  0  0  0
   20.2339   20.1148   23.8004 H   0  0  0  0  0  0  0  0  0  0  0  0
   20.2400   18.3399   23.9395 H   0  0  0  0  0  0  0  0  0  0  0  0
   20.5103   20.2553   21.0973 O   0  0  0  0  0  0  0  0  0  0  0  0
   21.2871   20.7421   21.4461 H   0  0  0  0  0  0  0  0  0  0  0  0
  1  2  1  0  0  0  0
  1  3  1  0  0  0  0
  1  4  1  0  0  0  0
  4  5  1  0  0  0  0
  4  6  1  0  0  0  0
  4  7  1  0  0  0  0
  7  8  1  0  0  0  0
  1  9  1  0  0  0  0
  7  9  1  0  0  0  0
  9 10  1  0  0  0  0
  9 11  1  0  0  0  0
  7 12  1  0  0  0  0
 12 13  1  0  0  0  0
M  END
> <VConfSearch Rank>
143

> <Conf_Id>
20

> <Delta U+W>
1.030

> <U+W>
-2.101

> <U>
0.841

> <W>
-2.942

> <W(PB)>
-4.530

> <W(SA)>
1.587

> <Valence>
6.736

> <Coulomb>
-7.246

> <VdW>
1.352

> <VdW6>
-2.500

> <VdW12>
3.851

> <Bond>
0.063

> <Angle>
0.687

> <Pdih>
5.986

> <Idih>
0.000

> <Tether>
0.000

$$$$
VeraChem MOL file


 13 13  0  0  0  0  0  0  0  0999 V2000     
   19.1404   19.5169   21.2337 C   0  0  0  0  0  0  0  0  0  0  0  0
   18.1344   19.9186   21.4135 H   0  0  0  0  0  0  0  0  0  0  0  0
   19.4102   19.7043   20.1875 H   0  0  0  0  0  0  0  0  0  0  0  0
   19.3636   18.0571   21.7500 C   0  0  0  0  0  0  0  0  0  0  0  0
   18.4906   17.3959   21.7190 H   0  0  0  0  0  0  0  0  0  0  0  0
   20.2158   17.5366   21.2959 H   0  0  0  0  0  0  0  0  0  0  0  0
   19.6609   18.7211   23.1284 C   0  0  0  0  0  0  0  0  0  0  0  0
   18.7602   18.9559   23.7118 H   0  0  0  0  0  0  0  0  0  0  0  0
   20.2079   19.9242   22.3023 C   0  0  0  0  0  0  0  0  0  0  0  0
   21.2487   19.8210   21.9716 H   0  0  0  0  0  0  0  0  0  0  0  0
   20.0805   20.9119   22.7589 H   0  0  0  0  0  0  0  0  0  0  0  0
   20.6096   18.0557   23.9278 O   0  0  0  0  0  0  0  0  0  0  0  0
   21.3857   17.8735   23.3575 H   0  0  0  0  0  0  0  0  0  0  0  0
  1  2  1  0  0  0  0
  1  3  1  0  0  0  0
  1  4  1  0  0  0  0
  4  5  1  0  0  0  0
  4  6  1  0  0  0  0
  4  7  1  0  0  0  0
  7  8  1  0  0  0  0
  1  9  1  0  0  0  0
  7  9  1  0  0  0  0
  9 10  1  0  0  0  0
  9 11  1  0  0  0  0
  7 12  1  0  0  0  0
 12 13  1  0  0  0  0
M  END
> <VConfSearch Rank>
144

> <Conf_Id>
24

> <Delta U+W>
0.356

> <U+W>
-2.775

> <U>
-0.184

> <W>
-2.591

> <W(PB)>
-4.184

> <W(SA)>
1.593

> <Valence>
6.840

> <Coulomb>
-7.916

> <VdW>
0.893

> <VdW6>
-2.167

> <VdW12>
3.060

> <Bond>
0.059

> <Angle>
0.918

> <Pdih>
5.862

> <Idih>
0.000

> <Tether>
0.000

$$$$
VeraChem MOL file


 13 13  0  0  0  0  0  0  0  0999 V2000     
   20.8103   18.9099   22.3294 C   0  0  0  0  0  0  0  0  0  0  0  0
   21.7045   18.2881   22.2026 H   0  0  0  0  0  0  0  0  0  0  0  0
   21.1174   19.8778   22.7456 H   0  0  0  0  0  0  0  0  0  0  0  0
   19.6036   18.2320   23.0604 C   0  0  0  0  0  0  0  0  0  0  0  0
   19.5346   17.1475   22.9115 H   0  0  0  0  0  0  0  0  0  0  0  0
   19.5068   18.4432   24.1313 H   0  0  0  0  0  0  0  0  0  0  0  0
   18.6823   19.0639   22.1154 C   0  0  0  0  0  0  0  0  0  0  0  0
   17.7651   18.5516   21.7979 H   0  0  0  0  0  0  0  0  0  0  0  0
   19.8571   18.9984   21.0910 C   0  0  0  0  0  0  0  0  0  0  0  0
   19.8504   18.1018   20.4592 H   0  0  0  0  0  0  0  0  0  0  0  0
   19.9810   19.8767   20.4476 H   0  0  0  0  0  0  0  0  0  0  0  0
   18.3743   20.3603   22.5803 O   0  0  0  0  0  0  0  0  0  0  0  0
   19.2243   20.7669   22.8479 H   0  0  0  0  0  0  0  0  0  0  0  0
  1  2  1  0  0  0  0
  1  3  1  0  0  0  0
  1  4  1  0  0  0  0
  4  5  1  0  0  0  0
  4  6  1  0  0  0  0
  4  7  1  0  0  0  0
  7  8  1  0  0  0  0
  1  9  1  0  0  0  0
  7  9  1  0  0  0  0
  9 10  1  0  0  0  0
  9 11  1  0  0  0  0
  7 12  1  0  0  0  0
 12 13  1  0  0  0  0
M  END
> <VConfSearch Rank>
145

> <Conf_Id>
44

> <Delta U+W>
0.823

> <U+W>
-2.308

> <U>
0.039

> <W>
-2.348

> <W(PB)>
-3.918

> <W(SA)>
1.571

> <Valence>
7.320

> <Coulomb>
-8.530

> <VdW>
1.249

> <VdW6>
-2.615

> <VdW12>
3.864

> <Bond>
0.056

> <Angle>
0.694

> <Pdih>
6.570

> <Idih>
0.000

> <Tether>
0.000

$$$$
VeraChem MOL file


 13 13  0  0  0  0  0  0  0  0999 V2000     
   18.8024   18.0523   22.3596 C   0  0  0  0  0  0  0  0  0  0  0  0
   19.1260   17.2661   23.0543 H   0  0  0  0  0  0  0  0  0  0  0  0
   17.8017   17.8016   21.9881 H   0  0  0  0  0  0  0  0  0  0  0  0
   19.8599   18.4429   21.2749 C   0  0  0  0  0  0  0  0  0  0  0  0
   20.5164   17.6378   20.9275 H   0  0  0  0  0  0  0  0  0  0  0  0
   19.4511   18.9665   20.4018 H   0  0  0  0  0  0  0  0  0  0  0  0
   20.4565   19.3795   22.3684 C   0  0  0  0  0  0  0  0  0  0  0  0
   21.1335   18.8691   23.0672 H   0  0  0  0  0  0  0  0  0  0  0  0
   18.9933   19.5123   22.8883 C   0  0  0  0  0  0  0  0  0  0  0  0
   18.8809   19.6523   23.9690 H   0  0  0  0  0  0  0  0  0  0  0  0
   18.3922   20.2696   22.3696 H   0  0  0  0  0  0  0  0  0  0  0  0
   21.0367   20.5707   21.8899 O   0  0  0  0  0  0  0  0  0  0  0  0
   21.2221   21.1373   22.6695 H   0  0  0  0  0  0  0  0  0  0  0  0
  1  2  1  0  0  0  0
  1  3  1  0  0  0  0
  1  4  1  0  0  0  0
  4  5  1  0  0  0  0
  4  6  1  0  0  0  0
  4  7  1  0  0  0  0
  7  8  1  0  0  0  0
  1  9  1  0  0  0  0
  7  9  1  0  0  0  0
  9 10  1  0  0  0  0
  9 11  1  0  0  0  0
  7 12  1  0  0  0  0
 12 13  1  0  0  0  0
M  END
> <VConfSearch Rank>
146

> <Conf_Id>
22

> <Delta U+W>
0.000

> <U+W>
-3.131

> <U>
-0.154

> <W>
-2.978

> <W(PB)>
-4.579

> <W(SA)>
1.601

> <Valence>
6.333

> <Coulomb>
-7.439

> <VdW>
0.952

> <VdW6>
-2.120

> <VdW12>
3.072

> <Bond>
0.065

> <Angle>
0.931

> <Pdih>
5.338

> <Idih>
0.000

> <Tether>
0.000

$$$$
VeraChem MOL file


 13 13  0  0  0  0  0  0  0  0999 V2000     
   19.5850   19.4880   21.0529 C   0  0  0  0  0  0  0  0  0  0  0  0
   20.5652   19.5488   20.5620 H   0  0  0  0  0  0  0  0  0  0  0  0
   18.8405   19.9727   20.4102 H   0  0  0  0  0  0  0  0  0  0  0  0
   19.5784   19.9180   22.5571 C   0  0  0  0  0  0  0  0  0  0  0  0
   18.5889   20.1739   22.9560 H   0  0  0  0  0  0  0  0  0  0  0  0
   20.2859   20.7063   22.8363 H   0  0  0  0  0  0  0  0  0  0  0  0
   20.0370   18.4576   22.8506 C   0  0  0  0  0  0  0  0  0  0  0  0
   21.1181   18.2984   22.7371 H   0  0  0  0  0  0  0  0  0  0  0  0
   19.2088   18.0674   21.5893 C   0  0  0  0  0  0  0  0  0  0  0  0
   18.1387   17.9155   21.7775 H   0  0  0  0  0  0  0  0  0  0  0  0
   19.5896   17.2166   21.0139 H   0  0  0  0  0  0  0  0  0  0  0  0
   19.5761   17.9138   24.0656 O   0  0  0  0  0  0  0  0  0  0  0  0
   20.0699   18.3575   24.7885 H   0  0  0  0  0  0  0  0  0  0  0  0
  1  2  1  0  0  0  0
  1  3  1  0  0  0  0
  1  4  1  0  0  0  0
  4  5  1  0  0  0  0
  4  6  1  0  0  0  0
  4  7  1  0  0  0  0
  7  8  1  0  0  0  0
  1  9  1  0  0  0  0
  7  9  1  0  0  0  0
  9 10  1  0  0  0  0
  9 11  1  0  0  0  0
  7 12  1  0  0  0  0
 12 13  1  0  0  0  0
M  END
> <VConfSearch Rank>
147

> <Conf_Id>
19

> <Delta U+W>
-0.011

> <U+W>
-3.142

> <U>
-0.154

> <W>
-2.989

> <W(PB)>
-4.588

> <W(SA)>
1.599

> <Valence>
6.334

> <Coulomb>
-7.439

> <VdW>
0.951

> <VdW6>
-2.120

> <VdW12>
3.072

> <Bond>
0.065

> <Angle>
0.930

> <Pdih>
5.339

> <Idih>
0.000

> <Tether>
0.000

$$$$
VeraChem MOL file


 13 13  0  0  0  0  0  0  0  0999 V2000     
   19.0480   20.0324   21.8130 C   0  0  0  0  0  0  0  0  0  0  0  0
   18.4107   20.3951   20.9980 H   0  0  0  0  0  0  0  0  0  0  0  0
   19.1833   20.8435   22.5404 H   0  0  0  0  0  0  0  0  0  0  0  0
   20.3720   19.3161   21.3852 C   0  0  0  0  0  0  0  0  0  0  0  0
   20.3115   18.7808   20.4299 H   0  0  0  0  0  0  0  0  0  0  0  0
   21.2754   19.9361   21.3829 H   0  0  0  0  0  0  0  0  0  0  0  0
   20.1752   18.4094   22.6399 C   0  0  0  0  0  0  0  0  0  0  0  0
   20.4941   17.3677   22.5057 H   0  0  0  0  0  0  0  0  0  0  0  0
   18.6470   18.6562   22.4405 C   0  0  0  0  0  0  0  0  0  0  0  0
   18.0450   18.7023   23.3547 H   0  0  0  0  0  0  0  0  0  0  0  0
   18.1676   17.9608   21.7408 H   0  0  0  0  0  0  0  0  0  0  0  0
   20.7126   18.9292   23.8396 O   0  0  0  0  0  0  0  0  0  0  0  0
   20.3794   18.3702   24.5735 H   0  0  0  0  0  0  0  0  0  0  0  0
  1  2  1  0  0  0  0
  1  3  1  0  0  0  0
  1  4  1  0  0  0  0
  4  5  1  0  0  0  0
  4  6  1  0  0  0  0
  4  7  1  0  0  0  0
  7  8  1  0  0  0  0
  1  9  1  0  0  0  0
  7  9  1  0  0  0  0
  9 10  1  0  0  0  0
  9 11  1  0  0  0  0
  7 12  1  0  0  0  0
 12 13  1  0  0  0  0
M  END
> <VConfSearch Rank>
148

> <Conf_Id>
20

> <Delta U+W>
1.030

> <U+W>
-2.101

> <U>
0.841

> <W>
-2.942

> <W(PB)>
-4.530

> <W(SA)>
1.587

> <Valence>
6.736

> <Coulomb>
-7.246

> <VdW>
1.352

> <VdW6>
-2.500

> <VdW12>
3.851

> <Bond>
0.063

> <Angle>
0.687

> <Pdih>
5.986

> <Idih>
0.000

> <Tether>
0.000

$$$$
VeraChem MOL file


 13 13  0  0  0  0  0  0  0  0999 V2000     
   19.4509   17.7769   22.6260 C   0  0  0  0  0  0  0  0  0  0  0  0
   18.4680   17.6265   23.0917 H   0  0  0  0  0  0  0  0  0  0  0  0
   19.9869   16.8202   22.6232 H   0  0  0  0  0  0  0  0  0  0  0  0
   20.2484   19.0099   23.1654 C   0  0  0  0  0  0  0  0  0  0  0  0
   20.0922   19.2612   24.2203 H   0  0  0  0  0  0  0  0  0  0  0  0
   21.3268   18.9797   22.9667 H   0  0  0  0  0  0  0  0  0  0  0  0
   19.4170   19.8405   22.1416 C   0  0  0  0  0  0  0  0  0  0  0  0
   18.4216   20.1277   22.5069 H   0  0  0  0  0  0  0  0  0  0  0  0
   19.4191   18.5506   21.2667 C   0  0  0  0  0  0  0  0  0  0  0  0
   20.3121   18.4178   20.6436 H   0  0  0  0  0  0  0  0  0  0  0  0
   18.5304   18.3963   20.6448 H   0  0  0  0  0  0  0  0  0  0  0  0
   20.0795   20.9503   21.5838 O   0  0  0  0  0  0  0  0  0  0  0  0
   20.9556   20.6352   21.2773 H   0  0  0  0  0  0  0  0  0  0  0  0
  1  2  1  0  0  0  0
  1  3  1  0  0  0  0
  1  4  1  0  0  0  0
  4  5  1  0  0  0  0
  4  6  1  0  0  0  0
  4  7  1  0  0  0  0
  7  8  1  0  0  0  0
  1  9  1  0  0  0  0
  7  9  1  0  0  0  0
  9 10  1  0  0  0  0
  9 11  1  0  0  0  0
  7 12  1  0  0  0  0
 12 13  1  0  0  0  0
M  END
> <VConfSearch Rank>
149

> <Conf_Id>
24

> <Delta U+W>
0.356

> <U+W>
-2.775

> <U>
-0.184

> <W>
-2.591

> <W(PB)>
-4.184

> <W(SA)>
1.593

> <Valence>
6.840

> <Coulomb>
-7.916

> <VdW>
0.893

> <VdW6>
-2.167

> <VdW12>
3.060

> <Bond>
0.059

> <Angle>
0.918

> <Pdih>
5.862

> <Idih>
0.000

> <Tether>
0.000

$$$$
VeraChem MOL file


 13 13  0  0  0  0  0  0  0  0999 V2000     
   18.8603   19.2420   21.5030 C   0  0  0  0  0  0  0  0  0  0  0  0
   18.0951   19.9834   21.2441 H   0  0  0  0  0  0  0  0  0  0  0  0
   18.8006   18.4162   20.7827 H   0  0  0  0  0  0  0  0  0  0  0  0
   18.9077   18.8035   23.0049 C   0  0  0  0  0  0  0  0  0  0  0  0
   18.5944   19.5795   23.7139 H   0  0  0  0  0  0  0  0  0  0  0  0
   18.3845   17.8733   23.2534 H   0  0  0  0  0  0  0  0  0  0  0  0
   20.4535   18.6900   22.8278 C   0  0  0  0  0  0  0  0  0  0  0  0
   21.0407   18.9813   23.7080 H   0  0  0  0  0  0  0  0  0  0  0  0
   20.3019   19.8022   21.7443 C   0  0  0  0  0  0  0  0  0  0  0  0
   20.3304   20.8231   22.1442 H   0  0  0  0  0  0  0  0  0  0  0  0
   20.9923   19.7413   20.8956 H   0  0  0  0  0  0  0  0  0  0  0  0
   20.9031   17.4449   22.3386 O   0  0  0  0  0  0  0  0  0  0  0  0
   20.3472   17.2373   21.5593 H   0  0  0  0  0  0  0  0  0  0  0  0
  1  2  1  0  0  0  0
  1  3  1  0  0  0  0
  1  4  1  0  0  0  0
  4  5  1  0  0  0  0
  4  6  1  0  0  0  0
  4  7  1  0  0  0  0
  7  8  1  0  0  0  0
  1  9  1  0  0  0  0
  7  9  1  0  0  0  0
  9 10  1  0  0  0  0
  9 11  1  0  0  0  0
  7 12  1  0  0  0  0
 12 13  1  0  0  0  0
M  END
> <VConfSearch Rank>
150

> <Conf_Id>
44

> <Delta U+W>
0.823

> <U+W>
-2.308

> <U>
0.039

> <W>
-2.348

> <W(PB)>
-3.918

> <W(SA)>
1.571

> <Valence>
7.320

> <Coulomb>
-8.530

> <VdW>
1.249

> <VdW6>
-2.615

> <VdW12>
3.864

> <Bond>
0.056

> <Angle>
0.694

> <Pdih>
6.570

> <Idih>
0.000

> <Tether>
0.000

$$$$
VeraChem MOL file


 13 13  0  0  0  0  0  0  0  0999 V2000     
   20.0631   20.3015   22.2257 C   0  0  0  0  0  0  0  0  0  0  0  0
   19.2967   20.9939   21.8533 H   0  0  0  0  0  0  0  0  0  0  0  0
   20.9433   20.8820   22.5268 H   0  0  0  0  0  0  0  0  0  0  0  0
   20.3363   19.0691   21.3016 C   0  0  0  0  0  0  0  0  0  0  0  0
   20.2232   19.2373   20.2251 H   0  0  0  0  0  0  0  0  0  0  0  0
   21.2929   18.5629   21.4811 H   0  0  0  0  0  0  0  0  0  0  0  0
   19.1158   18.4156   22.0173 C   0  0  0  0  0  0  0  0  0  0  0  0
   18.1451   18.7118   21.5966 H   0  0  0  0  0  0  0  0  0  0  0  0
   19.5468   19.2491   23.2617 C   0  0  0  0  0  0  0  0  0  0  0  0
   18.7359   19.5786   23.9204 H   0  0  0  0  0  0  0  0  0  0  0  0
   20.3311   18.7844   23.8723 H   0  0  0  0  0  0  0  0  0  0  0  0
   19.1874   17.0174   22.1741 O   0  0  0  0  0  0  0  0  0  0  0  0
   18.4551   16.7542   22.7722 H   0  0  0  0  0  0  0  0  0  0  0  0
  1  2  1  0  0  0  0
  1  3  1  0  0  0  0
  1  4  1  0  0  0  0
  4  5  1  0  0  0  0
  4  6  1  0  0  0  0
  4  7  1  0  0  0  0
  7  8  1  0  0  0  0
  1  9  1  0  0  0  0
  7  9  1  0  0  0  0
  9 10  1  0  0  0  0
  9 11  1  0  0  0  0
  7 12  1  0  0  0  0
 12 13  1  0  0  0  0
M  END
> <VConfSearch Rank>
151

> <Conf_Id>
22

> <Delta U+W>
0.000

> <U+W>
-3.131

> <U>
-0.154

> <W>
-2.978

> <W(PB)>
-4.579

> <W(SA)>
1.601

> <Valence>
6.333

> <Coulomb>
-7.439

> <VdW>
0.952

> <VdW6>
-2.120

> <VdW12>
3.072

> <Bond>
0.065

> <Angle>
0.931

> <Pdih>
5.338

> <Idih>
0.000

> <Tether>
0.000

$$$$
VeraChem MOL file


 13 13  0  0  0  0  0  0  0  0999 V2000     
   19.2929   18.2988   23.3572 C   0  0  0  0  0  0  0  0  0  0  0  0
   18.2263   18.0429   23.4086 H   0  0  0  0  0  0  0  0  0  0  0  0
   19.7718   17.9942   24.2954 H   0  0  0  0  0  0  0  0  0  0  0  0
   19.5940   19.7557   22.8735 C   0  0  0  0  0  0  0  0  0  0  0  0
   20.5962   20.1242   23.1256 H   0  0  0  0  0  0  0  0  0  0  0  0
   18.8578   20.5179   23.1513 H   0  0  0  0  0  0  0  0  0  0  0  0
   19.4609   19.1749   21.4333 C   0  0  0  0  0  0  0  0  0  0  0  0
   18.4245   19.1015   21.0761 H   0  0  0  0  0  0  0  0  0  0  0  0
   20.0110   17.8498   22.0419 C   0  0  0  0  0  0  0  0  0  0  0  0
   21.1049   17.8003   22.1092 H   0  0  0  0  0  0  0  0  0  0  0  0
   19.6441   16.9260   21.5817 H   0  0  0  0  0  0  0  0  0  0  0  0
   20.2833   19.7784   20.4617 O   0  0  0  0  0  0  0  0  0  0  0  0
   19.9144   20.6698   20.2816 H   0  0  0  0  0  0  0  0  0  0  0  0
  1  2  1  0  0  0  0
  1  3  1  0  0  0  0
  1  4  1  0  0  0  0
  4  5  1  0  0  0  0
  4  6  1  0  0  0  0
  4  7  1  0  0  0  0
  7  8  1  0  0  0  0
  1  9  1  0  0  0  0
  7  9  1  0  0  0  0
  9 10  1  0  0  0  0
  9 11  1  0  0  0  0
  7 12  1  0  0  0  0
 12 13  1  0  0  0  0
M  END
> <VConfSearch Rank>
152

> <Conf_Id>
19

> <Delta U+W>
-0.011

> <U+W>
-3.142

> <U>
-0.154

> <W>
-2.989

> <W(PB)>
-4.588

> <W(SA)>
1.599

> <Valence>
6.334

> <Coulomb>
-7.439

> <VdW>
0.951

> <VdW6>
-2.120

> <VdW12>
3.072

> <Bond>
0.065

> <Angle>
0.930

> <Pdih>
5.339

> <Idih>
0.000

> <Tether>
0.000

$$$$
VeraChem MOL file


 13 13  0  0  0  0  0  0  0  0999 V2000     
   20.3295   19.9279   22.7976 C   0  0  0  0  0  0  0  0  0  0  0  0
   20.4246   21.0017   22.9975 H   0  0  0  0  0  0  0  0  0  0  0  0
   21.1514   19.4029   23.3016 H   0  0  0  0  0  0  0  0  0  0  0  0
   20.1206   19.5221   21.3008 C   0  0  0  0  0  0  0  0  0  0  0  0
   19.5780   20.2620   20.7002 H   0  0  0  0  0  0  0  0  0  0  0  0
   21.0206   19.2190   20.7543 H   0  0  0  0  0  0  0  0  0  0  0  0
   19.2306   18.3588   21.8392 C   0  0  0  0  0  0  0  0  0  0  0  0
   18.3672   18.1135   21.2073 H   0  0  0  0  0  0  0  0  0  0  0  0
   18.9145   19.3051   23.0395 C   0  0  0  0  0  0  0  0  0  0  0  0
   18.7639   18.8169   24.0088 H   0  0  0  0  0  0  0  0  0  0  0  0
   18.0792   19.9930   22.8609 H   0  0  0  0  0  0  0  0  0  0  0  0
   19.9332   17.1797   22.1772 O   0  0  0  0  0  0  0  0  0  0  0  0
   19.3084   16.5971   22.6593 H   0  0  0  0  0  0  0  0  0  0  0  0
  1  2  1  0  0  0  0
  1  3  1  0  0  0  0
  1  4  1  0  0  0  0
  4  5  1  0  0  0  0
  4  6  1  0  0  0  0
  4  7  1  0  0  0  0
  7  8  1  0  0  0  0
  1  9  1  0  0  0  0
  7  9  1  0  0  0  0
  9 10  1  0  0  0  0
  9 11  1  0  0  0  0
  7 12  1  0  0  0  0
 12 13  1  0  0  0  0
M  END
> <VConfSearch Rank>
153

> <Conf_Id>
20

> <Delta U+W>
1.030

> <U+W>
-2.101

> <U>
0.841

> <W>
-2.942

> <W(PB)>
-4.530

> <W(SA)>
1.587

> <Valence>
6.736

> <Coulomb>
-7.246

> <VdW>
1.352

> <VdW6>
-2.500

> <VdW12>
3.851

> <Bond>
0.063

> <Angle>
0.687

> <Pdih>
5.986

> <Idih>
0.000

> <Tether>
0.000

$$$$
VeraChem MOL file


 13 13  0  0  0  0  0  0  0  0999 V2000     
   18.4949   19.2278   22.2044 C   0  0  0  0  0  0  0  0  0  0  0  0
   18.1652   20.1146   21.6472 H   0  0  0  0  0  0  0  0  0  0  0  0
   17.6162   18.7511   22.6552 H   0  0  0  0  0  0  0  0  0  0  0  0
   19.7108   19.4696   23.1585 C   0  0  0  0  0  0  0  0  0  0  0  0
   19.7766   20.4642   23.6132 H   0  0  0  0  0  0  0  0  0  0  0  0
   19.8326   18.7144   23.9448 H   0  0  0  0  0  0  0  0  0  0  0  0
   20.5917   19.2447   21.8926 C   0  0  0  0  0  0  0  0  0  0  0  0
   20.7057   20.1398   21.2661 H   0  0  0  0  0  0  0  0  0  0  0  0
   19.4614   18.2827   21.4170 C   0  0  0  0  0  0  0  0  0  0  0  0
   19.5274   17.2622   21.8141 H   0  0  0  0  0  0  0  0  0  0  0  0
   19.3068   18.2290   20.3337 H   0  0  0  0  0  0  0  0  0  0  0  0
   21.8416   18.6402   22.1255 O   0  0  0  0  0  0  0  0  0  0  0  0
   21.6777   17.8528   22.6856 H   0  0  0  0  0  0  0  0  0  0  0  0
  1  2  1  0  0  0  0
  1  3  1  0  0  0  0
  1  4  1  0  0  0  0
  4  5  1  0  0  0  0
  4  6  1  0  0  0  0
  4  7  1  0  0  0  0
  7  8  1  0  0  0  0
  1  9  1  0  0  0  0
  7  9  1  0  0  0  0
  9 10  1  0  0  0  0
  9 11  1  0  0  0  0
  7 12  1  0  0  0  0
 12 13  1  0  0  0  0
M  END
> <VConfSearch Rank>
154

> <Conf_Id>
24

> <Delta U+W>
0.356

> <U+W>
-2.775

> <U>
-0.184

> <W>
-2.591

> <W(PB)>
-4.184

> <W(SA)>
1.593

> <Valence>
6.840

> <Coulomb>
-7.916

> <VdW>
0.893

> <VdW6>
-2.167

> <VdW12>
3.060

> <Bond>
0.059

> <Angle>
0.918

> <Pdih>
5.862

> <Idih>
0.000

> <Tether>
0.000

$$$$
VeraChem MOL file


 13 13  0  0  0  0  0  0  0  0999 V2000     
   19.4680   19.7232   21.4037 C   0  0  0  0  0  0  0  0  0  0  0  0
   19.1018   20.7325   21.1810 H   0  0  0  0  0  0  0  0  0  0  0  0
   19.7254   19.2312   20.4571 H   0  0  0  0  0  0  0  0  0  0  0  0
   18.5785   18.8700   22.3685 C   0  0  0  0  0  0  0  0  0  0  0  0
   18.0208   19.4567   23.1087 H   0  0  0  0  0  0  0  0  0  0  0  0
   17.8886   18.1642   21.8924 H   0  0  0  0  0  0  0  0  0  0  0  0
   19.9095   18.2623   22.9100 C   0  0  0  0  0  0  0  0  0  0  0  0
   19.9121   18.0435   23.9854 H   0  0  0  0  0  0  0  0  0  0  0  0
   20.5637   19.6230   22.5170 C   0  0  0  0  0  0  0  0  0  0  0  0
   20.4929   20.3944   23.2935 H   0  0  0  0  0  0  0  0  0  0  0  0
   21.6019   19.5727   22.1700 H   0  0  0  0  0  0  0  0  0  0  0  0
   20.3866   17.1465   22.1896 O   0  0  0  0  0  0  0  0  0  0  0  0
   20.3620   17.3977   21.2432 H   0  0  0  0  0  0  0  0  0  0  0  0
  1  2  1  0  0  0  0
  1  3  1  0  0  0  0
  1  4  1  0  0  0  0
  4  5  1  0  0  0  0
  4  6  1  0  0  0  0
  4  7  1  0  0  0  0
  7  8  1  0  0  0  0
  1  9  1  0  0  0  0
  7  9  1  0  0  0  0
  9 10  1  0  0  0  0
  9 11  1  0  0  0  0
  7 12  1  0  0  0  0
 12 13  1  0  0  0  0
M  END
> <VConfSearch Rank>
155

> <Conf_Id>
44

> <Delta U+W>
0.823

> <U+W>
-2.308

> <U>
0.039

> <W>
-2.348

> <W(PB)>
-3.918

> <W(SA)>
1.571

> <Valence>
7.320

> <Coulomb>
-8.530

> <VdW>
1.249

> <VdW6>
-2.615

> <VdW12>
3.864

> <Bond>
0.056

> <Angle>
0.694

> <Pdih>
6.570

> <Idih>
0.000

> <Tether>
0.000

$$$$
VeraChem MOL file


 13 13  0  0  0  0  0  0  0  0999 V2000     
   18.8365   18.5589   21.3444 C   0  0  0  0  0  0  0  0  0  0  0  0
   19.3329   18.2546   20.4135 H   0  0  0  0  0  0  0  0  0  0  0  0
   17.7697   18.3174   21.2677 H   0  0  0  0  0  0  0  0  0  0  0  0
   19.1802   20.0070   21.8262 C   0  0  0  0  0  0  0  0  0  0  0  0
   19.3754   20.7447   21.0403 H   0  0  0  0  0  0  0  0  0  0  0  0
   18.4675   20.4346   22.5424 H   0  0  0  0  0  0  0  0  0  0  0  0
   20.4402   19.3607   22.4770 C   0  0  0  0  0  0  0  0  0  0  0  0
   21.2790   19.2266   21.7802 H   0  0  0  0  0  0  0  0  0  0  0  0
   19.5547   18.0902   22.6528 C   0  0  0  0  0  0  0  0  0  0  0  0
   20.0797   17.1303   22.5973 H   0  0  0  0  0  0  0  0  0  0  0  0
   18.9225   18.0957   23.5495 H   0  0  0  0  0  0  0  0  0  0  0  0
   20.8755   19.9623   23.6741 O   0  0  0  0  0  0  0  0  0  0  0  0
   21.5590   19.3750   24.0628 H   0  0  0  0  0  0  0  0  0  0  0  0
  1  2  1  0  0  0  0
  1  3  1  0  0  0  0
  1  4  1  0  0  0  0
  4  5  1  0  0  0  0
  4  6  1  0  0  0  0
  4  7  1  0  0  0  0
  7  8  1  0  0  0  0
  1  9  1  0  0  0  0
  7  9  1  0  0  0  0
  9 10  1  0  0  0  0
  9 11  1  0  0  0  0
  7 12  1  0  0  0  0
 12 13  1  0  0  0  0
M  END
> <VConfSearch Rank>
156

> <Conf_Id>
22

> <Delta U+W>
0.000

> <U+W>
-3.131

> <U>
-0.154

> <W>
-2.978

> <W(PB)>
-4.579

> <W(SA)>
1.601

> <Valence>
6.333

> <Coulomb>
-7.439

> <VdW>
0.952

> <VdW6>
-2.120

> <VdW12>
3.072

> <Bond>
0.065

> <Angle>
0.931

> <Pdih>
5.338

> <Idih>
0.000

> <Tether>
0.000

$$$$
VeraChem MOL file


 13 13  0  0  0  0  0  0  0  0999 V2000     
   20.8527   19.3209   21.9483 C   0  0  0  0  0  0  0  0  0  0  0  0
   21.6353   18.6963   22.3987 H   0  0  0  0  0  0  0  0  0  0  0  0
   21.3311   20.1461   21.4073 H   0  0  0  0  0  0  0  0  0  0  0  0
   19.6919   19.7174   22.9191 C   0  0  0  0  0  0  0  0  0  0  0  0
   19.0984   20.5813   22.5948 H   0  0  0  0  0  0  0  0  0  0  0  0
   19.9679   19.8539   23.9705 H   0  0  0  0  0  0  0  0  0  0  0  0
   19.0755   18.3338   22.5520 C   0  0  0  0  0  0  0  0  0  0  0  0
   19.4857   17.4951   23.1313 H   0  0  0  0  0  0  0  0  0  0  0  0
   19.7549   18.5298   21.1632 C   0  0  0  0  0  0  0  0  0  0  0  0
   19.1734   19.1315   20.4537 H   0  0  0  0  0  0  0  0  0  0  0  0
   20.0849   17.6140   20.6609 H   0  0  0  0  0  0  0  0  0  0  0  0
   17.6677   18.2872   22.5325 O   0  0  0  0  0  0  0  0  0  0  0  0
   17.3626   18.3271   23.4645 H   0  0  0  0  0  0  0  0  0  0  0  0
  1  2  1  0  0  0  0
  1  3  1  0  0  0  0
  1  4  1  0  0  0  0
  4  5  1  0  0  0  0
  4  6  1  0  0  0  0
  4  7  1  0  0  0  0
  7  8  1  0  0  0  0
  1  9  1  0  0  0  0
  7  9  1  0  0  0  0
  9 10  1  0  0  0  0
  9 11  1  0  0  0  0
  7 12  1  0  0  0  0
 12 13  1  0  0  0  0
M  END
> <VConfSearch Rank>
157

> <Conf_Id>
19

> <Delta U+W>
-0.011

> <U+W>
-3.142

> <U>
-0.154

> <W>
-2.989

> <W(PB)>
-4.588

> <W(SA)>
1.599

> <Valence>
6.334

> <Coulomb>
-7.439

> <VdW>
0.951

> <VdW6>
-2.120

> <VdW12>
3.072

> <Bond>
0.065

> <Angle>
0.930

> <Pdih>
5.339

> <Idih>
0.000

> <Tether>
0.000

$$$$
VeraChem MOL file


 13 13  0  0  0  0  0  0  0  0999 V2000     
   19.9164   20.0072   21.5537 C   0  0  0  0  0  0  0  0  0  0  0  0
   19.7445   20.4775   20.5783 H   0  0  0  0  0  0  0  0  0  0  0  0
   20.5539   20.6686   22.1548 H   0  0  0  0  0  0  0  0  0  0  0  0
   20.3762   18.5116   21.5254 C   0  0  0  0  0  0  0  0  0  0  0  0
   19.9931   17.9338   20.6756 H   0  0  0  0  0  0  0  0  0  0  0  0
   21.4547   18.3381   21.6095 H   0  0  0  0  0  0  0  0  0  0  0  0
   19.5563   18.3336   22.8413 C   0  0  0  0  0  0  0  0  0  0  0  0
   19.0604   17.3596   22.9426 H   0  0  0  0  0  0  0  0  0  0  0  0
   18.6450   19.4778   22.2966 C   0  0  0  0  0  0  0  0  0  0  0  0
   18.2145   20.1477   23.0490 H   0  0  0  0  0  0  0  0  0  0  0  0
   17.8418   19.1345   21.6333 H   0  0  0  0  0  0  0  0  0  0  0  0
   20.2601   18.6439   24.0272 O   0  0  0  0  0  0  0  0  0  0  0  0
   19.6048   18.6659   24.7568 H   0  0  0  0  0  0  0  0  0  0  0  0
  1  2  1  0  0  0  0
  1  3  1  0  0  0  0
  1  4  1  0  0  0  0
  4  5  1  0  0  0  0
  4  6  1  0  0  0  0
  4  7  1  0  0  0  0
  7  8  1  0  0  0  0
  1  9  1  0  0  0  0
  7  9  1  0  0  0  0
  9 10  1  0  0  0  0
  9 11  1  0  0  0  0
  7 12  1  0  0  0  0
 12 13  1  0  0  0  0
M  END
> <VConfSearch Rank>
158

> <Conf_Id>
20

> <Delta U+W>
1.030

> <U+W>
-2.101

> <U>
0.841

> <W>
-2.942

> <W(PB)>
-4.530

> <W(SA)>
1.587

> <Valence>
6.736

> <Coulomb>
-7.246

> <VdW>
1.352

> <VdW6>
-2.500

> <VdW12>
3.851

> <Bond>
0.063

> <Angle>
0.687

> <Pdih>
5.986

> <Idih>
0.000

> <Tether>
0.000

$$$$
VeraChem MOL file


 13 13  0  0  0  0  0  0  0  0999 V2000     
   20.5461   19.9431   22.3682 C   0  0  0  0  0  0  0  0  0  0  0  0
   20.3927   20.8328   21.7433 H   0  0  0  0  0  0  0  0  0  0  0  0
   21.4060   20.1208   23.0250 H   0  0  0  0  0  0  0  0  0  0  0  0
   20.5463   18.5875   21.5873 C   0  0  0  0  0  0  0  0  0  0  0  0
   20.9400   18.6198   20.5654 H   0  0  0  0  0  0  0  0  0  0  0  0
   21.0183   17.7527   22.1200 H   0  0  0  0  0  0  0  0  0  0  0  0
   18.9946   18.6534   21.7172 C   0  0  0  0  0  0  0  0  0  0  0  0
   18.5107   19.2738   20.9506 H   0  0  0  0  0  0  0  0  0  0  0  0
   19.2530   19.3996   23.0609 C   0  0  0  0  0  0  0  0  0  0  0  0
   19.4359   18.7463   23.9230 H   0  0  0  0  0  0  0  0  0  0  0  0
   18.5044   20.1491   23.3404 H   0  0  0  0  0  0  0  0  0  0  0  0
   18.3442   17.4101   21.8315 O   0  0  0  0  0  0  0  0  0  0  0  0
   18.8166   16.9038   22.5252 H   0  0  0  0  0  0  0  0  0  0  0  0
  1  2  1  0  0  0  0
  1  3  1  0  0  0  0
  1  4  1  0  0  0  0
  4  5  1  0  0  0  0
  4  6  1  0  0  0  0
  4  7  1  0  0  0  0
  7  8  1  0  0  0  0
  1  9  1  0  0  0  0
  7  9  1  0  0  0  0
  9 10  1  0  0  0  0
  9 11  1  0  0  0  0
  7 12  1  0  0  0  0
 12 13  1  0  0  0  0
M  END
> <VConfSearch Rank>
159

> <Conf_Id>
24

> <Delta U+W>
0.356

> <U+W>
-2.775

> <U>
-0.184

> <W>
-2.591

> <W(PB)>
-4.184

> <W(SA)>
1.593

> <Valence>
6.840

> <Coulomb>
-7.916

> <VdW>
0.893

> <VdW6>
-2.167

> <VdW12>
3.060

> <Bond>
0.059

> <Angle>
0.918

> <Pdih>
5.862

> <Idih>
0.000

> <Tether>
0.000

$$$$
VeraChem MOL file


 13 13  0  0  0  0  0  0  0  0999 V2000     
   20.0536   18.9955   23.2748 C   0  0  0  0  0  0  0  0  0  0  0  0
   19.8750   18.6548   24.3017 H   0  0  0  0  0  0  0  0  0  0  0  0
   20.9547   19.6218   23.2693 H   0  0  0  0  0  0  0  0  0  0  0  0
   18.8196   19.6106   22.5338 C   0  0  0  0  0  0  0  0  0  0  0  0
   17.8523   19.1965   22.8433 H   0  0  0  0  0  0  0  0  0  0  0  0
   18.7481   20.7040   22.5397 H   0  0  0  0  0  0  0  0  0  0  0  0
   19.3984   18.9722   21.2332 C   0  0  0  0  0  0  0  0  0  0  0  0
   18.6445   18.5980   20.5288 H   0  0  0  0  0  0  0  0  0  0  0  0
   20.0150   17.8875   22.1699 C   0  0  0  0  0  0  0  0  0  0  0  0
   19.3407   17.0509   22.3901 H   0  0  0  0  0  0  0  0  0  0  0  0
   20.9840   17.4812   21.8590 H   0  0  0  0  0  0  0  0  0  0  0  0
   20.3415   19.7705   20.5514 O   0  0  0  0  0  0  0  0  0  0  0  0
   20.9845   20.0744   21.2249 H   0  0  0  0  0  0  0  0  0  0  0  0
  1  2  1  0  0  0  0
  1  3  1  0  0  0  0
  1  4  1  0  0  0  0
  4  5  1  0  0  0  0
  4  6  1  0  0  0  0
  4  7  1  0  0  0  0
  7  8  1  0  0  0  0
  1  9  1  0  0  0  0
  7  9  1  0  0  0  0
  9 10  1  0  0  0  0
  9 11  1  0  0  0  0
  7 12  1  0  0  0  0
 12 13  1  0  0  0  0
M  END
> <VConfSearch Rank>
160

> <Conf_Id>
44

> <Delta U+W>
0.823

> <U+W>
-2.308

> <U>
0.039

> <W>
-2.348

> <W(PB)>
-3.918

> <W(SA)>
1.571

> <Valence>
7.320

> <Coulomb>
-8.530

> <VdW>
1.249

> <VdW6>
-2.615

> <VdW12>
3.864

> <Bond>
0.056

> <Angle>
0.694

> <Pdih>
6.570

> <Idih>
0.000

> <Tether>
0.000

$$$$
VeraChem MOL file


 13 13  0  0  0  0  0  0  0  0999 V2000     
   20.6220   19.8309   22.7049 C   0  0  0  0  0  0  0  0  0  0  0  0
   20.2788   20.8503   22.9257 H   0  0  0  0  0  0  0  0  0  0  0  0
   21.6791   19.7488   22.9845 H   0  0  0  0  0  0  0  0  0  0  0  0
   20.2460   19.3083   21.2792 C   0  0  0  0  0  0  0  0  0  0  0  0
   20.2064   20.0600   20.4833 H   0  0  0  0  0  0  0  0  0  0  0  0
   20.8417   18.4557   20.9301 H   0  0  0  0  0  0  0  0  0  0  0  0
   18.8766   18.9218   21.9149 C   0  0  0  0  0  0  0  0  0  0  0  0
   18.1620   19.7546   21.9675 H   0  0  0  0  0  0  0  0  0  0  0  0
   19.6823   18.6957   23.2297 C   0  0  0  0  0  0  0  0  0  0  0  0
   19.1456   18.9061   24.1613 H   0  0  0  0  0  0  0  0  0  0  0  0
   20.1561   17.7094   23.3101 H   0  0  0  0  0  0  0  0  0  0  0  0
   18.2659   17.7719   21.3768 O   0  0  0  0  0  0  0  0  0  0  0  0
   17.5101   17.5443   21.9600 H   0  0  0  0  0  0  0  0  0  0  0  0
  1  2  1  0  0  0  0
  1  3  1  0  0  0  0
  1  4  1  0  0  0  0
  4  5  1  0  0  0  0
  4  6  1  0  0  0  0
  4  7  1  0  0  0  0
  7  8  1  0  0  0  0
  1  9  1  0  0  0  0
  7  9  1  0  0  0  0
  9 10  1  0  0  0  0
  9 11  1  0  0  0  0
  7 12  1  0  0  0  0
 12 13  1  0  0  0  0
M  END
> <VConfSearch Rank>
161

> <Conf_Id>
22

> <Delta U+W>
0.000

> <U+W>
-3.131

> <U>
-0.154

> <W>
-2.978

> <W(PB)>
-4.579

> <W(SA)>
1.601

> <Valence>
6.333

> <Coulomb>
-7.439

> <VdW>
0.952

> <VdW6>
-2.120

> <VdW12>
3.072

> <Bond>
0.065

> <Angle>
0.931

> <Pdih>
5.338

> <Idih>
0.000

> <Tether>
0.000

$$$$
VeraChem MOL file


 13 13  0  0  0  0  0  0  0  0999 V2000     
   19.3355   18.0634   23.2006 C   0  0  0  0  0  0  0  0  0  0  0  0
   18.3618   17.5750   23.0635 H   0  0  0  0  0  0  0  0  0  0  0  0
   19.7703   17.7188   24.1464 H   0  0  0  0  0  0  0  0  0  0  0  0
   19.3300   19.6108   22.9705 C   0  0  0  0  0  0  0  0  0  0  0  0
   20.1824   20.1426   23.4114 H   0  0  0  0  0  0  0  0  0  0  0  0
   18.4077   20.1355   23.2429 H   0  0  0  0  0  0  0  0  0  0  0  0
   19.4941   19.2642   21.4598 C   0  0  0  0  0  0  0  0  0  0  0  0
   18.5495   19.0261   20.9518 H   0  0  0  0  0  0  0  0  0  0  0  0
   20.2764   18.0094   21.9520 C   0  0  0  0  0  0  0  0  0  0  0  0
   21.3368   18.1905   22.1671 H   0  0  0  0  0  0  0  0  0  0  0  0
   20.1921   17.1178   21.3210 H   0  0  0  0  0  0  0  0  0  0  0  0
   20.2476   20.1871   20.7081 O   0  0  0  0  0  0  0  0  0  0  0  0
   19.6979   20.9932   20.6020 H   0  0  0  0  0  0  0  0  0  0  0  0
  1  2  1  0  0  0  0
  1  3  1  0  0  0  0
  1  4  1  0  0  0  0
  4  5  1  0  0  0  0
  4  6  1  0  0  0  0
  4  7  1  0  0  0  0
  7  8  1  0  0  0  0
  1  9  1  0  0  0  0
  7  9  1  0  0  0  0
  9 10  1  0  0  0  0
  9 11  1  0  0  0  0
  7 12  1  0  0  0  0
 12 13  1  0  0  0  0
M  END
> <VConfSearch Rank>
162

> <Conf_Id>
19

> <Delta U+W>
-0.011

> <U+W>
-3.142

> <U>
-0.154

> <W>
-2.989

> <W(PB)>
-4.588

> <W(SA)>
1.599

> <Valence>
6.334

> <Coulomb>
-7.439

> <VdW>
0.951

> <VdW6>
-2.120

> <VdW12>
3.072

> <Bond>
0.065

> <Angle>
0.930

> <Pdih>
5.339

> <Idih>
0.000

> <Tether>
0.000

$$$$
VeraChem MOL file


 13 13  0  0  0  0  0  0  0  0999 V2000     
   19.0749   20.0939   22.6339 C   0  0  0  0  0  0  0  0  0  0  0  0
   18.2616   20.7967   22.4183 H   0  0  0  0  0  0  0  0  0  0  0  0
   19.5631   20.3980   23.5690 H   0  0  0  0  0  0  0  0  0  0  0  0
   20.0592   19.7970   21.4540 C   0  0  0  0  0  0  0  0  0  0  0  0
   19.6045   19.8515   20.4575 H   0  0  0  0  0  0  0  0  0  0  0  0
   20.9898   20.3751   21.4468 H   0  0  0  0  0  0  0  0  0  0  0  0
   20.1639   18.3507   22.0308 C   0  0  0  0  0  0  0  0  0  0  0  0
   20.2636   17.5626   21.2733 H   0  0  0  0  0  0  0  0  0  0  0  0
   18.7108   18.5741   22.5547 C   0  0  0  0  0  0  0  0  0  0  0  0
   18.4635   18.0892   23.5055 H   0  0  0  0  0  0  0  0  0  0  0  0
   17.9284   18.3322   21.8250 H   0  0  0  0  0  0  0  0  0  0  0  0
   21.1421   18.1810   23.0371 O   0  0  0  0  0  0  0  0  0  0  0  0
   20.9962   17.2979   23.4383 H   0  0  0  0  0  0  0  0  0  0  0  0
  1  2  1  0  0  0  0
  1  3  1  0  0  0  0
  1  4  1  0  0  0  0
  4  5  1  0  0  0  0
  4  6  1  0  0  0  0
  4  7  1  0  0  0  0
  7  8  1  0  0  0  0
  1  9  1  0  0  0  0
  7  9  1  0  0  0  0
  9 10  1  0  0  0  0
  9 11  1  0  0  0  0
  7 12  1  0  0  0  0
 12 13  1  0  0  0  0
M  END
> <VConfSearch Rank>
163

> <Conf_Id>
20

> <Delta U+W>
1.030

> <U+W>
-2.101

> <U>
0.841

> <W>
-2.942

> <W(PB)>
-4.530

> <W(SA)>
1.587

> <Valence>
6.736

> <Coulomb>
-7.246

> <VdW>
1.352

> <VdW6>
-2.500

> <VdW12>
3.851

> <Bond>
0.063

> <Angle>
0.687

> <Pdih>
5.986

> <Idih>
0.000

> <Tether>
0.000

$$$$
VeraChem MOL file


 13 13  0  0  0  0  0  0  0  0999 V2000     
   19.2883   18.8949   23.4076 C   0  0  0  0  0  0  0  0  0  0  0  0
   19.9988   18.7074   24.2235 H   0  0  0  0  0  0  0  0  0  0  0  0
   18.2834   18.9955   23.8348 H   0  0  0  0  0  0  0  0  0  0  0  0
   19.4224   17.9249   22.1876 C   0  0  0  0  0  0  0  0  0  0  0  0
   19.7431   16.9028   22.4173 H   0  0  0  0  0  0  0  0  0  0  0  0
   18.5381   17.8791   21.5401 H   0  0  0  0  0  0  0  0  0  0  0  0
   20.5426   18.8919   21.6986 C   0  0  0  0  0  0  0  0  0  0  0  0
   21.5234   18.7027   22.1557 H   0  0  0  0  0  0  0  0  0  0  0  0
   19.7240   20.0142   22.4053 C   0  0  0  0  0  0  0  0  0  0  0  0
   18.9071   20.4355   21.8065 H   0  0  0  0  0  0  0  0  0  0  0  0
   20.3112   20.8374   22.8273 H   0  0  0  0  0  0  0  0  0  0  0  0
   20.6632   19.0200   20.3019 O   0  0  0  0  0  0  0  0  0  0  0  0
   19.7630   19.1865   19.9518 H   0  0  0  0  0  0  0  0  0  0  0  0
  1  2  1  0  0  0  0
  1  3  1  0  0  0  0
  1  4  1  0  0  0  0
  4  5  1  0  0  0  0
  4  6  1  0  0  0  0
  4  7  1  0  0  0  0
  7  8  1  0  0  0  0
  1  9  1  0  0  0  0
  7  9  1  0  0  0  0
  9 10  1  0  0  0  0
  9 11  1  0  0  0  0
  7 12  1  0  0  0  0
 12 13  1  0  0  0  0
M  END
> <VConfSearch Rank>
164

> <Conf_Id>
24

> <Delta U+W>
0.356

> <U+W>
-2.775

> <U>
-0.184

> <W>
-2.591

> <W(PB)>
-4.184

> <W(SA)>
1.593

> <Valence>
6.840

> <Coulomb>
-7.916

> <VdW>
0.893

> <VdW6>
-2.167

> <VdW12>
3.060

> <Bond>
0.059

> <Angle>
0.918

> <Pdih>
5.862

> <Idih>
0.000

> <Tether>
0.000

$$$$
VeraChem MOL file


 13 13  0  0  0  0  0  0  0  0999 V2000     
   20.2991   19.6598   21.5582 C   0  0  0  0  0  0  0  0  0  0  0  0
   20.3331   20.2248   20.6190 H   0  0  0  0  0  0  0  0  0  0  0  0
   21.2404   19.8266   22.0972 H   0  0  0  0  0  0  0  0  0  0  0  0
   19.8651   18.1606   21.4395 C   0  0  0  0  0  0  0  0  0  0  0  0
   19.1689   17.9539   20.6175 H   0  0  0  0  0  0  0  0  0  0  0  0
   20.6758   17.4243   21.4026 H   0  0  0  0  0  0  0  0  0  0  0  0
   19.1751   18.3460   22.8264 C   0  0  0  0  0  0  0  0  0  0  0  0
   18.2353   17.7931   22.9509 H   0  0  0  0  0  0  0  0  0  0  0  0
   19.0055   19.8428   22.4202 C   0  0  0  0  0  0  0  0  0  0  0  0
   18.0985   20.0485   21.8387 H   0  0  0  0  0  0  0  0  0  0  0  0
   19.0679   20.5706   23.2369 H   0  0  0  0  0  0  0  0  0  0  0  0
   20.0150   18.1265   23.9391 O   0  0  0  0  0  0  0  0  0  0  0  0
   20.8322   18.6404   23.7739 H   0  0  0  0  0  0  0  0  0  0  0  0
  1  2  1  0  0  0  0
  1  3  1  0  0  0  0
  1  4  1  0  0  0  0
  4  5  1  0  0  0  0
  4  6  1  0  0  0  0
  4  7  1  0  0  0  0
  7  8  1  0  0  0  0
  1  9  1  0  0  0  0
  7  9  1  0  0  0  0
  9 10  1  0  0  0  0
  9 11  1  0  0  0  0
  7 12  1  0  0  0  0
 12 13  1  0  0  0  0
M  END
> <VConfSearch Rank>
165

> <Conf_Id>
44

> <Delta U+W>
0.823

> <U+W>
-2.308

> <U>
0.039

> <W>
-2.348

> <W(PB)>
-3.918

> <W(SA)>
1.571

> <Valence>
7.320

> <Coulomb>
-8.530

> <VdW>
1.249

> <VdW6>
-2.615

> <VdW12>
3.864

> <Bond>
0.056

> <Angle>
0.694

> <Pdih>
6.570

> <Idih>
0.000

> <Tether>
0.000

$$$$
VeraChem MOL file


 13 13  0  0  0  0  0  0  0  0999 V2000     
   20.7636   19.7770   22.2382 C   0  0  0  0  0  0  0  0  0  0  0  0
   20.7165   20.6229   21.5397 H   0  0  0  0  0  0  0  0  0  0  0  0
   21.7178   19.8201   22.7767 H   0  0  0  0  0  0  0  0  0  0  0  0
   20.3883   18.3921   21.6150 C   0  0  0  0  0  0  0  0  0  0  0  0
   20.6482   18.2499   20.5604 H   0  0  0  0  0  0  0  0  0  0  0  0
   20.7370   17.5218   22.1848 H   0  0  0  0  0  0  0  0  0  0  0  0
   18.9116   18.8008   21.8999 C   0  0  0  0  0  0  0  0  0  0  0  0
   18.4725   19.4432   21.1243 H   0  0  0  0  0  0  0  0  0  0  0  0
   19.4855   19.5836   23.1193 C   0  0  0  0  0  0  0  0  0  0  0  0
   18.9482   20.4972   23.3966 H   0  0  0  0  0  0  0  0  0  0  0  0
   19.6378   18.9762   24.0202 H   0  0  0  0  0  0  0  0  0  0  0  0
   18.0437   17.7384   22.2200 O   0  0  0  0  0  0  0  0  0  0  0  0
   17.2022   18.1347   22.5331 H   0  0  0  0  0  0  0  0  0  0  0  0
  1  2  1  0  0  0  0
  1  3  1  0  0  0  0
  1  4  1  0  0  0  0
  4  5  1  0  0  0  0
  4  6  1  0  0  0  0
  4  7  1  0  0  0  0
  7  8  1  0  0  0  0
  1  9  1  0  0  0  0
  7  9  1  0  0  0  0
  9 10  1  0  0  0  0
  9 11  1  0  0  0  0
  7 12  1  0  0  0  0
 12 13  1  0  0  0  0
M  END
> <VConfSearch Rank>
166

> <Conf_Id>
22

> <Delta U+W>
0.000

> <U+W>
-3.131

> <U>
-0.154

> <W>
-2.978

> <W(PB)>
-4.579

> <W(SA)>
1.601

> <Valence>
6.333

> <Coulomb>
-7.439

> <VdW>
0.952

> <VdW6>
-2.120

> <VdW12>
3.072

> <Bond>
0.065

> <Angle>
0.931

> <Pdih>
5.338

> <Idih>
0.000

> <Tether>
0.000

$$$$
VeraChem MOL file


 13 13  0  0  0  0  0  0  0  0999 V2000     
   20.5605   19.5000   21.5080 C   0  0  0  0  0  0  0  0  0  0  0  0
   20.5717   20.5947   21.5930 H   0  0  0  0  0  0  0  0  0  0  0  0
   21.3165   19.1978   20.7735 H   0  0  0  0  0  0  0  0  0  0  0  0
   19.1390   18.8719   21.3291 C   0  0  0  0  0  0  0  0  0  0  0  0
   19.1364   17.8526   20.9230 H   0  0  0  0  0  0  0  0  0  0  0  0
   18.4118   19.4746   20.7740 H   0  0  0  0  0  0  0  0  0  0  0  0
   19.0422   18.9501   22.8827 C   0  0  0  0  0  0  0  0  0  0  0  0
   18.7330   19.9340   23.2612 H   0  0  0  0  0  0  0  0  0  0  0  0
   20.5861   18.7373   22.8736 C   0  0  0  0  0  0  0  0  0  0  0  0
   20.8998   17.6881   22.8085 H   0  0  0  0  0  0  0  0  0  0  0  0
   21.1382   19.2203   23.6872 H   0  0  0  0  0  0  0  0  0  0  0  0
   18.2962   17.9225   23.4926 O   0  0  0  0  0  0  0  0  0  0  0  0
   17.3506   18.0905   23.2905 H   0  0  0  0  0  0  0  0  0  0  0  0
  1  2  1  0  0  0  0
  1  3  1  0  0  0  0
  1  4  1  0  0  0  0
  4  5  1  0  0  0  0
  4  6  1  0  0  0  0
  4  7  1  0  0  0  0
  7  8  1  0  0  0  0
  1  9  1  0  0  0  0
  7  9  1  0  0  0  0
  9 10  1  0  0  0  0
  9 11  1  0  0  0  0
  7 12  1  0  0  0  0
 12 13  1  0  0  0  0
M  END
> <VConfSearch Rank>
167

> <Conf_Id>
19

> <Delta U+W>
-0.011

> <U+W>
-3.142

> <U>
-0.154

> <W>
-2.989

> <W(PB)>
-4.588

> <W(SA)>
1.599

> <Valence>
6.334

> <Coulomb>
-7.439

> <VdW>
0.951

> <VdW6>
-2.120

> <VdW12>
3.072

> <Bond>
0.065

> <Angle>
0.930

> <Pdih>
5.339

> <Idih>
0.000

> <Tether>
0.000

$$$$
VeraChem MOL file


 13 13  0  0  0  0  0  0  0  0999 V2000     
   19.9852   18.2098   23.1054 C   0  0  0  0  0  0  0  0  0  0  0  0
   20.1786   18.0153   24.1669 H   0  0  0  0  0  0  0  0  0  0  0  0
   20.0941   17.2688   22.5505 H   0  0  0  0  0  0  0  0  0  0  0  0
   20.7459   19.4253   22.4785 C   0  0  0  0  0  0  0  0  0  0  0  0
   20.9497   20.2446   23.1784 H   0  0  0  0  0  0  0  0  0  0  0  0
   21.6691   19.1883   21.9380 H   0  0  0  0  0  0  0  0  0  0  0  0
   19.4785   19.6404   21.5937 C   0  0  0  0  0  0  0  0  0  0  0  0
   19.2394   20.6912   21.3855 H   0  0  0  0  0  0  0  0  0  0  0  0
   18.6812   19.0106   22.7785 C   0  0  0  0  0  0  0  0  0  0  0  0
   17.8060   18.4117   22.5034 H   0  0  0  0  0  0  0  0  0  0  0  0
   18.3841   19.7294   23.5519 H   0  0  0  0  0  0  0  0  0  0  0  0
   19.4564   18.8924   20.3944 O   0  0  0  0  0  0  0  0  0  0  0  0
   18.5537   18.9718   20.0190 H   0  0  0  0  0  0  0  0  0  0  0  0
  1  2  1  0  0  0  0
  1  3  1  0  0  0  0
  1  4  1  0  0  0  0
  4  5  1  0  0  0  0
  4  6  1  0  0  0  0
  4  7  1  0  0  0  0
  7  8  1  0  0  0  0
  1  9  1  0  0  0  0
  7  9  1  0  0  0  0
  9 10  1  0  0  0  0
  9 11  1  0  0  0  0
  7 12  1  0  0  0  0
 12 13  1  0  0  0  0
M  END
> <VConfSearch Rank>
168

> <Conf_Id>
20

> <Delta U+W>
1.030

> <U+W>
-2.101

> <U>
0.841

> <W>
-2.942

> <W(PB)>
-4.530

> <W(SA)>
1.587

> <Valence>
6.736

> <Coulomb>
-7.246

> <VdW>
1.352

> <VdW6>
-2.500

> <VdW12>
3.851

> <Bond>
0.063

> <Angle>
0.687

> <Pdih>
5.986

> <Idih>
0.000

> <Tether>
0.000

$$$$
VeraChem MOL file


 13 13  0  0  0  0  0  0  0  0999 V2000     
   20.6388   18.5212   23.0248 C   0  0  0  0  0  0  0  0  0  0  0  0
   21.6857   18.5310   22.6937 H   0  0  0  0  0  0  0  0  0  0  0  0
   20.5976   18.1165   24.0431 H   0  0  0  0  0  0  0  0  0  0  0  0
   19.6339   17.9022   21.9981 C   0  0  0  0  0  0  0  0  0  0  0  0
   20.0229   17.0924   21.3709 H   0  0  0  0  0  0  0  0  0  0  0  0
   18.6767   17.5843   22.4295 H   0  0  0  0  0  0  0  0  0  0  0  0
   19.6199   19.3171   21.3448 C   0  0  0  0  0  0  0  0  0  0  0  0
   20.4559   19.4960   20.6549 H   0  0  0  0  0  0  0  0  0  0  0  0
   19.8646   19.8594   22.7853 C   0  0  0  0  0  0  0  0  0  0  0  0
   18.9590   19.9790   23.3927 H   0  0  0  0  0  0  0  0  0  0  0  0
   20.4574   20.7782   22.8534 H   0  0  0  0  0  0  0  0  0  0  0  0
   18.4001   19.6984   20.7545 O   0  0  0  0  0  0  0  0  0  0  0  0
   17.6960   19.5170   21.4119 H   0  0  0  0  0  0  0  0  0  0  0  0
  1  2  1  0  0  0  0
  1  3  1  0  0  0  0
  1  4  1  0  0  0  0
  4  5  1  0  0  0  0
  4  6  1  0  0  0  0
  4  7  1  0  0  0  0
  7  8  1  0  0  0  0
  1  9  1  0  0  0  0
  7  9  1  0  0  0  0
  9 10  1  0  0  0  0
  9 11  1  0  0  0  0
  7 12  1  0  0  0  0
 12 13  1  0  0  0  0
M  END
> <VConfSearch Rank>
169

> <Conf_Id>
24

> <Delta U+W>
0.356

> <U+W>
-2.775

> <U>
-0.184

> <W>
-2.591

> <W(PB)>
-4.184

> <W(SA)>
1.593

> <Valence>
6.840

> <Coulomb>
-7.916

> <VdW>
0.893

> <VdW6>
-2.167

> <VdW12>
3.060

> <Bond>
0.059

> <Angle>
0.918

> <Pdih>
5.862

> <Idih>
0.000

> <Tether>
0.000

$$$$
VeraChem MOL file


 13 13  0  0  0  0  0  0  0  0999 V2000     
   19.8546   20.0620   21.9883 C   0  0  0  0  0  0  0  0  0  0  0  0
   20.3414   20.9908   22.3088 H   0  0  0  0  0  0  0  0  0  0  0  0
   19.2847   20.2674   21.0732 H   0  0  0  0  0  0  0  0  0  0  0  0
   19.0655   19.2858   23.0951 C   0  0  0  0  0  0  0  0  0  0  0  0
   19.4701   19.4043   24.1077 H   0  0  0  0  0  0  0  0  0  0  0  0
   17.9842   19.4598   23.1297 H   0  0  0  0  0  0  0  0  0  0  0  0
   19.5233   17.9792   22.3759 C   0  0  0  0  0  0  0  0  0  0  0  0
   19.7416   17.1372   23.0451 H   0  0  0  0  0  0  0  0  0  0  0  0
   20.7726   18.7960   21.9220 C   0  0  0  0  0  0  0  0  0  0  0  0
   21.5957   18.7944   22.6470 H   0  0  0  0  0  0  0  0  0  0  0  0
   21.1772   18.5436   20.9354 H   0  0  0  0  0  0  0  0  0  0  0  0
   18.6804   17.5553   21.3264 O   0  0  0  0  0  0  0  0  0  0  0  0
   18.5207   18.3421   20.7654 H   0  0  0  0  0  0  0  0  0  0  0  0
  1  2  1  0  0  0  0
  1  3  1  0  0  0  0
  1  4  1  0  0  0  0
  4  5  1  0  0  0  0
  4  6  1  0  0  0  0
  4  7  1  0  0  0  0
  7  8  1  0  0  0  0
  1  9  1  0  0  0  0
  7  9  1  0  0  0  0
  9 10  1  0  0  0  0
  9 11  1  0  0  0  0
  7 12  1  0  0  0  0
 12 13  1  0  0  0  0
M  END
> <VConfSearch Rank>
170

> <Conf_Id>
44

> <Delta U+W>
0.823

> <U+W>
-2.308

> <U>
0.039

> <W>
-2.348

> <W(PB)>
-3.918

> <W(SA)>
1.571

> <Valence>
7.320

> <Coulomb>
-8.530

> <VdW>
1.249

> <VdW6>
-2.615

> <VdW12>
3.864

> <Bond>
0.056

> <Angle>
0.694

> <Pdih>
6.570

> <Idih>
0.000

> <Tether>
0.000

$$$$
VeraChem MOL file


 13 13  0  0  0  0  0  0  0  0999 V2000     
   20.1052   20.1756   22.7644 C   0  0  0  0  0  0  0  0  0  0  0  0
   21.1303   20.4262   22.4610 H   0  0  0  0  0  0  0  0  0  0  0  0
   19.7148   20.9901   23.3862 H   0  0  0  0  0  0  0  0  0  0  0  0
   19.9263   18.7298   23.3344 C   0  0  0  0  0  0  0  0  0  0  0  0
   20.7792   18.3180   23.8849 H   0  0  0  0  0  0  0  0  0  0  0  0
   19.0166   18.5792   23.9288 H   0  0  0  0  0  0  0  0  0  0  0  0
   19.8045   18.2886   21.8447 C   0  0  0  0  0  0  0  0  0  0  0  0
   20.7722   18.1394   21.3464 H   0  0  0  0  0  0  0  0  0  0  0  0
   19.1773   19.6943   21.6005 C   0  0  0  0  0  0  0  0  0  0  0  0
   19.3674   20.1382   20.6172 H   0  0  0  0  0  0  0  0  0  0  0  0
   18.1031   19.7577   21.8149 H   0  0  0  0  0  0  0  0  0  0  0  0
   18.9466   17.1965   21.6083 O   0  0  0  0  0  0  0  0  0  0  0  0
   18.8291   17.1241   20.6366 H   0  0  0  0  0  0  0  0  0  0  0  0
  1  2  1  0  0  0  0
  1  3  1  0  0  0  0
  1  4  1  0  0  0  0
  4  5  1  0  0  0  0
  4  6  1  0  0  0  0
  4  7  1  0  0  0  0
  7  8  1  0  0  0  0
  1  9  1  0  0  0  0
  7  9  1  0  0  0  0
  9 10  1  0  0  0  0
  9 11  1  0  0  0  0
  7 12  1  0  0  0  0
 12 13  1  0  0  0  0
M  END
> <VConfSearch Rank>
171

> <Conf_Id>
22

> <Delta U+W>
0.000

> <U+W>
-3.131

> <U>
-0.154

> <W>
-2.978

> <W(PB)>
-4.579

> <W(SA)>
1.601

> <Valence>
6.333

> <Coulomb>
-7.439

> <VdW>
0.952

> <VdW6>
-2.120

> <VdW12>
3.072

> <Bond>
0.065

> <Angle>
0.931

> <Pdih>
5.338

> <Idih>
0.000

> <Tether>
0.000

$$$$
VeraChem MOL file


 13 13  0  0  0  0  0  0  0  0999 V2000     
   19.0641   20.0839   22.5295 C   0  0  0  0  0  0  0  0  0  0  0  0
   19.6956   20.7394   23.1436 H   0  0  0  0  0  0  0  0  0  0  0  0
   18.0985   20.5779   22.3685 H   0  0  0  0  0  0  0  0  0  0  0  0
   19.0032   18.5963   23.0097 C   0  0  0  0  0  0  0  0  0  0  0  0
   18.1493   18.0251   22.6243 H   0  0  0  0  0  0  0  0  0  0  0  0
   19.0762   18.4351   24.0908 H   0  0  0  0  0  0  0  0  0  0  0  0
   20.3240   18.4094   22.2036 C   0  0  0  0  0  0  0  0  0  0  0  0
   21.2269   18.7144   22.7503 H   0  0  0  0  0  0  0  0  0  0  0  0
   19.7633   19.5099   21.2532 C   0  0  0  0  0  0  0  0  0  0  0  0
   19.0780   19.1378   20.4815 H   0  0  0  0  0  0  0  0  0  0  0  0
   20.5105   20.1557   20.7792 H   0  0  0  0  0  0  0  0  0  0  0  0
   20.4985   17.1399   21.6183 O   0  0  0  0  0  0  0  0  0  0  0  0
   20.6940   16.5094   22.3446 H   0  0  0  0  0  0  0  0  0  0  0  0
  1  2  1  0  0  0  0
  1  3  1  0  0  0  0
  1  4  1  0  0  0  0
  4  5  1  0  0  0  0
  4  6  1  0  0  0  0
  4  7  1  0  0  0  0
  7  8  1  0  0  0  0
  1  9  1  0  0  0  0
  7  9  1  0  0  0  0
  9 10  1  0  0  0  0
  9 11  1  0  0  0  0
  7 12  1  0  0  0  0
 12 13  1  0  0  0  0
M  END
> <VConfSearch Rank>
172

> <Conf_Id>
19

> <Delta U+W>
-0.011

> <U+W>
-3.142

> <U>
-0.154

> <W>
-2.989

> <W(PB)>
-4.588

> <W(SA)>
1.599

> <Valence>
6.334

> <Coulomb>
-7.439

> <VdW>
0.951

> <VdW6>
-2.120

> <VdW12>
3.072

> <Bond>
0.065

> <Angle>
0.930

> <Pdih>
5.339

> <Idih>
0.000

> <Tether>
0.000

$$$$
VeraChem MOL file


 13 13  0  0  0  0  0  0  0  0999 V2000     
   19.6937   18.8909   23.4999 C   0  0  0  0  0  0  0  0  0  0  0  0
   19.1360   18.5992   24.3976 H   0  0  0  0  0  0  0  0  0  0  0  0
   20.7435   19.0542   23.7763 H   0  0  0  0  0  0  0  0  0  0  0  0
   19.0630   20.0357   22.6392 C   0  0  0  0  0  0  0  0  0  0  0  0
   17.9672   20.0731   22.6647 H   0  0  0  0  0  0  0  0  0  0  0  0
   19.4524   21.0437   22.8198 H   0  0  0  0  0  0  0  0  0  0  0  0
   19.6488   19.2950   21.3967 C   0  0  0  0  0  0  0  0  0  0  0  0
   19.0212   19.3441   20.4975 H   0  0  0  0  0  0  0  0  0  0  0  0
   19.4860   17.9900   22.2373 C   0  0  0  0  0  0  0  0  0  0  0  0
   20.2419   17.2146   22.0709 H   0  0  0  0  0  0  0  0  0  0  0  0
   18.4925   17.5310   22.1657 H   0  0  0  0  0  0  0  0  0  0  0  0
   20.9824   19.6360   21.0752 O   0  0  0  0  0  0  0  0  0  0  0  0
   21.2931   18.9922   20.4034 H   0  0  0  0  0  0  0  0  0  0  0  0
  1  2  1  0  0  0  0
  1  3  1  0  0  0  0
  1  4  1  0  0  0  0
  4  5  1  0  0  0  0
  4  6  1  0  0  0  0
  4  7  1  0  0  0  0
  7  8  1  0  0  0  0
  1  9  1  0  0  0  0
  7  9  1  0  0  0  0
  9 10  1  0  0  0  0
  9 11  1  0  0  0  0
  7 12  1  0  0  0  0
 12 13  1  0  0  0  0
M  END
> <VConfSearch Rank>
173

> <Conf_Id>
20

> <Delta U+W>
1.030

> <U+W>
-2.101

> <U>
0.841

> <W>
-2.942

> <W(PB)>
-4.530

> <W(SA)>
1.587

> <Valence>
6.736

> <Coulomb>
-7.246

> <VdW>
1.352

> <VdW6>
-2.500

> <VdW12>
3.851

> <Bond>
0.063

> <Angle>
0.687

> <Pdih>
5.986

> <Idih>
0.000

> <Tether>
0.000

$$$$
VeraChem MOL file


 13 13  0  0  0  0  0  0  0  0999 V2000     
   20.6393   18.4567   21.4378 C   0  0  0  0  0  0  0  0  0  0  0  0
   20.5083   17.4207   21.0982 H   0  0  0  0  0  0  0  0  0  0  0  0
   21.5665   18.8519   21.0059 H   0  0  0  0  0  0  0  0  0  0  0  0
   20.4528   18.6690   22.9765 C   0  0  0  0  0  0  0  0  0  0  0  0
   20.7551   17.8343   23.6185 H   0  0  0  0  0  0  0  0  0  0  0  0
   20.8965   19.5927   23.3679 H   0  0  0  0  0  0  0  0  0  0  0  0
   18.9303   18.7589   22.6553 C   0  0  0  0  0  0  0  0  0  0  0  0
   18.4355   17.7816   22.5725 H   0  0  0  0  0  0  0  0  0  0  0  0
   19.3710   19.3599   21.2865 C   0  0  0  0  0  0  0  0  0  0  0  0
   19.5729   20.4381   21.3002 H   0  0  0  0  0  0  0  0  0  0  0  0
   18.7179   19.1355   20.4360 H   0  0  0  0  0  0  0  0  0  0  0  0
   18.1878   19.6218   23.4834 O   0  0  0  0  0  0  0  0  0  0  0  0
   18.6747   20.4717   23.5193 H   0  0  0  0  0  0  0  0  0  0  0  0
  1  2  1  0  0  0  0
  1  3  1  0  0  0  0
  1  4  1  0  0  0  0
  4  5  1  0  0  0  0
  4  6  1  0  0  0  0
  4  7  1  0  0  0  0
  7  8  1  0  0  0  0
  1  9  1  0  0  0  0
  7  9  1  0  0  0  0
  9 10  1  0  0  0  0
  9 11  1  0  0  0  0
  7 12  1  0  0  0  0
 12 13  1  0  0  0  0
M  END
> <VConfSearch Rank>
174

> <Conf_Id>
24

> <Delta U+W>
0.356

> <U+W>
-2.775

> <U>
-0.184

> <W>
-2.591

> <W(PB)>
-4.184

> <W(SA)>
1.593

> <Valence>
6.840

> <Coulomb>
-7.916

> <VdW>
0.893

> <VdW6>
-2.167

> <VdW12>
3.060

> <Bond>
0.059

> <Angle>
0.918

> <Pdih>
5.862

> <Idih>
0.000

> <Tether>
0.000

$$$$
VeraChem MOL file


 13 13  0  0  0  0  0  0  0  0999 V2000     
   19.2769   19.8885   22.7094 C   0  0  0  0  0  0  0  0  0  0  0  0
   19.4638   20.9308   22.9942 H   0  0  0  0  0  0  0  0  0  0  0  0
   18.2692   19.6128   23.0453 H   0  0  0  0  0  0  0  0  0  0  0  0
   20.3996   18.8647   23.0856 C   0  0  0  0  0  0  0  0  0  0  0  0
   21.4122   19.2860   23.0969 H   0  0  0  0  0  0  0  0  0  0  0  0
   20.2474   18.2994   24.0119 H   0  0  0  0  0  0  0  0  0  0  0  0
   20.0351   18.1193   21.7644 C   0  0  0  0  0  0  0  0  0  0  0  0
   20.8870   17.6672   21.2404 H   0  0  0  0  0  0  0  0  0  0  0  0
   19.6005   19.5168   21.2237 C   0  0  0  0  0  0  0  0  0  0  0  0
   20.4172   20.0980   20.7785 H   0  0  0  0  0  0  0  0  0  0  0  0
   18.7528   19.5191   20.5294 H   0  0  0  0  0  0  0  0  0  0  0  0
   18.9889   17.1799   21.8844 O   0  0  0  0  0  0  0  0  0  0  0  0
   18.2614   17.6354   22.3561 H   0  0  0  0  0  0  0  0  0  0  0  0
  1  2  1  0  0  0  0
  1  3  1  0  0  0  0
  1  4  1  0  0  0  0
  4  5  1  0  0  0  0
  4  6  1  0  0  0  0
  4  7  1  0  0  0  0
  7  8  1  0  0  0  0
  1  9  1  0  0  0  0
  7  9  1  0  0  0  0
  9 10  1  0  0  0  0
  9 11  1  0  0  0  0
  7 12  1  0  0  0  0
 12 13  1  0  0  0  0
M  END
> <VConfSearch Rank>
175

> <Conf_Id>
44

> <Delta U+W>
0.823

> <U+W>
-2.308

> <U>
0.039

> <W>
-2.348

> <W(PB)>
-3.918

> <W(SA)>
1.571

> <Valence>
7.320

> <Coulomb>
-8.530

> <VdW>
1.249

> <VdW6>
-2.615

> <VdW12>
3.864

> <Bond>
0.056

> <Angle>
0.694

> <Pdih>
6.570

> <Idih>
0.000

> <Tether>
0.000

$$$$
VeraChem MOL file


 13 13  0  0  0  0  0  0  0  0999 V2000     
   19.5105   20.3236   21.9717 C   0  0  0  0  0  0  0  0  0  0  0  0
   20.0112   20.6348   21.0454 H   0  0  0  0  0  0  0  0  0  0  0  0
   18.9678   21.1833   22.3824 H   0  0  0  0  0  0  0  0  0  0  0  0
   20.4198   19.5415   22.9761 C   0  0  0  0  0  0  0  0  0  0  0  0
   21.4782   19.8234   22.9908 H   0  0  0  0  0  0  0  0  0  0  0  0
   20.0476   19.5140   24.0077 H   0  0  0  0  0  0  0  0  0  0  0  0
   20.0655   18.2828   22.1282 C   0  0  0  0  0  0  0  0  0  0  0  0
   20.6883   18.1636   21.2310 H   0  0  0  0  0  0  0  0  0  0  0  0
   18.7018   18.9890   21.8622 C   0  0  0  0  0  0  0  0  0  0  0  0
   18.2389   18.7840   20.8906 H   0  0  0  0  0  0  0  0  0  0  0  0
   17.9513   18.8422   22.6490 H   0  0  0  0  0  0  0  0  0  0  0  0
   19.9881   17.0742   22.8477 O   0  0  0  0  0  0  0  0  0  0  0  0
   19.6038   16.4014   22.2454 H   0  0  0  0  0  0  0  0  0  0  0  0
  1  2  1  0  0  0  0
  1  3  1  0  0  0  0
  1  4  1  0  0  0  0
  4  5  1  0  0  0  0
  4  6  1  0  0  0  0
  4  7  1  0  0  0  0
  7  8  1  0  0  0  0
  1  9  1  0  0  0  0
  7  9  1  0  0  0  0
  9 10  1  0  0  0  0
  9 11  1  0  0  0  0
  7 12  1  0  0  0  0
 12 13  1  0  0  0  0
M  END
> <VConfSearch Rank>
176

> <Conf_Id>
22

> <Delta U+W>
0.000

> <U+W>
-3.131

> <U>
-0.154

> <W>
-2.978

> <W(PB)>
-4.579

> <W(SA)>
1.601

> <Valence>
6.333

> <Coulomb>
-7.439

> <VdW>
0.952

> <VdW6>
-2.120

> <VdW12>
3.072

> <Bond>
0.065

> <Angle>
0.931

> <Pdih>
5.338

> <Idih>
0.000

> <Tether>
0.000

$$$$
VeraChem MOL file


 13 13  0  0  0  0  0  0  0  0999 V2000     
   20.0279   17.8379   22.8777 C   0  0  0  0  0  0  0  0  0  0  0  0
   19.1995   17.2170   23.2435 H   0  0  0  0  0  0  0  0  0  0  0  0
   20.9735   17.3847   23.1982 H   0  0  0  0  0  0  0  0  0  0  0  0
   19.8708   19.3693   23.1564 C   0  0  0  0  0  0  0  0  0  0  0  0
   20.8041   19.9433   23.1000 H   0  0  0  0  0  0  0  0  0  0  0  0
   19.3453   19.6402   24.0787 H   0  0  0  0  0  0  0  0  0  0  0  0
   19.0152   19.3947   21.8539 C   0  0  0  0  0  0  0  0  0  0  0  0
   17.9675   19.0993   22.0028 H   0  0  0  0  0  0  0  0  0  0  0  0
   19.9324   18.2326   21.3670 C   0  0  0  0  0  0  0  0  0  0  0  0
   20.8781   18.5584   20.9162 H   0  0  0  0  0  0  0  0  0  0  0  0
   19.4605   17.4991   20.7043 H   0  0  0  0  0  0  0  0  0  0  0  0
   19.0979   20.5829   21.1015 O   0  0  0  0  0  0  0  0  0  0  0  0
   18.6092   21.2751   21.5968 H   0  0  0  0  0  0  0  0  0  0  0  0
  1  2  1  0  0  0  0
  1  3  1  0  0  0  0
  1  4  1  0  0  0  0
  4  5  1  0  0  0  0
  4  6  1  0  0  0  0
  4  7  1  0  0  0  0
  7  8  1  0  0  0  0
  1  9  1  0  0  0  0
  7  9  1  0  0  0  0
  9 10  1  0  0  0  0
  9 11  1  0  0  0  0
  7 12  1  0  0  0  0
 12 13  1  0  0  0  0
M  END
> <VConfSearch Rank>
177

> <Conf_Id>
19

> <Delta U+W>
-0.011

> <U+W>
-3.142

> <U>
-0.154

> <W>
-2.989

> <W(PB)>
-4.588

> <W(SA)>
1.599

> <Valence>
6.334

> <Coulomb>
-7.439

> <VdW>
0.951

> <VdW6>
-2.120

> <VdW12>
3.072

> <Bond>
0.065

> <Angle>
0.930

> <Pdih>
5.339

> <Idih>
0.000

> <Tether>
0.000

$$$$
VeraChem MOL file


 13 13  0  0  0  0  0  0  0  0999 V2000     
   20.3526   18.1752   22.7568 C   0  0  0  0  0  0  0  0  0  0  0  0
   20.3719   17.2377   23.3249 H   0  0  0  0  0  0  0  0  0  0  0  0
   21.3740   18.4078   22.4283 H   0  0  0  0  0  0  0  0  0  0  0  0
   19.5979   19.3711   23.4272 C   0  0  0  0  0  0  0  0  0  0  0  0
   18.7572   19.0772   24.0672 H   0  0  0  0  0  0  0  0  0  0  0  0
   20.2209   20.0875   23.9739 H   0  0  0  0  0  0  0  0  0  0  0  0
   19.1843   19.7956   21.9835 C   0  0  0  0  0  0  0  0  0  0  0  0
   18.1796   20.2306   21.9051 H   0  0  0  0  0  0  0  0  0  0  0  0
   19.2688   18.2771   21.6327 C   0  0  0  0  0  0  0  0  0  0  0  0
   19.6050   18.0369   20.6180 H   0  0  0  0  0  0  0  0  0  0  0  0
   18.3482   17.7172   21.8378 H   0  0  0  0  0  0  0  0  0  0  0  0
   20.1204   20.6163   21.3137 O   0  0  0  0  0  0  0  0  0  0  0  0
   19.8410   20.6695   20.3750 H   0  0  0  0  0  0  0  0  0  0  0  0
  1  2  1  0  0  0  0
  1  3  1  0  0  0  0
  1  4  1  0  0  0  0
  4  5  1  0  0  0  0
  4  6  1  0  0  0  0
  4  7  1  0  0  0  0
  7  8  1  0  0  0  0
  1  9  1  0  0  0  0
  7  9  1  0  0  0  0
  9 10  1  0  0  0  0
  9 11  1  0  0  0  0
  7 12  1  0  0  0  0
 12 13  1  0  0  0  0
M  END
> <VConfSearch Rank>
178

> <Conf_Id>
20

> <Delta U+W>
1.030

> <U+W>
-2.101

> <U>
0.841

> <W>
-2.942

> <W(PB)>
-4.530

> <W(SA)>
1.587

> <Valence>
6.736

> <Coulomb>
-7.246

> <VdW>
1.352

> <VdW6>
-2.500

> <VdW12>
3.851

> <Bond>
0.063

> <Angle>
0.687

> <Pdih>
5.986

> <Idih>
0.000

> <Tether>
0.000

$$$$
VeraChem MOL file


 13 13  0  0  0  0  0  0  0  0999 V2000     
   18.8130   18.0942   22.0311 C   0  0  0  0  0  0  0  0  0  0  0  0
   18.9292   17.1027   22.4882 H   0  0  0  0  0  0  0  0  0  0  0  0
   17.8600   18.1203   21.4893 H   0  0  0  0  0  0  0  0  0  0  0  0
   20.0655   18.6021   21.2433 C   0  0  0  0  0  0  0  0  0  0  0  0
   20.6687   17.8327   20.7489 H   0  0  0  0  0  0  0  0  0  0  0  0
   19.8591   19.4040   20.5237 H   0  0  0  0  0  0  0  0  0  0  0  0
   20.5889   19.0852   22.6296 C   0  0  0  0  0  0  0  0  0  0  0  0
   21.0831   18.2989   23.2163 H   0  0  0  0  0  0  0  0  0  0  0  0
   19.0884   19.2952   22.9952 C   0  0  0  0  0  0  0  0  0  0  0  0
   18.6637   20.2519   22.6671 H   0  0  0  0  0  0  0  0  0  0  0  0
   18.8287   19.1378   24.0478 H   0  0  0  0  0  0  0  0  0  0  0  0
   21.3743   20.2533   22.6056 O   0  0  0  0  0  0  0  0  0  0  0  0
   20.8860   20.9145   22.0717 H   0  0  0  0  0  0  0  0  0  0  0  0
  1  2  1  0  0  0  0
  1  3  1  0  0  0  0
  1  4  1  0  0  0  0
  4  5  1  0  0  0  0
  4  6  1  0  0  0  0
  4  7  1  0  0  0  0
  7  8  1  0  0  0  0
  1  9  1  0  0  0  0
  7  9  1  0  0  0  0
  9 10  1  0  0  0  0
  9 11  1  0  0  0  0
  7 12  1  0  0  0  0
 12 13  1  0  0  0  0
M  END
> <VConfSearch Rank>
179

> <Conf_Id>
24

> <Delta U+W>
0.356

> <U+W>
-2.775

> <U>
-0.184

> <W>
-2.591

> <W(PB)>
-4.184

> <W(SA)>
1.593

> <Valence>
6.840

> <Coulomb>
-7.916

> <VdW>
0.893

> <VdW6>
-2.167

> <VdW12>
3.060

> <Bond>
0.059

> <Angle>
0.918

> <Pdih>
5.862

> <Idih>
0.000

> <Tether>
0.000

$$$$
VeraChem MOL file


 13 13  0  0  0  0  0  0  0  0999 V2000     
   20.6105   18.5312   22.6903 C   0  0  0  0  0  0  0  0  0  0  0  0
   21.7016   18.4329   22.6431 H   0  0  0  0  0  0  0  0  0  0  0  0
   20.2500   17.9750   23.5649 H   0  0  0  0  0  0  0  0  0  0  0  0
   19.8391   18.2386   21.3601 C   0  0  0  0  0  0  0  0  0  0  0  0
   20.4002   18.4782   20.4486 H   0  0  0  0  0  0  0  0  0  0  0  0
   19.4197   17.2316   21.2562 H   0  0  0  0  0  0  0  0  0  0  0  0
   18.8392   19.3513   21.8028 C   0  0  0  0  0  0  0  0  0  0  0  0
   18.4359   19.9607   20.9840 H   0  0  0  0  0  0  0  0  0  0  0  0
   20.0483   19.9859   22.5574 C   0  0  0  0  0  0  0  0  0  0  0  0
   20.6606   20.6539   21.9394 H   0  0  0  0  0  0  0  0  0  0  0  0
   19.8109   20.4998   23.4956 H   0  0  0  0  0  0  0  0  0  0  0  0
   17.7898   18.9066   22.6351 O   0  0  0  0  0  0  0  0  0  0  0  0
   18.2060   18.3721   23.3425 H   0  0  0  0  0  0  0  0  0  0  0  0
  1  2  1  0  0  0  0
  1  3  1  0  0  0  0
  1  4  1  0  0  0  0
  4  5  1  0  0  0  0
  4  6  1  0  0  0  0
  4  7  1  0  0  0  0
  7  8  1  0  0  0  0
  1  9  1  0  0  0  0
  7  9  1  0  0  0  0
  9 10  1  0  0  0  0
  9 11  1  0  0  0  0
  7 12  1  0  0  0  0
 12 13  1  0  0  0  0
M  END
> <VConfSearch Rank>
180

> <Conf_Id>
44

> <Delta U+W>
0.823

> <U+W>
-2.308

> <U>
0.039

> <W>
-2.348

> <W(PB)>
-3.918

> <W(SA)>
1.571

> <Valence>
7.320

> <Coulomb>
-8.530

> <VdW>
1.249

> <VdW6>
-2.615

> <VdW12>
3.864

> <Bond>
0.056

> <Angle>
0.694

> <Pdih>
6.570

> <Idih>
0.000

> <Tether>
0.000

$$$$
VeraChem MOL file


 13 13  0  0  0  0  0  0  0  0999 V2000     
   19.9911   18.0105   23.0036 C   0  0  0  0  0  0  0  0  0  0  0  0
   20.0351   17.0623   22.4517 H   0  0  0  0  0  0  0  0  0  0  0  0
   20.2876   17.8251   24.0429 H   0  0  0  0  0  0  0  0  0  0  0  0
   18.6710   18.8251   22.8007 C   0  0  0  0  0  0  0  0  0  0  0  0
   17.7599   18.2381   22.6422 H   0  0  0  0  0  0  0  0  0  0  0  0
   18.4742   19.5811   23.5710 H   0  0  0  0  0  0  0  0  0  0  0  0
   19.3535   19.3779   21.5133 C   0  0  0  0  0  0  0  0  0  0  0  0
   19.2606   18.7140   20.6429 H   0  0  0  0  0  0  0  0  0  0  0  0
   20.6930   19.2146   22.2932 C   0  0  0  0  0  0  0  0  0  0  0  0
   21.5724   18.9708   21.6870 H   0  0  0  0  0  0  0  0  0  0  0  0
   20.9413   20.0548   22.9537 H   0  0  0  0  0  0  0  0  0  0  0  0
   19.0125   20.7013   21.1716 O   0  0  0  0  0  0  0  0  0  0  0  0
   19.6205   20.9823   20.4543 H   0  0  0  0  0  0  0  0  0  0  0  0
  1  2  1  0  0  0  0
  1  3  1  0  0  0  0
  1  4  1  0  0  0  0
  4  5  1  0  0  0  0
  4  6  1  0  0  0  0
  4  7  1  0  0  0  0
  7  8  1  0  0  0  0
  1  9  1  0  0  0  0
  7  9  1  0  0  0  0
  9 10  1  0  0  0  0
  9 11  1  0  0  0  0
  7 12  1  0  0  0  0
 12 13  1  0  0  0  0
M  END
> <VConfSearch Rank>
181

> <Conf_Id>
22

> <Delta U+W>
0.000

> <U+W>
-3.131

> <U>
-0.154

> <W>
-2.978

> <W(PB)>
-4.579

> <W(SA)>
1.601

> <Valence>
6.333

> <Coulomb>
-7.439

> <VdW>
0.952

> <VdW6>
-2.120

> <VdW12>
3.072

> <Bond>
0.065

> <Angle>
0.931

> <Pdih>
5.338

> <Idih>
0.000

> <Tether>
0.000

$$$$
VeraChem MOL file


 13 13  0  0  0  0  0  0  0  0999 V2000     
   20.8112   19.4761   22.0420 C   0  0  0  0  0  0  0  0  0  0  0  0
   20.7607   20.4334   21.5066 H   0  0  0  0  0  0  0  0  0  0  0  0
   21.8650   19.2246   22.2115 H   0  0  0  0  0  0  0  0  0  0  0  0
   19.9225   18.3398   21.4367 C   0  0  0  0  0  0  0  0  0  0  0  0
   20.2043   17.3250   21.7440 H   0  0  0  0  0  0  0  0  0  0  0  0
   19.7938   18.3560   20.3489 H   0  0  0  0  0  0  0  0  0  0  0  0
   18.7643   18.9699   22.2679 C   0  0  0  0  0  0  0  0  0  0  0  0
   18.2794   19.8261   21.7793 H   0  0  0  0  0  0  0  0  0  0  0  0
   19.8712   19.3729   23.2882 C   0  0  0  0  0  0  0  0  0  0  0  0
   20.1396   18.5847   24.0025 H   0  0  0  0  0  0  0  0  0  0  0  0
   19.6950   20.3030   23.8394 H   0  0  0  0  0  0  0  0  0  0  0  0
   17.8037   18.0591   22.7499 O   0  0  0  0  0  0  0  0  0  0  0  0
   17.2713   17.7636   21.9802 H   0  0  0  0  0  0  0  0  0  0  0  0
  1  2  1  0  0  0  0
  1  3  1  0  0  0  0
  1  4  1  0  0  0  0
  4  5  1  0  0  0  0
  4  6  1  0  0  0  0
  4  7  1  0  0  0  0
  7  8  1  0  0  0  0
  1  9  1  0  0  0  0
  7  9  1  0  0  0  0
  9 10  1  0  0  0  0
  9 11  1  0  0  0  0
  7 12  1  0  0  0  0
 12 13  1  0  0  0  0
M  END
> <VConfSearch Rank>
182

> <Conf_Id>
19

> <Delta U+W>
-0.011

> <U+W>
-3.142

> <U>
-0.154

> <W>
-2.989

> <W(PB)>
-4.588

> <W(SA)>
1.599

> <Valence>
6.334

> <Coulomb>
-7.439

> <VdW>
0.951

> <VdW6>
-2.120

> <VdW12>
3.072

> <Bond>
0.065

> <Angle>
0.930

> <Pdih>
5.339

> <Idih>
0.000

> <Tether>
0.000

$$$$
VeraChem MOL file


 13 13  0  0  0  0  0  0  0  0999 V2000     
   19.4251   18.7096   23.4448 C   0  0  0  0  0  0  0  0  0  0  0  0
   19.4852   19.0127   24.4968 H   0  0  0  0  0  0  0  0  0  0  0  0
   18.9356   17.7286   23.3895 H   0  0  0  0  0  0  0  0  0  0  0  0
   20.7498   18.8220   22.6192 C   0  0  0  0  0  0  0  0  0  0  0  0
   21.4192   19.6290   22.9407 H   0  0  0  0  0  0  0  0  0  0  0  0
   21.3342   17.9007   22.5195 H   0  0  0  0  0  0  0  0  0  0  0  0
   19.8471   19.1877   21.3999 C   0  0  0  0  0  0  0  0  0  0  0  0
   20.2824   19.9258   20.7140 H   0  0  0  0  0  0  0  0  0  0  0  0
   18.8564   19.7772   22.4521 C   0  0  0  0  0  0  0  0  0  0  0  0
   17.7914   19.6893   22.2105 H   0  0  0  0  0  0  0  0  0  0  0  0
   19.0666   20.8162   22.7336 H   0  0  0  0  0  0  0  0  0  0  0  0
   19.3552   18.0809   20.6709 O   0  0  0  0  0  0  0  0  0  0  0  0
   18.6733   18.4200   20.0526 H   0  0  0  0  0  0  0  0  0  0  0  0
  1  2  1  0  0  0  0
  1  3  1  0  0  0  0
  1  4  1  0  0  0  0
  4  5  1  0  0  0  0
  4  6  1  0  0  0  0
  4  7  1  0  0  0  0
  7  8  1  0  0  0  0
  1  9  1  0  0  0  0
  7  9  1  0  0  0  0
  9 10  1  0  0  0  0
  9 11  1  0  0  0  0
  7 12  1  0  0  0  0
 12 13  1  0  0  0  0
M  END
> <VConfSearch Rank>
183

> <Conf_Id>
20

> <Delta U+W>
1.030

> <U+W>
-2.101

> <U>
0.841

> <W>
-2.942

> <W(PB)>
-4.530

> <W(SA)>
1.587

> <Valence>
6.736

> <Coulomb>
-7.246

> <VdW>
1.352

> <VdW6>
-2.500

> <VdW12>
3.851

> <Bond>
0.063

> <Angle>
0.687

> <Pdih>
5.986

> <Idih>
0.000

> <Tether>
0.000

$$$$
VeraChem MOL file


 13 13  0  0  0  0  0  0  0  0999 V2000     
   19.5746   17.8796   21.5337 C   0  0  0  0  0  0  0  0  0  0  0  0
   19.9719   16.9416   21.9437 H   0  0  0  0  0  0  0  0  0  0  0  0
   19.0900   17.6644   20.5739 H   0  0  0  0  0  0  0  0  0  0  0  0
   20.5828   19.0757   21.5417 C   0  0  0  0  0  0  0  0  0  0  0  0
   21.6389   18.8171   21.4071 H   0  0  0  0  0  0  0  0  0  0  0  0
   20.3299   19.8918   20.8536 H   0  0  0  0  0  0  0  0  0  0  0  0
   20.1220   19.2945   23.0144 C   0  0  0  0  0  0  0  0  0  0  0  0
   20.6377   18.6523   23.7412 H   0  0  0  0  0  0  0  0  0  0  0  0
   18.7444   18.7360   22.5460 C   0  0  0  0  0  0  0  0  0  0  0  0
   18.0806   19.4762   22.0823 H   0  0  0  0  0  0  0  0  0  0  0  0
   18.1769   18.1773   23.2983 H   0  0  0  0  0  0  0  0  0  0  0  0
   20.1144   20.6322   23.4530 O   0  0  0  0  0  0  0  0  0  0  0  0
   19.6444   21.1540   22.7691 H   0  0  0  0  0  0  0  0  0  0  0  0
  1  2  1  0  0  0  0
  1  3  1  0  0  0  0
  1  4  1  0  0  0  0
  4  5  1  0  0  0  0
  4  6  1  0  0  0  0
  4  7  1  0  0  0  0
  7  8  1  0  0  0  0
  1  9  1  0  0  0  0
  7  9  1  0  0  0  0
  9 10  1  0  0  0  0
  9 11  1  0  0  0  0
  7 12  1  0  0  0  0
 12 13  1  0  0  0  0
M  END
> <VConfSearch Rank>
184

> <Conf_Id>
24

> <Delta U+W>
0.356

> <U+W>
-2.775

> <U>
-0.184

> <W>
-2.591

> <W(PB)>
-4.184

> <W(SA)>
1.593

> <Valence>
6.840

> <Coulomb>
-7.916

> <VdW>
0.893

> <VdW6>
-2.167

> <VdW12>
3.060

> <Bond>
0.059

> <Angle>
0.918

> <Pdih>
5.862

> <Idih>
0.000

> <Tether>
0.000

$$$$
VeraChem MOL file


 13 13  0  0  0  0  0  0  0  0999 V2000     
   20.7375   18.6562   21.9323 C   0  0  0  0  0  0  0  0  0  0  0  0
   21.4564   17.8291   21.8941 H   0  0  0  0  0  0  0  0  0  0  0  0
   21.2255   19.5579   21.5411 H   0  0  0  0  0  0  0  0  0  0  0  0
   19.9895   18.8502   23.2936 C   0  0  0  0  0  0  0  0  0  0  0  0
   19.8334   17.9246   23.8610 H   0  0  0  0  0  0  0  0  0  0  0  0
   20.4039   19.6069   23.9691 H   0  0  0  0  0  0  0  0  0  0  0  0
   18.7560   19.2937   22.4475 C   0  0  0  0  0  0  0  0  0  0  0  0
   17.7839   18.9876   22.8548 H   0  0  0  0  0  0  0  0  0  0  0  0
   19.3221   18.3607   21.3326 C   0  0  0  0  0  0  0  0  0  0  0  0
   19.0024   17.3151   21.4193 H   0  0  0  0  0  0  0  0  0  0  0  0
   19.1556   18.6913   20.3013 H   0  0  0  0  0  0  0  0  0  0  0  0
   18.7293   20.6648   22.1144 O   0  0  0  0  0  0  0  0  0  0  0  0
   19.6162   20.8800   21.7588 H   0  0  0  0  0  0  0  0  0  0  0  0
  1  2  1  0  0  0  0
  1  3  1  0  0  0  0
  1  4  1  0  0  0  0
  4  5  1  0  0  0  0
  4  6  1  0  0  0  0
  4  7  1  0  0  0  0
  7  8  1  0  0  0  0
  1  9  1  0  0  0  0
  7  9  1  0  0  0  0
  9 10  1  0  0  0  0
  9 11  1  0  0  0  0
  7 12  1  0  0  0  0
 12 13  1  0  0  0  0
M  END
> <VConfSearch Rank>
185

> <Conf_Id>
44

> <Delta U+W>
0.823

> <U+W>
-2.308

> <U>
0.039

> <W>
-2.348

> <W(PB)>
-3.918

> <W(SA)>
1.571

> <Valence>
7.320

> <Coulomb>
-8.530

> <VdW>
1.249

> <VdW6>
-2.615

> <VdW12>
3.864

> <Bond>
0.056

> <Angle>
0.694

> <Pdih>
6.570

> <Idih>
0.000

> <Tether>
0.000

$$$$
VeraChem MOL file


 13 13  0  0  0  0  0  0  0  0999 V2000     
   19.6466   20.2090   22.8656 C   0  0  0  0  0  0  0  0  0  0  0  0
   18.6340   20.5561   23.1100 H   0  0  0  0  0  0  0  0  0  0  0  0
   20.3699   20.9309   23.2631 H   0  0  0  0  0  0  0  0  0  0  0  0
   19.8502   19.7827   21.3743 C   0  0  0  0  0  0  0  0  0  0  0  0
   19.2618   20.3303   20.6301 H   0  0  0  0  0  0  0  0  0  0  0  0
   20.8958   19.7511   21.0438 H   0  0  0  0  0  0  0  0  0  0  0  0
   19.2709   18.4050   21.8160 C   0  0  0  0  0  0  0  0  0  0  0  0
   18.1729   18.3726   21.8373 H   0  0  0  0  0  0  0  0  0  0  0  0
   19.9218   18.7057   23.1999 C   0  0  0  0  0  0  0  0  0  0  0  0
   19.3971   18.3019   24.0727 H   0  0  0  0  0  0  0  0  0  0  0  0
   20.9837   18.4393   23.2716 H   0  0  0  0  0  0  0  0  0  0  0  0
   19.7912   17.2867   21.1354 O   0  0  0  0  0  0  0  0  0  0  0  0
   19.4767   16.4864   21.6084 H   0  0  0  0  0  0  0  0  0  0  0  0
  1  2  1  0  0  0  0
  1  3  1  0  0  0  0
  1  4  1  0  0  0  0
  4  5  1  0  0  0  0
  4  6  1  0  0  0  0
  4  7  1  0  0  0  0
  7  8  1  0  0  0  0
  1  9  1  0  0  0  0
  7  9  1  0  0  0  0
  9 10  1  0  0  0  0
  9 11  1  0  0  0  0
  7 12  1  0  0  0  0
 12 13  1  0  0  0  0
M  END
> <VConfSearch Rank>
186

> <Conf_Id>
22

> <Delta U+W>
0.000

> <U+W>
-3.131

> <U>
-0.154

> <W>
-2.978

> <W(PB)>
-4.579

> <W(SA)>
1.601

> <Valence>
6.333

> <Coulomb>
-7.439

> <VdW>
0.952

> <VdW6>
-2.120

> <VdW12>
3.072

> <Bond>
0.065

> <Angle>
0.931

> <Pdih>
5.338

> <Idih>
0.000

> <Tether>
0.000

$$$$
VeraChem MOL file


 13 13  0  0  0  0  0  0  0  0999 V2000     
   19.1343   20.0966   22.5999 C   0  0  0  0  0  0  0  0  0  0  0  0
   19.1189   20.8295   21.7825 H   0  0  0  0  0  0  0  0  0  0  0  0
   18.7694   20.5821   23.5129 H   0  0  0  0  0  0  0  0  0  0  0  0
   20.4709   19.2950   22.7353 C   0  0  0  0  0  0  0  0  0  0  0  0
   20.6219   18.8175   23.7116 H   0  0  0  0  0  0  0  0  0  0  0  0
   21.3853   19.8320   22.4602 H   0  0  0  0  0  0  0  0  0  0  0  0
   19.8776   18.3573   21.6408 C   0  0  0  0  0  0  0  0  0  0  0  0
   20.0177   18.7249   20.6150 H   0  0  0  0  0  0  0  0  0  0  0  0
   18.4892   18.7145   22.2520 C   0  0  0  0  0  0  0  0  0  0  0  0
   18.2054   18.1078   23.1208 H   0  0  0  0  0  0  0  0  0  0  0  0
   17.6502   18.7360   21.5480 H   0  0  0  0  0  0  0  0  0  0  0  0
   20.2494   17.0023   21.7418 O   0  0  0  0  0  0  0  0  0  0  0  0
   21.1921   16.9390   21.4762 H   0  0  0  0  0  0  0  0  0  0  0  0
  1  2  1  0  0  0  0
  1  3  1  0  0  0  0
  1  4  1  0  0  0  0
  4  5  1  0  0  0  0
  4  6  1  0  0  0  0
  4  7  1  0  0  0  0
  7  8  1  0  0  0  0
  1  9  1  0  0  0  0
  7  9  1  0  0  0  0
  9 10  1  0  0  0  0
  9 11  1  0  0  0  0
  7 12  1  0  0  0  0
 12 13  1  0  0  0  0
M  END
> <VConfSearch Rank>
187

> <Conf_Id>
19

> <Delta U+W>
-0.011

> <U+W>
-3.142

> <U>
-0.154

> <W>
-2.989

> <W(PB)>
-4.588

> <W(SA)>
1.599

> <Valence>
6.334

> <Coulomb>
-7.439

> <VdW>
0.951

> <VdW6>
-2.120

> <VdW12>
3.072

> <Bond>
0.065

> <Angle>
0.930

> <Pdih>
5.339

> <Idih>
0.000

> <Tether>
0.000

$$$$
VeraChem MOL file


 13 13  0  0  0  0  0  0  0  0999 V2000     
   19.3127   18.2073   23.1162 C   0  0  0  0  0  0  0  0  0  0  0  0
   19.2316   17.9859   24.1869 H   0  0  0  0  0  0  0  0  0  0  0  0
   18.8936   17.3647   22.5508 H   0  0  0  0  0  0  0  0  0  0  0  0
   20.7149   18.6908   22.6173 C   0  0  0  0  0  0  0  0  0  0  0  0
   21.2921   19.2554   23.3595 H   0  0  0  0  0  0  0  0  0  0  0  0
   21.3620   17.9217   22.1813 H   0  0  0  0  0  0  0  0  0  0  0  0
   19.9393   19.5820   21.5977 C   0  0  0  0  0  0  0  0  0  0  0  0
   20.4055   20.5545   21.3935 H   0  0  0  0  0  0  0  0  0  0  0  0
   18.7991   19.6142   22.6630 C   0  0  0  0  0  0  0  0  0  0  0  0
   17.7767   19.6490   22.2708 H   0  0  0  0  0  0  0  0  0  0  0  0
   18.9115   20.4029   23.4170 H   0  0  0  0  0  0  0  0  0  0  0  0
   19.6038   18.9417   20.3829 O   0  0  0  0  0  0  0  0  0  0  0  0
   18.9789   19.5296   19.9074 H   0  0  0  0  0  0  0  0  0  0  0  0
  1  2  1  0  0  0  0
  1  3  1  0  0  0  0
  1  4  1  0  0  0  0
  4  5  1  0  0  0  0
  4  6  1  0  0  0  0
  4  7  1  0  0  0  0
  7  8  1  0  0  0  0
  1  9  1  0  0  0  0
  7  9  1  0  0  0  0
  9 10  1  0  0  0  0
  9 11  1  0  0  0  0
  7 12  1  0  0  0  0
 12 13  1  0  0  0  0
M  END
> <VConfSearch Rank>
188

> <Conf_Id>
20

> <Delta U+W>
1.030

> <U+W>
-2.101

> <U>
0.841

> <W>
-2.942

> <W(PB)>
-4.530

> <W(SA)>
1.587

> <Valence>
6.736

> <Coulomb>
-7.246

> <VdW>
1.352

> <VdW6>
-2.500

> <VdW12>
3.851

> <Bond>
0.063

> <Angle>
0.687

> <Pdih>
5.986

> <Idih>
0.000

> <Tether>
0.000

$$$$
VeraChem MOL file


 13 13  0  0  0  0  0  0  0  0999 V2000     
   20.2704   19.8826   21.5016 C   0  0  0  0  0  0  0  0  0  0  0  0
   21.3151   20.1564   21.6999 H   0  0  0  0  0  0  0  0  0  0  0  0
   19.8928   20.5110   20.6861 H   0  0  0  0  0  0  0  0  0  0  0  0
   19.3654   19.7911   22.7743 C   0  0  0  0  0  0  0  0  0  0  0  0
   19.6112   20.4786   23.5912 H   0  0  0  0  0  0  0  0  0  0  0  0
   18.2884   19.8520   22.5751 H   0  0  0  0  0  0  0  0  0  0  0  0
   19.9240   18.3431   22.9172 C   0  0  0  0  0  0  0  0  0  0  0  0
   20.9006   18.2913   23.4174 H   0  0  0  0  0  0  0  0  0  0  0  0
   20.0124   18.3461   21.3612 C   0  0  0  0  0  0  0  0  0  0  0  0
   19.0800   18.0839   20.8461 H   0  0  0  0  0  0  0  0  0  0  0  0
   20.8296   17.7573   20.9300 H   0  0  0  0  0  0  0  0  0  0  0  0
   19.0334   17.4036   23.4703 O   0  0  0  0  0  0  0  0  0  0  0  0
   18.1854   17.4958   22.9876 H   0  0  0  0  0  0  0  0  0  0  0  0
  1  2  1  0  0  0  0
  1  3  1  0  0  0  0
  1  4  1  0  0  0  0
  4  5  1  0  0  0  0
  4  6  1  0  0  0  0
  4  7  1  0  0  0  0
  7  8  1  0  0  0  0
  1  9  1  0  0  0  0
  7  9  1  0  0  0  0
  9 10  1  0  0  0  0
  9 11  1  0  0  0  0
  7 12  1  0  0  0  0
 12 13  1  0  0  0  0
M  END
> <VConfSearch Rank>
189

> <Conf_Id>
24

> <Delta U+W>
0.356

> <U+W>
-2.775

> <U>
-0.184

> <W>
-2.591

> <W(PB)>
-4.184

> <W(SA)>
1.593

> <Valence>
6.840

> <Coulomb>
-7.916

> <VdW>
0.893

> <VdW6>
-2.167

> <VdW12>
3.060

> <Bond>
0.059

> <Angle>
0.918

> <Pdih>
5.862

> <Idih>
0.000

> <Tether>
0.000

$$$$
VeraChem MOL file


 13 13  0  0  0  0  0  0  0  0999 V2000     
   19.8754   18.2529   23.0564 C   0  0  0  0  0  0  0  0  0  0  0  0
   19.6251   17.2769   23.4891 H   0  0  0  0  0  0  0  0  0  0  0  0
   20.6059   18.7450   23.7109 H   0  0  0  0  0  0  0  0  0  0  0  0
   18.6611   19.1466   22.6358 C   0  0  0  0  0  0  0  0  0  0  0  0
   17.7743   18.5855   22.3168 H   0  0  0  0  0  0  0  0  0  0  0  0
   18.3493   19.9093   23.3581 H   0  0  0  0  0  0  0  0  0  0  0  0
   19.5549   19.6470   21.4590 C   0  0  0  0  0  0  0  0  0  0  0  0
   19.0167   19.8426   20.5227 H   0  0  0  0  0  0  0  0  0  0  0  0
   20.2489   18.2519   21.5363 C   0  0  0  0  0  0  0  0  0  0  0  0
   19.7514   17.4714   20.9478 H   0  0  0  0  0  0  0  0  0  0  0  0
   21.3192   18.2358   21.3017 H   0  0  0  0  0  0  0  0  0  0  0  0
   20.3891   20.7410   21.7735 O   0  0  0  0  0  0  0  0  0  0  0  0
   20.8406   20.5120   22.6119 H   0  0  0  0  0  0  0  0  0  0  0  0
  1  2  1  0  0  0  0
  1  3  1  0  0  0  0
  1  4  1  0  0  0  0
  4  5  1  0  0  0  0
  4  6  1  0  0  0  0
  4  7  1  0  0  0  0
  7  8  1  0  0  0  0
  1  9  1  0  0  0  0
  7  9  1  0  0  0  0
  9 10  1  0  0  0  0
  9 11  1  0  0  0  0
  7 12  1  0  0  0  0
 12 13  1  0  0  0  0
M  END
> <VConfSearch Rank>
190

> <Conf_Id>
44

> <Delta U+W>
0.823

> <U+W>
-2.308

> <U>
0.039

> <W>
-2.348

> <W(PB)>
-3.918

> <W(SA)>
1.571

> <Valence>
7.320

> <Coulomb>
-8.530

> <VdW>
1.249

> <VdW6>
-2.615

> <VdW12>
3.864

> <Bond>
0.056

> <Angle>
0.694

> <Pdih>
6.570

> <Idih>
0.000

> <Tether>
0.000

$$$$
VeraChem MOL file


 13 13  0  0  0  0  0  0  0  0999 V2000     
   19.7166   20.3243   22.5595 C   0  0  0  0  0  0  0  0  0  0  0  0
   18.8280   20.8856   22.2418 H   0  0  0  0  0  0  0  0  0  0  0  0
   20.3836   21.0032   23.1041 H   0  0  0  0  0  0  0  0  0  0  0  0
   20.3818   19.4617   21.4368 C   0  0  0  0  0  0  0  0  0  0  0  0
   20.3181   19.8607   20.4186 H   0  0  0  0  0  0  0  0  0  0  0  0
   21.4199   19.1684   21.6365 H   0  0  0  0  0  0  0  0  0  0  0  0
   19.3226   18.3806   21.8084 C   0  0  0  0  0  0  0  0  0  0  0  0
   18.3465   18.5334   21.3279 H   0  0  0  0  0  0  0  0  0  0  0  0
   19.4128   18.9559   23.2542 C   0  0  0  0  0  0  0  0  0  0  0  0
   18.4917   18.9092   23.8455 H   0  0  0  0  0  0  0  0  0  0  0  0
   20.2385   18.5535   23.8542 H   0  0  0  0  0  0  0  0  0  0  0  0
   19.7481   17.0455   21.6633 O   0  0  0  0  0  0  0  0  0  0  0  0
   19.0645   16.4759   22.0774 H   0  0  0  0  0  0  0  0  0  0  0  0
  1  2  1  0  0  0  0
  1  3  1  0  0  0  0
  1  4  1  0  0  0  0
  4  5  1  0  0  0  0
  4  6  1  0  0  0  0
  4  7  1  0  0  0  0
  7  8  1  0  0  0  0
  1  9  1  0  0  0  0
  7  9  1  0  0  0  0
  9 10  1  0  0  0  0
  9 11  1  0  0  0  0
  7 12  1  0  0  0  0
 12 13  1  0  0  0  0
M  END
> <VConfSearch Rank>
191

> <Conf_Id>
22

> <Delta U+W>
0.000

> <U+W>
-3.131

> <U>
-0.154

> <W>
-2.978

> <W(PB)>
-4.579

> <W(SA)>
1.601

> <Valence>
6.333

> <Coulomb>
-7.439

> <VdW>
0.952

> <VdW6>
-2.120

> <VdW12>
3.072

> <Bond>
0.065

> <Angle>
0.931

> <Pdih>
5.338

> <Idih>
0.000

> <Tether>
0.000

$$$$
VeraChem MOL file


 13 13  0  0  0  0  0  0  0  0999 V2000     
   20.7603   18.7283   21.5952 C   0  0  0  0  0  0  0  0  0  0  0  0
   20.6164   18.3551   20.5727 H   0  0  0  0  0  0  0  0  0  0  0  0
   21.8361   18.7817   21.8007 H   0  0  0  0  0  0  0  0  0  0  0  0
   19.8880   18.0158   22.6809 C   0  0  0  0  0  0  0  0  0  0  0  0
   20.2470   18.1390   23.7103 H   0  0  0  0  0  0  0  0  0  0  0  0
   19.6724   16.9559   22.5070 H   0  0  0  0  0  0  0  0  0  0  0  0
   18.7676   19.0151   22.2620 C   0  0  0  0  0  0  0  0  0  0  0  0
   18.2005   18.7026   21.3744 H   0  0  0  0  0  0  0  0  0  0  0  0
   19.9292   20.0057   21.9486 C   0  0  0  0  0  0  0  0  0  0  0  0
   20.2952   20.5665   22.8176 H   0  0  0  0  0  0  0  0  0  0  0  0
   19.7482   20.7075   21.1271 H   0  0  0  0  0  0  0  0  0  0  0  0
   17.8983   19.4142   23.2961 O   0  0  0  0  0  0  0  0  0  0  0  0
   17.3229   18.6469   23.5044 H   0  0  0  0  0  0  0  0  0  0  0  0
  1  2  1  0  0  0  0
  1  3  1  0  0  0  0
  1  4  1  0  0  0  0
  4  5  1  0  0  0  0
  4  6  1  0  0  0  0
  4  7  1  0  0  0  0
  7  8  1  0  0  0  0
  1  9  1  0  0  0  0
  7  9  1  0  0  0  0
  9 10  1  0  0  0  0
  9 11  1  0  0  0  0
  7 12  1  0  0  0  0
 12 13  1  0  0  0  0
M  END
> <VConfSearch Rank>
192

> <Conf_Id>
19

> <Delta U+W>
-0.011

> <U+W>
-3.142

> <U>
-0.154

> <W>
-2.989

> <W(PB)>
-4.588

> <W(SA)>
1.599

> <Valence>
6.334

> <Coulomb>
-7.439

> <VdW>
0.951

> <VdW6>
-2.120

> <VdW12>
3.072

> <Bond>
0.065

> <Angle>
0.930

> <Pdih>
5.339

> <Idih>
0.000

> <Tether>
0.000

$$$$
VeraChem MOL file


 13 13  0  0  0  0  0  0  0  0999 V2000     
   19.8587   17.9680   21.7443 C   0  0  0  0  0  0  0  0  0  0  0  0
   19.7801   16.8795   21.8487 H   0  0  0  0  0  0  0  0  0  0  0  0
   20.2420   18.1978   20.7415 H   0  0  0  0  0  0  0  0  0  0  0  0
   20.5882   18.7202   22.9066 C   0  0  0  0  0  0  0  0  0  0  0  0
   20.4797   18.2502   23.8915 H   0  0  0  0  0  0  0  0  0  0  0  0
   21.6471   18.9486   22.7420 H   0  0  0  0  0  0  0  0  0  0  0  0
   19.5929   19.8933   22.6448 C   0  0  0  0  0  0  0  0  0  0  0  0
   19.2785   20.4358   23.5457 H   0  0  0  0  0  0  0  0  0  0  0  0
   18.5966   18.7928   22.1629 C   0  0  0  0  0  0  0  0  0  0  0  0
   17.9197   19.0805   21.3509 H   0  0  0  0  0  0  0  0  0  0  0  0
   18.0047   18.3398   22.9676 H   0  0  0  0  0  0  0  0  0  0  0  0
   20.0008   20.8079   21.6471 O   0  0  0  0  0  0  0  0  0  0  0  0
   19.2326   21.3853   21.4505 H   0  0  0  0  0  0  0  0  0  0  0  0
  1  2  1  0  0  0  0
  1  3  1  0  0  0  0
  1  4  1  0  0  0  0
  4  5  1  0  0  0  0
  4  6  1  0  0  0  0
  4  7  1  0  0  0  0
  7  8  1  0  0  0  0
  1  9  1  0  0  0  0
  7  9  1  0  0  0  0
  9 10  1  0  0  0  0
  9 11  1  0  0  0  0
  7 12  1  0  0  0  0
 12 13  1  0  0  0  0
M  END
> <VConfSearch Rank>
193

> <Conf_Id>
20

> <Delta U+W>
1.030

> <U+W>
-2.101

> <U>
0.841

> <W>
-2.942

> <W(PB)>
-4.530

> <W(SA)>
1.587

> <Valence>
6.736

> <Coulomb>
-7.246

> <VdW>
1.352

> <VdW6>
-2.500

> <VdW12>
3.851

> <Bond>
0.063

> <Angle>
0.687

> <Pdih>
5.986

> <Idih>
0.000

> <Tether>
0.000

$$$$
VeraChem MOL file


 13 13  0  0  0  0  0  0  0  0999 V2000     
   20.0994   18.9195   20.9803 C   0  0  0  0  0  0  0  0  0  0  0  0
   19.7931   18.0524   20.3803 H   0  0  0  0  0  0  0  0  0  0  0  0
   20.6748   19.6009   20.3424 H   0  0  0  0  0  0  0  0  0  0  0  0
   20.7418   18.5646   22.3619 C   0  0  0  0  0  0  0  0  0  0  0  0
   21.3186   17.6340   22.4006 H   0  0  0  0  0  0  0  0  0  0  0  0
   21.3402   19.3684   22.8081 H   0  0  0  0  0  0  0  0  0  0  0  0
   19.2754   18.4740   22.8821 C   0  0  0  0  0  0  0  0  0  0  0  0
   18.7924   17.5077   22.6830 H   0  0  0  0  0  0  0  0  0  0  0  0
   18.9526   19.5702   21.8222 C   0  0  0  0  0  0  0  0  0  0  0  0
   19.1511   20.5987   22.1478 H   0  0  0  0  0  0  0  0  0  0  0  0
   17.9492   19.5276   21.3843 H   0  0  0  0  0  0  0  0  0  0  0  0
   19.0853   18.8559   24.2237 O   0  0  0  0  0  0  0  0  0  0  0  0
   19.5349   19.7189   24.3412 H   0  0  0  0  0  0  0  0  0  0  0  0
  1  2  1  0  0  0  0
  1  3  1  0  0  0  0
  1  4  1  0  0  0  0
  4  5  1  0  0  0  0
  4  6  1  0  0  0  0
  4  7  1  0  0  0  0
  7  8  1  0  0  0  0
  1  9  1  0  0  0  0
  7  9  1  0  0  0  0
  9 10  1  0  0  0  0
  9 11  1  0  0  0  0
  7 12  1  0  0  0  0
 12 13  1  0  0  0  0
M  END
> <VConfSearch Rank>
194

> <Conf_Id>
24

> <Delta U+W>
0.356

> <U+W>
-2.775

> <U>
-0.184

> <W>
-2.591

> <W(PB)>
-4.184

> <W(SA)>
1.593

> <Valence>
6.840

> <Coulomb>
-7.916

> <VdW>
0.893

> <VdW6>
-2.167

> <VdW12>
3.060

> <Bond>
0.059

> <Angle>
0.918

> <Pdih>
5.862

> <Idih>
0.000

> <Tether>
0.000

$$$$
VeraChem MOL file


 13 13  0  0  0  0  0  0  0  0999 V2000     
   19.6517   18.9274   21.0857 C   0  0  0  0  0  0  0  0  0  0  0  0
   20.1617   18.6045   20.1702 H   0  0  0  0  0  0  0  0  0  0  0  0
   18.7075   19.4107   20.8043 H   0  0  0  0  0  0  0  0  0  0  0  0
   20.5238   19.7309   22.1075 C   0  0  0  0  0  0  0  0  0  0  0  0
   21.5875   19.4635   22.1044 H   0  0  0  0  0  0  0  0  0  0  0  0
   20.4391   20.8224   22.0617 H   0  0  0  0  0  0  0  0  0  0  0  0
   19.6944   19.0290   23.2271 C   0  0  0  0  0  0  0  0  0  0  0  0
   20.2611   18.7818   24.1339 H   0  0  0  0  0  0  0  0  0  0  0  0
   19.5297   17.8520   22.2165 C   0  0  0  0  0  0  0  0  0  0  0  0
   20.3496   17.1239   22.2401 H   0  0  0  0  0  0  0  0  0  0  0  0
   18.5797   17.3081   22.2655 H   0  0  0  0  0  0  0  0  0  0  0  0
   18.4933   19.6846   23.5727 O   0  0  0  0  0  0  0  0  0  0  0  0
   18.0328   19.8794   22.7305 H   0  0  0  0  0  0  0  0  0  0  0  0
  1  2  1  0  0  0  0
  1  3  1  0  0  0  0
  1  4  1  0  0  0  0
  4  5  1  0  0  0  0
  4  6  1  0  0  0  0
  4  7  1  0  0  0  0
  7  8  1  0  0  0  0
  1  9  1  0  0  0  0
  7  9  1  0  0  0  0
  9 10  1  0  0  0  0
  9 11  1  0  0  0  0
  7 12  1  0  0  0  0
 12 13  1  0  0  0  0
M  END
> <VConfSearch Rank>
195

> <Conf_Id>
44

> <Delta U+W>
0.823

> <U+W>
-2.308

> <U>
0.039

> <W>
-2.348

> <W(PB)>
-3.918

> <W(SA)>
1.571

> <Valence>
7.320

> <Coulomb>
-8.530

> <VdW>
1.249

> <VdW6>
-2.615

> <VdW12>
3.864

> <Bond>
0.056

> <Angle>
0.694

> <Pdih>
6.570

> <Idih>
0.000

> <Tether>
0.000

$$$$
VeraChem MOL file


 13 13  0  0  0  0  0  0  0  0999 V2000     
   20.5102   20.0558   22.1805 C   0  0  0  0  0  0  0  0  0  0  0  0
   20.1240   20.9077   21.6054 H   0  0  0  0  0  0  0  0  0  0  0  0
   21.4935   20.3232   22.5854 H   0  0  0  0  0  0  0  0  0  0  0  0
   20.4212   18.6769   21.4470 C   0  0  0  0  0  0  0  0  0  0  0  0
   20.5318   18.7006   20.3574 H   0  0  0  0  0  0  0  0  0  0  0  0
   21.0789   17.8976   21.8516 H   0  0  0  0  0  0  0  0  0  0  0  0
   18.9570   18.6260   21.9785 C   0  0  0  0  0  0  0  0  0  0  0  0
   18.2404   19.1788   21.3556 H   0  0  0  0  0  0  0  0  0  0  0  0
   19.4940   19.4371   23.1963 C   0  0  0  0  0  0  0  0  0  0  0  0
   18.7854   20.1353   23.6553 H   0  0  0  0  0  0  0  0  0  0  0  0
   19.9496   18.8263   23.9856 H   0  0  0  0  0  0  0  0  0  0  0  0
   18.4699   17.3388   22.2791 O   0  0  0  0  0  0  0  0  0  0  0  0
   17.6168   17.4537   22.7505 H   0  0  0  0  0  0  0  0  0  0  0  0
  1  2  1  0  0  0  0
  1  3  1  0  0  0  0
  1  4  1  0  0  0  0
  4  5  1  0  0  0  0
  4  6  1  0  0  0  0
  4  7  1  0  0  0  0
  7  8  1  0  0  0  0
  1  9  1  0  0  0  0
  7  9  1  0  0  0  0
  9 10  1  0  0  0  0
  9 11  1  0  0  0  0
  7 12  1  0  0  0  0
 12 13  1  0  0  0  0
M  END
> <VConfSearch Rank>
196

> <Conf_Id>
22

> <Delta U+W>
0.000

> <U+W>
-3.131

> <U>
-0.154

> <W>
-2.978

> <W(PB)>
-4.579

> <W(SA)>
1.601

> <Valence>
6.333

> <Coulomb>
-7.439

> <VdW>
0.952

> <VdW6>
-2.120

> <VdW12>
3.072

> <Bond>
0.065

> <Angle>
0.931

> <Pdih>
5.338

> <Idih>
0.000

> <Tether>
0.000

$$$$
VeraChem MOL file


 13 13  0  0  0  0  0  0  0  0999 V2000     
   19.8184   17.6493   21.9694 C   0  0  0  0  0  0  0  0  0  0  0  0
   20.3984   17.1177   22.7352 H   0  0  0  0  0  0  0  0  0  0  0  0
   19.6020   16.9550   21.1488 H   0  0  0  0  0  0  0  0  0  0  0  0
   20.4006   19.0413   21.5561 C   0  0  0  0  0  0  0  0  0  0  0  0
   20.0379   19.4220   20.5931 H   0  0  0  0  0  0  0  0  0  0  0  0
   21.4917   19.1352   21.5840 H   0  0  0  0  0  0  0  0  0  0  0  0
   19.6387   19.5928   22.7989 C   0  0  0  0  0  0  0  0  0  0  0  0
   20.1820   19.4697   23.7458 H   0  0  0  0  0  0  0  0  0  0  0  0
   18.6011   18.4642   22.5187 C   0  0  0  0  0  0  0  0  0  0  0  0
   17.8428   18.7200   21.7683 H   0  0  0  0  0  0  0  0  0  0  0  0
   18.0993   18.0492   23.3996 H   0  0  0  0  0  0  0  0  0  0  0  0
   19.1481   20.9072   22.6708 O   0  0  0  0  0  0  0  0  0  0  0  0
   19.9210   21.5108   22.7083 H   0  0  0  0  0  0  0  0  0  0  0  0
  1  2  1  0  0  0  0
  1  3  1  0  0  0  0
  1  4  1  0  0  0  0
  4  5  1  0  0  0  0
  4  6  1  0  0  0  0
  4  7  1  0  0  0  0
  7  8  1  0  0  0  0
  1  9  1  0  0  0  0
  7  9  1  0  0  0  0
  9 10  1  0  0  0  0
  9 11  1  0  0  0  0
  7 12  1  0  0  0  0
 12 13  1  0  0  0  0
M  END
> <VConfSearch Rank>
197

> <Conf_Id>
19

> <Delta U+W>
-0.011

> <U+W>
-3.142

> <U>
-0.154

> <W>
-2.989

> <W(PB)>
-4.588

> <W(SA)>
1.599

> <Valence>
6.334

> <Coulomb>
-7.439

> <VdW>
0.951

> <VdW6>
-2.120

> <VdW12>
3.072

> <Bond>
0.065

> <Angle>
0.930

> <Pdih>
5.339

> <Idih>
0.000

> <Tether>
0.000

$$$$
VeraChem MOL file


 13 13  0  0  0  0  0  0  0  0999 V2000     
   19.2626   20.2098   22.0694 C   0  0  0  0  0  0  0  0  0  0  0  0
   18.4065   20.8947   22.0699 H   0  0  0  0  0  0  0  0  0  0  0  0
   20.1711   20.7836   21.8445 H   0  0  0  0  0  0  0  0  0  0  0  0
   19.0965   18.9005   21.2285 C   0  0  0  0  0  0  0  0  0  0  0  0
   18.0679   18.5244   21.1705 H   0  0  0  0  0  0  0  0  0  0  0  0
   19.5198   18.9207   20.2181 H   0  0  0  0  0  0  0  0  0  0  0  0
   19.9718   18.2037   22.3165 C   0  0  0  0  0  0  0  0  0  0  0  0
   19.6915   17.1645   22.5320 H   0  0  0  0  0  0  0  0  0  0  0  0
   19.3838   19.2581   23.3057 C   0  0  0  0  0  0  0  0  0  0  0  0
   20.0541   19.5923   24.1052 H   0  0  0  0  0  0  0  0  0  0  0  0
   18.4243   18.9691   23.7517 H   0  0  0  0  0  0  0  0  0  0  0  0
   21.3666   18.2949   22.1060 O   0  0  0  0  0  0  0  0  0  0  0  0
   21.8053   17.9834   22.9261 H   0  0  0  0  0  0  0  0  0  0  0  0
  1  2  1  0  0  0  0
  1  3  1  0  0  0  0
  1  4  1  0  0  0  0
  4  5  1  0  0  0  0
  4  6  1  0  0  0  0
  4  7  1  0  0  0  0
  7  8  1  0  0  0  0
  1  9  1  0  0  0  0
  7  9  1  0  0  0  0
  9 10  1  0  0  0  0
  9 11  1  0  0  0  0
  7 12  1  0  0  0  0
 12 13  1  0  0  0  0
M  END
> <VConfSearch Rank>
198

> <Conf_Id>
20

> <Delta U+W>
1.030

> <U+W>
-2.101

> <U>
0.841

> <W>
-2.942

> <W(PB)>
-4.530

> <W(SA)>
1.587

> <Valence>
6.736

> <Coulomb>
-7.246

> <VdW>
1.352

> <VdW6>
-2.500

> <VdW12>
3.851

> <Bond>
0.063

> <Angle>
0.687

> <Pdih>
5.986

> <Idih>
0.000

> <Tether>
0.000

$$$$
VeraChem MOL file


 13 13  0  0  0  0  0  0  0  0999 V2000     
   19.7363   18.8125   20.9382 C   0  0  0  0  0  0  0  0  0  0  0  0
   19.6090   17.8001   20.5327 H   0  0  0  0  0  0  0  0  0  0  0  0
   19.8312   19.5152   20.1018 H   0  0  0  0  0  0  0  0  0  0  0  0
   20.8151   18.9350   22.0645 C   0  0  0  0  0  0  0  0  0  0  0  0
   21.6738   18.2592   21.9852 H   0  0  0  0  0  0  0  0  0  0  0  0
   21.1838   19.9538   22.2361 H   0  0  0  0  0  0  0  0  0  0  0  0
   19.6810   18.4776   23.0308 C   0  0  0  0  0  0  0  0  0  0  0  0
   19.5413   17.3887   23.0677 H   0  0  0  0  0  0  0  0  0  0  0  0
   18.7102   19.2047   22.0521 C   0  0  0  0  0  0  0  0  0  0  0  0
   18.6083   20.2838   22.2209 H   0  0  0  0  0  0  0  0  0  0  0  0
   17.7098   18.7671   21.9618 H   0  0  0  0  0  0  0  0  0  0  0  0
   19.7421   19.0138   24.3311 O   0  0  0  0  0  0  0  0  0  0  0  0
   19.8666   19.9813   24.2352 H   0  0  0  0  0  0  0  0  0  0  0  0
  1  2  1  0  0  0  0
  1  3  1  0  0  0  0
  1  4  1  0  0  0  0
  4  5  1  0  0  0  0
  4  6  1  0  0  0  0
  4  7  1  0  0  0  0
  7  8  1  0  0  0  0
  1  9  1  0  0  0  0
  7  9  1  0  0  0  0
  9 10  1  0  0  0  0
  9 11  1  0  0  0  0
  7 12  1  0  0  0  0
 12 13  1  0  0  0  0
M  END
> <VConfSearch Rank>
199

> <Conf_Id>
24

> <Delta U+W>
0.356

> <U+W>
-2.775

> <U>
-0.184

> <W>
-2.591

> <W(PB)>
-4.184

> <W(SA)>
1.593

> <Valence>
6.840

> <Coulomb>
-7.916

> <VdW>
0.893

> <VdW6>
-2.167

> <VdW12>
3.060

> <Bond>
0.059

> <Angle>
0.918

> <Pdih>
5.862

> <Idih>
0.000

> <Tether>
0.000

$$$$
VeraChem MOL file


 13 13  0  0  0  0  0  0  0  0999 V2000     
   20.6619   18.7616   21.6763 C   0  0  0  0  0  0  0  0  0  0  0  0
   21.7140   19.0478   21.5599 H   0  0  0  0  0  0  0  0  0  0  0  0
   20.4530   17.9255   20.9970 H   0  0  0  0  0  0  0  0  0  0  0  0
   19.6241   19.9320   21.6184 C   0  0  0  0  0  0  0  0  0  0  0  0
   20.0037   20.8931   21.9862 H   0  0  0  0  0  0  0  0  0  0  0  0
   19.1359   20.0976   20.6515 H   0  0  0  0  0  0  0  0  0  0  0  0
   18.7981   19.1294   22.6708 C   0  0  0  0  0  0  0  0  0  0  0  0
   18.2741   19.7456   23.4125 H   0  0  0  0  0  0  0  0  0  0  0  0
   20.1679   18.5544   23.1471 C   0  0  0  0  0  0  0  0  0  0  0  0
   20.6809   19.1777   23.8896 H   0  0  0  0  0  0  0  0  0  0  0  0
   20.1531   17.5208   23.5107 H   0  0  0  0  0  0  0  0  0  0  0  0
   17.9133   18.1748   22.1252 O   0  0  0  0  0  0  0  0  0  0  0  0
   18.4318   17.6577   21.4747 H   0  0  0  0  0  0  0  0  0  0  0  0
  1  2  1  0  0  0  0
  1  3  1  0  0  0  0
  1  4  1  0  0  0  0
  4  5  1  0  0  0  0
  4  6  1  0  0  0  0
  4  7  1  0  0  0  0
  7  8  1  0  0  0  0
  1  9  1  0  0  0  0
  7  9  1  0  0  0  0
  9 10  1  0  0  0  0
  9 11  1  0  0  0  0
  7 12  1  0  0  0  0
 12 13  1  0  0  0  0
M  END
> <VConfSearch Rank>
200

> <Conf_Id>
44

> <Delta U+W>
0.823

> <U+W>
-2.308

> <U>
0.039

> <W>
-2.348

> <W(PB)>
-3.918

> <W(SA)>
1.571

> <Valence>
7.320

> <Coulomb>
-8.530

> <VdW>
1.249

> <VdW6>
-2.615

> <VdW12>
3.864

> <Bond>
0.056

> <Angle>
0.694

> <Pdih>
6.570

> <Idih>
0.000

> <Tether>
0.000

$$$$
VeraChem MOL file


 13 13  0  0  0  0  0  0  0  0999 V2000     
   20.6376   18.7722   23.1005 C   0  0  0  0  0  0  0  0  0  0  0  0
   21.1263   17.8069   22.9137 H   0  0  0  0  0  0  0  0  0  0  0  0
   21.1476   19.2675   23.9354 H   0  0  0  0  0  0  0  0  0  0  0  0
   19.0770   18.7092   23.1891 C   0  0  0  0  0  0  0  0  0  0  0  0
   18.6528   17.7884   23.6039 H   0  0  0  0  0  0  0  0  0  0  0  0
   18.6096   19.5683   23.6863 H   0  0  0  0  0  0  0  0  0  0  0  0
   19.1063   18.8011   21.6336 C   0  0  0  0  0  0  0  0  0  0  0  0
   19.2718   17.8356   21.1361 H   0  0  0  0  0  0  0  0  0  0  0  0
   20.4027   19.6451   21.8237 C   0  0  0  0  0  0  0  0  0  0  0  0
   21.1537   19.5526   21.0315 H   0  0  0  0  0  0  0  0  0  0  0  0
   20.2283   20.7099   22.0225 H   0  0  0  0  0  0  0  0  0  0  0  0
   18.0218   19.4851   21.0501 O   0  0  0  0  0  0  0  0  0  0  0  0
   18.2372   19.6160   20.1016 H   0  0  0  0  0  0  0  0  0  0  0  0
  1  2  1  0  0  0  0
  1  3  1  0  0  0  0
  1  4  1  0  0  0  0
  4  5  1  0  0  0  0
  4  6  1  0  0  0  0
  4  7  1  0  0  0  0
  7  8  1  0  0  0  0
  1  9  1  0  0  0  0
  7  9  1  0  0  0  0
  9 10  1  0  0  0  0
  9 11  1  0  0  0  0
  7 12  1  0  0  0  0
 12 13  1  0  0  0  0
M  END
> <VConfSearch Rank>
201

> <Conf_Id>
22

> <Delta U+W>
0.000

> <U+W>
-3.131

> <U>
-0.154

> <W>
-2.978

> <W(PB)>
-4.579

> <W(SA)>
1.601

> <Valence>
6.333

> <Coulomb>
-7.439

> <VdW>
0.952

> <VdW6>
-2.120

> <VdW12>
3.072

> <Bond>
0.065

> <Angle>
0.931

> <Pdih>
5.338

> <Idih>
0.000

> <Tether>
0.000

$$$$
VeraChem MOL file


 13 13  0  0  0  0  0  0  0  0999 V2000     
   20.5980   19.2646   21.4163 C   0  0  0  0  0  0  0  0  0  0  0  0
   20.4206   20.2196   20.9045 H   0  0  0  0  0  0  0  0  0  0  0  0
   21.5331   18.8334   21.0394 H   0  0  0  0  0  0  0  0  0  0  0  0
   19.3645   18.3032   21.4545 C   0  0  0  0  0  0  0  0  0  0  0  0
   19.6083   17.2529   21.6576 H   0  0  0  0  0  0  0  0  0  0  0  0
   18.6909   18.3485   20.5917 H   0  0  0  0  0  0  0  0  0  0  0  0
   18.9213   19.1188   22.7066 C   0  0  0  0  0  0  0  0  0  0  0  0
   18.3884   20.0492   22.4670 H   0  0  0  0  0  0  0  0  0  0  0  0
   20.4441   19.3175   22.9722 C   0  0  0  0  0  0  0  0  0  0  0  0
   20.9233   18.4902   23.5101 H   0  0  0  0  0  0  0  0  0  0  0  0
   20.7244   20.2605   23.4542 H   0  0  0  0  0  0  0  0  0  0  0  0
   18.2292   18.3849   23.6900 O   0  0  0  0  0  0  0  0  0  0  0  0
   17.3358   18.1910   23.3329 H   0  0  0  0  0  0  0  0  0  0  0  0
  1  2  1  0  0  0  0
  1  3  1  0  0  0  0
  1  4  1  0  0  0  0
  4  5  1  0  0  0  0
  4  6  1  0  0  0  0
  4  7  1  0  0  0  0
  7  8  1  0  0  0  0
  1  9  1  0  0  0  0
  7  9  1  0  0  0  0
  9 10  1  0  0  0  0
  9 11  1  0  0  0  0
  7 12  1  0  0  0  0
 12 13  1  0  0  0  0
M  END
> <VConfSearch Rank>
202

> <Conf_Id>
19

> <Delta U+W>
-0.011

> <U+W>
-3.142

> <U>
-0.154

> <W>
-2.989

> <W(PB)>
-4.588

> <W(SA)>
1.599

> <Valence>
6.334

> <Coulomb>
-7.439

> <VdW>
0.951

> <VdW6>
-2.120

> <VdW12>
3.072

> <Bond>
0.065

> <Angle>
0.930

> <Pdih>
5.339

> <Idih>
0.000

> <Tether>
0.000

$$$$
VeraChem MOL file


 13 13  0  0  0  0  0  0  0  0999 V2000     
   18.6461   19.7737   22.1174 C   0  0  0  0  0  0  0  0  0  0  0  0
   17.6538   19.8494   21.6575 H   0  0  0  0  0  0  0  0  0  0  0  0
   18.8215   20.6719   22.7237 H   0  0  0  0  0  0  0  0  0  0  0  0
   19.8232   19.3983   21.1569 C   0  0  0  0  0  0  0  0  0  0  0  0
   19.5366   18.7564   20.3151 H   0  0  0  0  0  0  0  0  0  0  0  0
   20.4167   20.2354   20.7731 H   0  0  0  0  0  0  0  0  0  0  0  0
   20.4394   18.6289   22.3668 C   0  0  0  0  0  0  0  0  0  0  0  0
   20.9680   17.7048   22.0996 H   0  0  0  0  0  0  0  0  0  0  0  0
   18.9673   18.4255   22.8440 C   0  0  0  0  0  0  0  0  0  0  0  0
   18.8114   18.4153   23.9284 H   0  0  0  0  0  0  0  0  0  0  0  0
   18.4724   17.5475   22.4112 H   0  0  0  0  0  0  0  0  0  0  0  0
   21.2422   19.4147   23.2248 O   0  0  0  0  0  0  0  0  0  0  0  0
   21.4232   18.8781   24.0257 H   0  0  0  0  0  0  0  0  0  0  0  0
  1  2  1  0  0  0  0
  1  3  1  0  0  0  0
  1  4  1  0  0  0  0
  4  5  1  0  0  0  0
  4  6  1  0  0  0  0
  4  7  1  0  0  0  0
  7  8  1  0  0  0  0
  1  9  1  0  0  0  0
  7  9  1  0  0  0  0
  9 10  1  0  0  0  0
  9 11  1  0  0  0  0
  7 12  1  0  0  0  0
 12 13  1  0  0  0  0
M  END
> <VConfSearch Rank>
203

> <Conf_Id>
20

> <Delta U+W>
1.030

> <U+W>
-2.101

> <U>
0.841

> <W>
-2.942

> <W(PB)>
-4.530

> <W(SA)>
1.587

> <Valence>
6.736

> <Coulomb>
-7.246

> <VdW>
1.352

> <VdW6>
-2.500

> <VdW12>
3.851

> <Bond>
0.063

> <Angle>
0.687

> <Pdih>
5.986

> <Idih>
0.000

> <Tether>
0.000

$$$$
VeraChem MOL file


 13 13  0  0  0  0  0  0  0  0999 V2000     
   18.7899   19.7734   21.9787 C   0  0  0  0  0  0  0  0  0  0  0  0
   17.9212   19.7562   22.6500 H   0  0  0  0  0  0  0  0  0  0  0  0
   18.6251   20.5406   21.2128 H   0  0  0  0  0  0  0  0  0  0  0  0
   19.2424   18.3691   21.4587 C   0  0  0  0  0  0  0  0  0  0  0  0
   18.4475   17.6290   21.3152 H   0  0  0  0  0  0  0  0  0  0  0  0
   19.8665   18.3945   20.5569 H   0  0  0  0  0  0  0  0  0  0  0  0
   20.0317   18.2634   22.7984 C   0  0  0  0  0  0  0  0  0  0  0  0
   19.4222   17.9253   23.6475 H   0  0  0  0  0  0  0  0  0  0  0  0
   20.1758   19.8124   22.7035 C   0  0  0  0  0  0  0  0  0  0  0  0
   21.0085   20.1604   22.0799 H   0  0  0  0  0  0  0  0  0  0  0  0
   20.2051   20.3469   23.6593 H   0  0  0  0  0  0  0  0  0  0  0  0
   21.2372   17.5392   22.7342 O   0  0  0  0  0  0  0  0  0  0  0  0
   21.7354   17.8823   21.9630 H   0  0  0  0  0  0  0  0  0  0  0  0
  1  2  1  0  0  0  0
  1  3  1  0  0  0  0
  1  4  1  0  0  0  0
  4  5  1  0  0  0  0
  4  6  1  0  0  0  0
  4  7  1  0  0  0  0
  7  8  1  0  0  0  0
  1  9  1  0  0  0  0
  7  9  1  0  0  0  0
  9 10  1  0  0  0  0
  9 11  1  0  0  0  0
  7 12  1  0  0  0  0
 12 13  1  0  0  0  0
M  END
> <VConfSearch Rank>
204

> <Conf_Id>
24

> <Delta U+W>
0.356

> <U+W>
-2.775

> <U>
-0.184

> <W>
-2.591

> <W(PB)>
-4.184

> <W(SA)>
1.593

> <Valence>
6.840

> <Coulomb>
-7.916

> <VdW>
0.893

> <VdW6>
-2.167

> <VdW12>
3.060

> <Bond>
0.059

> <Angle>
0.918

> <Pdih>
5.862

> <Idih>
0.000

> <Tether>
0.000

$$$$
VeraChem MOL file


 13 13  0  0  0  0  0  0  0  0999 V2000     
   20.4253   19.0499   23.0600 C   0  0  0  0  0  0  0  0  0  0  0  0
   20.8112   18.5797   23.9723 H   0  0  0  0  0  0  0  0  0  0  0  0
   20.9702   19.9884   22.8966 H   0  0  0  0  0  0  0  0  0  0  0  0
   18.8678   19.1664   22.9565 C   0  0  0  0  0  0  0  0  0  0  0  0
   18.3184   18.3676   23.4695 H   0  0  0  0  0  0  0  0  0  0  0  0
   18.4347   20.1297   23.2484 H   0  0  0  0  0  0  0  0  0  0  0  0
   19.0441   18.9345   21.4238 C   0  0  0  0  0  0  0  0  0  0  0  0
   18.2468   18.3460   20.9522 H   0  0  0  0  0  0  0  0  0  0  0  0
   20.3206   18.1220   21.8038 C   0  0  0  0  0  0  0  0  0  0  0  0
   20.1275   17.0672   22.0341 H   0  0  0  0  0  0  0  0  0  0  0  0
   21.1522   18.1763   21.0923 H   0  0  0  0  0  0  0  0  0  0  0  0
   19.2890   20.1041   20.6729 O   0  0  0  0  0  0  0  0  0  0  0  0
   20.0040   20.5860   21.1375 H   0  0  0  0  0  0  0  0  0  0  0  0
  1  2  1  0  0  0  0
  1  3  1  0  0  0  0
  1  4  1  0  0  0  0
  4  5  1  0  0  0  0
  4  6  1  0  0  0  0
  4  7  1  0  0  0  0
  7  8  1  0  0  0  0
  1  9  1  0  0  0  0
  7  9  1  0  0  0  0
  9 10  1  0  0  0  0
  9 11  1  0  0  0  0
  7 12  1  0  0  0  0
 12 13  1  0  0  0  0
M  END
> <VConfSearch Rank>
205

> <Conf_Id>
44

> <Delta U+W>
0.823

> <U+W>
-2.308

> <U>
0.039

> <W>
-2.348

> <W(PB)>
-3.918

> <W(SA)>
1.571

> <Valence>
7.320

> <Coulomb>
-8.530

> <VdW>
1.249

> <VdW6>
-2.615

> <VdW12>
3.864

> <Bond>
0.056

> <Angle>
0.694

> <Pdih>
6.570

> <Idih>
0.000

> <Tether>
0.000

$$$$
VeraChem MOL file


 13 13  0  0  0  0  0  0  0  0999 V2000     
   20.5657   19.4587   23.1207 C   0  0  0  0  0  0  0  0  0  0  0  0
   21.5831   19.5065   22.7107 H   0  0  0  0  0  0  0  0  0  0  0  0
   20.5858   19.8300   24.1523 H   0  0  0  0  0  0  0  0  0  0  0  0
   19.8328   18.0951   22.8956 C   0  0  0  0  0  0  0  0  0  0  0  0
   20.4658   17.2011   22.8888 H   0  0  0  0  0  0  0  0  0  0  0  0
   18.9780   17.9173   23.5599 H   0  0  0  0  0  0  0  0  0  0  0  0
   19.4547   18.6682   21.4965 C   0  0  0  0  0  0  0  0  0  0  0  0
   20.2426   18.5466   20.7405 H   0  0  0  0  0  0  0  0  0  0  0  0
   19.4578   20.0614   22.1951 C   0  0  0  0  0  0  0  0  0  0  0  0
   19.7602   20.9088   21.5700 H   0  0  0  0  0  0  0  0  0  0  0  0
   18.5217   20.3166   22.7073 H   0  0  0  0  0  0  0  0  0  0  0  0
   18.2079   18.2500   20.9913 O   0  0  0  0  0  0  0  0  0  0  0  0
   18.0166   18.7976   20.1996 H   0  0  0  0  0  0  0  0  0  0  0  0
  1  2  1  0  0  0  0
  1  3  1  0  0  0  0
  1  4  1  0  0  0  0
  4  5  1  0  0  0  0
  4  6  1  0  0  0  0
  4  7  1  0  0  0  0
  7  8  1  0  0  0  0
  1  9  1  0  0  0  0
  7  9  1  0  0  0  0
  9 10  1  0  0  0  0
  9 11  1  0  0  0  0
  7 12  1  0  0  0  0
 12 13  1  0  0  0  0
M  END
> <VConfSearch Rank>
206

> <Conf_Id>
22

> <Delta U+W>
0.000

> <U+W>
-3.131

> <U>
-0.154

> <W>
-2.978

> <W(PB)>
-4.579

> <W(SA)>
1.601

> <Valence>
6.333

> <Coulomb>
-7.439

> <VdW>
0.952

> <VdW6>
-2.120

> <VdW12>
3.072

> <Bond>
0.065

> <Angle>
0.931

> <Pdih>
5.338

> <Idih>
0.000

> <Tether>
0.000

$$$$
VeraChem MOL file


 13 13  0  0  0  0  0  0  0  0999 V2000     
   20.7138   19.4209   22.8118 C   0  0  0  0  0  0  0  0  0  0  0  0
   21.5672   18.7302   22.7992 H   0  0  0  0  0  0  0  0  0  0  0  0
   21.0060   20.3291   23.3523 H   0  0  0  0  0  0  0  0  0  0  0  0
   19.3547   18.7744   23.2387 C   0  0  0  0  0  0  0  0  0  0  0  0
   18.5906   19.4897   23.5679 H   0  0  0  0  0  0  0  0  0  0  0  0
   19.4161   17.9619   23.9710 H   0  0  0  0  0  0  0  0  0  0  0  0
   19.2333   18.3379   21.7474 C   0  0  0  0  0  0  0  0  0  0  0  0
   19.7782   17.4147   21.5073 H   0  0  0  0  0  0  0  0  0  0  0  0
   20.0278   19.6388   21.4228 C   0  0  0  0  0  0  0  0  0  0  0  0
   19.4102   20.5427   21.3518 H   0  0  0  0  0  0  0  0  0  0  0  0
   20.6835   19.5903   20.5466 H   0  0  0  0  0  0  0  0  0  0  0  0
   17.9207   18.2910   21.2381 O   0  0  0  0  0  0  0  0  0  0  0  0
   17.4798   17.5128   21.6421 H   0  0  0  0  0  0  0  0  0  0  0  0
  1  2  1  0  0  0  0
  1  3  1  0  0  0  0
  1  4  1  0  0  0  0
  4  5  1  0  0  0  0
  4  6  1  0  0  0  0
  4  7  1  0  0  0  0
  7  8  1  0  0  0  0
  1  9  1  0  0  0  0
  7  9  1  0  0  0  0
  9 10  1  0  0  0  0
  9 11  1  0  0  0  0
  7 12  1  0  0  0  0
 12 13  1  0  0  0  0
M  END
> <VConfSearch Rank>
207

> <Conf_Id>
19

> <Delta U+W>
-0.011

> <U+W>
-3.142

> <U>
-0.154

> <W>
-2.989

> <W(PB)>
-4.588

> <W(SA)>
1.599

> <Valence>
6.334

> <Coulomb>
-7.439

> <VdW>
0.951

> <VdW6>
-2.120

> <VdW12>
3.072

> <Bond>
0.065

> <Angle>
0.930

> <Pdih>
5.339

> <Idih>
0.000

> <Tether>
0.000

$$$$
VeraChem MOL file


 13 13  0  0  0  0  0  0  0  0999 V2000     
   20.2671   18.0460   21.9656 C   0  0  0  0  0  0  0  0  0  0  0  0
   20.2256   16.9567   21.8488 H   0  0  0  0  0  0  0  0  0  0  0  0
   21.2445   18.3999   21.6126 H   0  0  0  0  0  0  0  0  0  0  0  0
   19.8399   18.6053   23.3633 C   0  0  0  0  0  0  0  0  0  0  0  0
   19.0795   18.0071   23.8798 H   0  0  0  0  0  0  0  0  0  0  0  0
   20.6535   18.8195   24.0651 H   0  0  0  0  0  0  0  0  0  0  0  0
   19.2695   19.8355   22.5908 C   0  0  0  0  0  0  0  0  0  0  0  0
   18.3508   20.2577   23.0181 H   0  0  0  0  0  0  0  0  0  0  0  0
   19.0445   18.8458   21.4051 C   0  0  0  0  0  0  0  0  0  0  0  0
   19.1649   19.2655   20.4002 H   0  0  0  0  0  0  0  0  0  0  0  0
   18.0910   18.3053   21.4464 H   0  0  0  0  0  0  0  0  0  0  0  0
   20.2042   20.8658   22.3397 O   0  0  0  0  0  0  0  0  0  0  0  0
   19.7865   21.4897   21.7085 H   0  0  0  0  0  0  0  0  0  0  0  0
  1  2  1  0  0  0  0
  1  3  1  0  0  0  0
  1  4  1  0  0  0  0
  4  5  1  0  0  0  0
  4  6  1  0  0  0  0
  4  7  1  0  0  0  0
  7  8  1  0  0  0  0
  1  9  1  0  0  0  0
  7  9  1  0  0  0  0
  9 10  1  0  0  0  0
  9 11  1  0  0  0  0
  7 12  1  0  0  0  0
 12 13  1  0  0  0  0
M  END
> <VConfSearch Rank>
208

> <Conf_Id>
20

> <Delta U+W>
1.030

> <U+W>
-2.101

> <U>
0.841

> <W>
-2.942

> <W(PB)>
-4.530

> <W(SA)>
1.587

> <Valence>
6.736

> <Coulomb>
-7.246

> <VdW>
1.352

> <VdW6>
-2.500

> <VdW12>
3.851

> <Bond>
0.063

> <Angle>
0.687

> <Pdih>
5.986

> <Idih>
0.000

> <Tether>
0.000

$$$$
VeraChem MOL file


 13 13  0  0  0  0  0  0  0  0999 V2000     
   19.6691   18.7156   20.9551 C   0  0  0  0  0  0  0  0  0  0  0  0
   20.3320   17.9483   20.5338 H   0  0  0  0  0  0  0  0  0  0  0  0
   19.0530   19.1278   20.1471 H   0  0  0  0  0  0  0  0  0  0  0  0
   20.3806   19.7595   21.8777 C   0  0  0  0  0  0  0  0  0  0  0  0
   21.4162   20.0055   21.6183 H   0  0  0  0  0  0  0  0  0  0  0  0
   19.8238   20.6929   22.0267 H   0  0  0  0  0  0  0  0  0  0  0  0
   20.1991   18.7014   23.0077 C   0  0  0  0  0  0  0  0  0  0  0  0
   20.9781   17.9271   23.0202 H   0  0  0  0  0  0  0  0  0  0  0  0
   18.9045   18.2806   22.2487 C   0  0  0  0  0  0  0  0  0  0  0  0
   18.0178   18.8834   22.4806 H   0  0  0  0  0  0  0  0  0  0  0  0
   18.6364   17.2205   22.3169 H   0  0  0  0  0  0  0  0  0  0  0  0
   19.9995   19.2246   24.2993 O   0  0  0  0  0  0  0  0  0  0  0  0
   19.2986   19.9058   24.2260 H   0  0  0  0  0  0  0  0  0  0  0  0
  1  2  1  0  0  0  0
  1  3  1  0  0  0  0
  1  4  1  0  0  0  0
  4  5  1  0  0  0  0
  4  6  1  0  0  0  0
  4  7  1  0  0  0  0
  7  8  1  0  0  0  0
  1  9  1  0  0  0  0
  7  9  1  0  0  0  0
  9 10  1  0  0  0  0
  9 11  1  0  0  0  0
  7 12  1  0  0  0  0
 12 13  1  0  0  0  0
M  END
> <VConfSearch Rank>
209

> <Conf_Id>
24

> <Delta U+W>
0.356

> <U+W>
-2.775

> <U>
-0.184

> <W>
-2.591

> <W(PB)>
-4.184

> <W(SA)>
1.593

> <Valence>
6.840

> <Coulomb>
-7.916

> <VdW>
0.893

> <VdW6>
-2.167

> <VdW12>
3.060

> <Bond>
0.059

> <Angle>
0.918

> <Pdih>
5.862

> <Idih>
0.000

> <Tether>
0.000

$$$$
VeraChem MOL file


 13 13  0  0  0  0  0  0  0  0999 V2000     
   19.8256   18.3168   23.1153 C   0  0  0  0  0  0  0  0  0  0  0  0
   20.2586   18.2337   24.1193 H   0  0  0  0  0  0  0  0  0  0  0  0
   19.3005   17.3809   22.8858 H   0  0  0  0  0  0  0  0  0  0  0  0
   20.7928   18.8215   21.9928 C   0  0  0  0  0  0  0  0  0  0  0  0
   21.5735   19.5081   22.3420 H   0  0  0  0  0  0  0  0  0  0  0  0
   21.2610   18.0475   21.3744 H   0  0  0  0  0  0  0  0  0  0  0  0
   19.5515   19.5328   21.3706 C   0  0  0  0  0  0  0  0  0  0  0  0
   19.7634   20.5014   20.9000 H   0  0  0  0  0  0  0  0  0  0  0  0
   19.0056   19.6191   22.8296 C   0  0  0  0  0  0  0  0  0  0  0  0
   19.3482   20.5013   23.3840 H   0  0  0  0  0  0  0  0  0  0  0  0
   17.9183   19.5394   22.9395 H   0  0  0  0  0  0  0  0  0  0  0  0
   18.7851   18.7303   20.4987 O   0  0  0  0  0  0  0  0  0  0  0  0
   18.6276   17.8852   20.9680 H   0  0  0  0  0  0  0  0  0  0  0  0
  1  2  1  0  0  0  0
  1  3  1  0  0  0  0
  1  4  1  0  0  0  0
  4  5  1  0  0  0  0
  4  6  1  0  0  0  0
  4  7  1  0  0  0  0
  7  8  1  0  0  0  0
  1  9  1  0  0  0  0
  7  9  1  0  0  0  0
  9 10  1  0  0  0  0
  9 11  1  0  0  0  0
  7 12  1  0  0  0  0
 12 13  1  0  0  0  0
M  END
> <VConfSearch Rank>
210

> <Conf_Id>
44

> <Delta U+W>
0.823

> <U+W>
-2.308

> <U>
0.039

> <W>
-2.348

> <W(PB)>
-3.918

> <W(SA)>
1.571

> <Valence>
7.320

> <Coulomb>
-8.530

> <VdW>
1.249

> <VdW6>
-2.615

> <VdW12>
3.864

> <Bond>
0.056

> <Angle>
0.694

> <Pdih>
6.570

> <Idih>
0.000

> <Tether>
0.000

$$$$
VeraChem MOL file


 13 13  0  0  0  0  0  0  0  0999 V2000     
   20.8177   19.5575   21.8576 C   0  0  0  0  0  0  0  0  0  0  0  0
   20.7241   20.5670   21.4362 H   0  0  0  0  0  0  0  0  0  0  0  0
   21.8792   19.2833   21.8778 H   0  0  0  0  0  0  0  0  0  0  0  0
   19.8462   18.4980   21.2405 C   0  0  0  0  0  0  0  0  0  0  0  0
   19.5935   18.6315   20.1829 H   0  0  0  0  0  0  0  0  0  0  0  0
   20.1406   17.4539   21.4039 H   0  0  0  0  0  0  0  0  0  0  0  0
   18.8007   19.0412   22.2607 C   0  0  0  0  0  0  0  0  0  0  0  0
   18.2787   19.9461   21.9204 H   0  0  0  0  0  0  0  0  0  0  0  0
   20.0229   19.3258   23.1850 C   0  0  0  0  0  0  0  0  0  0  0  0
   19.9289   20.1927   23.8483 H   0  0  0  0  0  0  0  0  0  0  0  0
   20.3584   18.4640   23.7754 H   0  0  0  0  0  0  0  0  0  0  0  0
   17.8846   18.0889   22.7489 O   0  0  0  0  0  0  0  0  0  0  0  0
   17.3973   18.5080   23.4906 H   0  0  0  0  0  0  0  0  0  0  0  0
  1  2  1  0  0  0  0
  1  3  1  0  0  0  0
  1  4  1  0  0  0  0
  4  5  1  0  0  0  0
  4  6  1  0  0  0  0
  4  7  1  0  0  0  0
  7  8  1  0  0  0  0
  1  9  1  0  0  0  0
  7  9  1  0  0  0  0
  9 10  1  0  0  0  0
  9 11  1  0  0  0  0
  7 12  1  0  0  0  0
 12 13  1  0  0  0  0
M  END
> <VConfSearch Rank>
211

> <Conf_Id>
22

> <Delta U+W>
0.000

> <U+W>
-3.131

> <U>
-0.154

> <W>
-2.978

> <W(PB)>
-4.579

> <W(SA)>
1.601

> <Valence>
6.333

> <Coulomb>
-7.439

> <VdW>
0.952

> <VdW6>
-2.120

> <VdW12>
3.072

> <Bond>
0.065

> <Angle>
0.931

> <Pdih>
5.338

> <Idih>
0.000

> <Tether>
0.000

$$$$
VeraChem MOL file


 13 13  0  0  0  0  0  0  0  0999 V2000     
   20.7459   19.2858   22.8502 C   0  0  0  0  0  0  0  0  0  0  0  0
   21.6400   19.1635   22.2248 H   0  0  0  0  0  0  0  0  0  0  0  0
   21.0571   19.6346   23.8420 H   0  0  0  0  0  0  0  0  0  0  0  0
   19.7597   18.0717   22.8269 C   0  0  0  0  0  0  0  0  0  0  0  0
   19.0574   18.0358   23.6692 H   0  0  0  0  0  0  0  0  0  0  0  0
   20.2151   17.0828   22.7050 H   0  0  0  0  0  0  0  0  0  0  0  0
   19.1845   18.7197   21.5314 C   0  0  0  0  0  0  0  0  0  0  0  0
   19.7523   18.4787   20.6223 H   0  0  0  0  0  0  0  0  0  0  0  0
   19.5801   20.0822   22.1764 C   0  0  0  0  0  0  0  0  0  0  0  0
   18.8367   20.4875   22.8742 H   0  0  0  0  0  0  0  0  0  0  0  0
   19.8748   20.8724   21.4773 H   0  0  0  0  0  0  0  0  0  0  0  0
   17.8041   18.5298   21.3241 O   0  0  0  0  0  0  0  0  0  0  0  0
   17.6745   17.5899   21.0731 H   0  0  0  0  0  0  0  0  0  0  0  0
  1  2  1  0  0  0  0
  1  3  1  0  0  0  0
  1  4  1  0  0  0  0
  4  5  1  0  0  0  0
  4  6  1  0  0  0  0
  4  7  1  0  0  0  0
  7  8  1  0  0  0  0
  1  9  1  0  0  0  0
  7  9  1  0  0  0  0
  9 10  1  0  0  0  0
  9 11  1  0  0  0  0
  7 12  1  0  0  0  0
 12 13  1  0  0  0  0
M  END
> <VConfSearch Rank>
212

> <Conf_Id>
19

> <Delta U+W>
-0.011

> <U+W>
-3.142

> <U>
-0.154

> <W>
-2.989

> <W(PB)>
-4.588

> <W(SA)>
1.599

> <Valence>
6.334

> <Coulomb>
-7.439

> <VdW>
0.951

> <VdW6>
-2.120

> <VdW12>
3.072

> <Bond>
0.065

> <Angle>
0.930

> <Pdih>
5.339

> <Idih>
0.000

> <Tether>
0.000

$$$$
VeraChem MOL file


 13 13  0  0  0  0  0  0  0  0999 V2000     
   20.4012   18.1165   22.4995 C   0  0  0  0  0  0  0  0  0  0  0  0
   20.5307   17.1633   23.0254 H   0  0  0  0  0  0  0  0  0  0  0  0
   21.2822   18.2917   21.8683 H   0  0  0  0  0  0  0  0  0  0  0  0
   19.9813   19.3385   23.3823 C   0  0  0  0  0  0  0  0  0  0  0  0
   19.3647   19.0811   24.2519 H   0  0  0  0  0  0  0  0  0  0  0  0
   20.7935   19.9964   23.7109 H   0  0  0  0  0  0  0  0  0  0  0  0
   19.1678   19.8317   22.1451 C   0  0  0  0  0  0  0  0  0  0  0  0
   18.2227   20.3332   22.3899 H   0  0  0  0  0  0  0  0  0  0  0  0
   19.0301   18.3219   21.7739 C   0  0  0  0  0  0  0  0  0  0  0  0
   19.0138   18.0906   20.7032 H   0  0  0  0  0  0  0  0  0  0  0  0
   18.1826   17.8173   22.2537 H   0  0  0  0  0  0  0  0  0  0  0  0
   19.9029   20.6092   21.2214 O   0  0  0  0  0  0  0  0  0  0  0  0
   19.3482   20.7083   20.4186 H   0  0  0  0  0  0  0  0  0  0  0  0
  1  2  1  0  0  0  0
  1  3  1  0  0  0  0
  1  4  1  0  0  0  0
  4  5  1  0  0  0  0
  4  6  1  0  0  0  0
  4  7  1  0  0  0  0
  7  8  1  0  0  0  0
  1  9  1  0  0  0  0
  7  9  1  0  0  0  0
  9 10  1  0  0  0  0
  9 11  1  0  0  0  0
  7 12  1  0  0  0  0
 12 13  1  0  0  0  0
M  END
> <VConfSearch Rank>
213

> <Conf_Id>
20

> <Delta U+W>
1.030

> <U+W>
-2.101

> <U>
0.841

> <W>
-2.942

> <W(PB)>
-4.530

> <W(SA)>
1.587

> <Valence>
6.736

> <Coulomb>
-7.246

> <VdW>
1.352

> <VdW6>
-2.500

> <VdW12>
3.851

> <Bond>
0.063

> <Angle>
0.687

> <Pdih>
5.986

> <Idih>
0.000

> <Tether>
0.000

$$$$
VeraChem MOL file


 13 13  0  0  0  0  0  0  0  0999 V2000     
   20.1265   17.9294   21.5411 C   0  0  0  0  0  0  0  0  0  0  0  0
   21.1719   17.6080   21.6386 H   0  0  0  0  0  0  0  0  0  0  0  0
   19.6161   17.2534   20.8448 H   0  0  0  0  0  0  0  0  0  0  0  0
   19.9345   19.4596   21.2784 C   0  0  0  0  0  0  0  0  0  0  0  0
   20.7207   19.9510   20.6947 H   0  0  0  0  0  0  0  0  0  0  0  0
   18.9597   19.7325   20.8558 H   0  0  0  0  0  0  0  0  0  0  0  0
   20.0438   19.6140   22.8255 C   0  0  0  0  0  0  0  0  0  0  0  0
   21.0771   19.6488   23.1964 H   0  0  0  0  0  0  0  0  0  0  0  0
   19.3956   18.1984   22.8979 C   0  0  0  0  0  0  0  0  0  0  0  0
   18.3004   18.1893   22.8372 H   0  0  0  0  0  0  0  0  0  0  0  0
   19.7059   17.5759   23.7443 H   0  0  0  0  0  0  0  0  0  0  0  0
   19.2812   20.6571   23.3842 O   0  0  0  0  0  0  0  0  0  0  0  0
   18.3753   20.5754   23.0192 H   0  0  0  0  0  0  0  0  0  0  0  0
  1  2  1  0  0  0  0
  1  3  1  0  0  0  0
  1  4  1  0  0  0  0
  4  5  1  0  0  0  0
  4  6  1  0  0  0  0
  4  7  1  0  0  0  0
  7  8  1  0  0  0  0
  1  9  1  0  0  0  0
  7  9  1  0  0  0  0
  9 10  1  0  0  0  0
  9 11  1  0  0  0  0
  7 12  1  0  0  0  0
 12 13  1  0  0  0  0
M  END
> <VConfSearch Rank>
214

> <Conf_Id>
24

> <Delta U+W>
0.356

> <U+W>
-2.775

> <U>
-0.184

> <W>
-2.591

> <W(PB)>
-4.184

> <W(SA)>
1.593

> <Valence>
6.840

> <Coulomb>
-7.916

> <VdW>
0.893

> <VdW6>
-2.167

> <VdW12>
3.060

> <Bond>
0.059

> <Angle>
0.918

> <Pdih>
5.862

> <Idih>
0.000

> <Tether>
0.000

$$$$
VeraChem MOL file


 13 13  0  0  0  0  0  0  0  0999 V2000     
   19.9738   18.5228   21.2159 C   0  0  0  0  0  0  0  0  0  0  0  0
   20.7463   17.9954   20.6436 H   0  0  0  0  0  0  0  0  0  0  0  0
   19.1099   18.6896   20.5600 H   0  0  0  0  0  0  0  0  0  0  0  0
   20.4517   19.7847   22.0091 C   0  0  0  0  0  0  0  0  0  0  0  0
   21.4918   19.7363   22.3540 H   0  0  0  0  0  0  0  0  0  0  0  0
   20.2918   20.7521   21.5200 H   0  0  0  0  0  0  0  0  0  0  0  0
   19.4027   19.3872   23.0933 C   0  0  0  0  0  0  0  0  0  0  0  0
   19.7096   19.5893   24.1274 H   0  0  0  0  0  0  0  0  0  0  0  0
   19.6290   17.9185   22.6181 C   0  0  0  0  0  0  0  0  0  0  0  0
   20.4673   17.4126   23.1123 H   0  0  0  0  0  0  0  0  0  0  0  0
   18.7529   17.2616   22.6590 H   0  0  0  0  0  0  0  0  0  0  0  0
   18.1022   19.8876   22.8696 O   0  0  0  0  0  0  0  0  0  0  0  0
   17.8829   19.6802   21.9378 H   0  0  0  0  0  0  0  0  0  0  0  0
  1  2  1  0  0  0  0
  1  3  1  0  0  0  0
  1  4  1  0  0  0  0
  4  5  1  0  0  0  0
  4  6  1  0  0  0  0
  4  7  1  0  0  0  0
  7  8  1  0  0  0  0
  1  9  1  0  0  0  0
  7  9  1  0  0  0  0
  9 10  1  0  0  0  0
  9 11  1  0  0  0  0
  7 12  1  0  0  0  0
 12 13  1  0  0  0  0
M  END
> <VConfSearch Rank>
215

> <Conf_Id>
44

> <Delta U+W>
0.823

> <U+W>
-2.308

> <U>
0.039

> <W>
-2.348

> <W(PB)>
-3.918

> <W(SA)>
1.571

> <Valence>
7.320

> <Coulomb>
-8.530

> <VdW>
1.249

> <VdW6>
-2.615

> <VdW12>
3.864

> <Bond>
0.056

> <Angle>
0.694

> <Pdih>
6.570

> <Idih>
0.000

> <Tether>
0.000

$$$$
VeraChem MOL file


 13 13  0  0  0  0  0  0  0  0999 V2000     
   20.2646   19.9015   21.4438 C   0  0  0  0  0  0  0  0  0  0  0  0
   20.2445   20.9346   21.8150 H   0  0  0  0  0  0  0  0  0  0  0  0
   20.8368   19.8761   20.5088 H   0  0  0  0  0  0  0  0  0  0  0  0
   18.8723   19.1887   21.4166 C   0  0  0  0  0  0  0  0  0  0  0  0
   18.0054   19.8281   21.2176 H   0  0  0  0  0  0  0  0  0  0  0  0
   18.8189   18.3085   20.7639 H   0  0  0  0  0  0  0  0  0  0  0  0
   19.1450   18.8646   22.9164 C   0  0  0  0  0  0  0  0  0  0  0  0
   18.8856   19.6839   23.6008 H   0  0  0  0  0  0  0  0  0  0  0  0
   20.6505   18.8284   22.5148 C   0  0  0  0  0  0  0  0  0  0  0  0
   21.3588   19.1500   23.2862 H   0  0  0  0  0  0  0  0  0  0  0  0
   20.9892   17.8701   22.1017 H   0  0  0  0  0  0  0  0  0  0  0  0
   18.6140   17.6429   23.3748 O   0  0  0  0  0  0  0  0  0  0  0  0
   18.9873   17.4805   24.2678 H   0  0  0  0  0  0  0  0  0  0  0  0
  1  2  1  0  0  0  0
  1  3  1  0  0  0  0
  1  4  1  0  0  0  0
  4  5  1  0  0  0  0
  4  6  1  0  0  0  0
  4  7  1  0  0  0  0
  7  8  1  0  0  0  0
  1  9  1  0  0  0  0
  7  9  1  0  0  0  0
  9 10  1  0  0  0  0
  9 11  1  0  0  0  0
  7 12  1  0  0  0  0
 12 13  1  0  0  0  0
M  END
> <VConfSearch Rank>
216

> <Conf_Id>
22

> <Delta U+W>
0.000

> <U+W>
-3.131

> <U>
-0.154

> <W>
-2.978

> <W(PB)>
-4.579

> <W(SA)>
1.601

> <Valence>
6.333

> <Coulomb>
-7.439

> <VdW>
0.952

> <VdW6>
-2.120

> <VdW12>
3.072

> <Bond>
0.065

> <Angle>
0.931

> <Pdih>
5.338

> <Idih>
0.000

> <Tether>
0.000

$$$$
VeraChem MOL file


 13 13  0  0  0  0  0  0  0  0999 V2000     
   20.4370   18.9807   23.2880 C   0  0  0  0  0  0  0  0  0  0  0  0
   21.1090   19.8489   23.2746 H   0  0  0  0  0  0  0  0  0  0  0  0
   20.6754   18.3667   24.1647 H   0  0  0  0  0  0  0  0  0  0  0  0
   20.3241   18.2192   21.9261 C   0  0  0  0  0  0  0  0  0  0  0  0
   19.9361   17.1959   22.0042 H   0  0  0  0  0  0  0  0  0  0  0  0
   21.2255   18.2082   21.3036 H   0  0  0  0  0  0  0  0  0  0  0  0
   19.2546   19.2905   21.5551 C   0  0  0  0  0  0  0  0  0  0  0  0
   19.6781   20.2305   21.1753 H   0  0  0  0  0  0  0  0  0  0  0  0
   18.9245   19.3203   23.0779 C   0  0  0  0  0  0  0  0  0  0  0  0
   18.2278   18.5395   23.4072 H   0  0  0  0  0  0  0  0  0  0  0  0
   18.5858   20.2843   23.4730 H   0  0  0  0  0  0  0  0  0  0  0  0
   18.2126   18.8386   20.7217 O   0  0  0  0  0  0  0  0  0  0  0  0
   18.5917   18.7112   19.8254 H   0  0  0  0  0  0  0  0  0  0  0  0
  1  2  1  0  0  0  0
  1  3  1  0  0  0  0
  1  4  1  0  0  0  0
  4  5  1  0  0  0  0
  4  6  1  0  0  0  0
  4  7  1  0  0  0  0
  7  8  1  0  0  0  0
  1  9  1  0  0  0  0
  7  9  1  0  0  0  0
  9 10  1  0  0  0  0
  9 11  1  0  0  0  0
  7 12  1  0  0  0  0
 12 13  1  0  0  0  0
M  END
> <VConfSearch Rank>
217

> <Conf_Id>
19

> <Delta U+W>
-0.011

> <U+W>
-3.142

> <U>
-0.154

> <W>
-2.989

> <W(PB)>
-4.588

> <W(SA)>
1.599

> <Valence>
6.334

> <Coulomb>
-7.439

> <VdW>
0.951

> <VdW6>
-2.120

> <VdW12>
3.072

> <Bond>
0.065

> <Angle>
0.930

> <Pdih>
5.339

> <Idih>
0.000

> <Tether>
0.000

$$$$
VeraChem MOL file


 13 13  0  0  0  0  0  0  0  0999 V2000     
   20.0458   18.2974   23.1604 C   0  0  0  0  0  0  0  0  0  0  0  0
   20.0279   17.2713   23.5461 H   0  0  0  0  0  0  0  0  0  0  0  0
   20.7556   18.8845   23.7575 H   0  0  0  0  0  0  0  0  0  0  0  0
   18.6526   18.9790   22.9522 C   0  0  0  0  0  0  0  0  0  0  0  0
   17.8424   18.2877   22.6906 H   0  0  0  0  0  0  0  0  0  0  0  0
   18.3094   19.6302   23.7637 H   0  0  0  0  0  0  0  0  0  0  0  0
   19.2958   19.7027   21.7282 C   0  0  0  0  0  0  0  0  0  0  0  0
   18.6173   19.8549   20.8789 H   0  0  0  0  0  0  0  0  0  0  0  0
   20.2173   18.4483   21.6123 C   0  0  0  0  0  0  0  0  0  0  0  0
   21.2373   18.6332   21.2578 H   0  0  0  0  0  0  0  0  0  0  0  0
   19.7866   17.6276   21.0258 H   0  0  0  0  0  0  0  0  0  0  0  0
   19.9652   20.9093   22.0350 O   0  0  0  0  0  0  0  0  0  0  0  0
   20.4687   21.1737   21.2357 H   0  0  0  0  0  0  0  0  0  0  0  0
  1  2  1  0  0  0  0
  1  3  1  0  0  0  0
  1  4  1  0  0  0  0
  4  5  1  0  0  0  0
  4  6  1  0  0  0  0
  4  7  1  0  0  0  0
  7  8  1  0  0  0  0
  1  9  1  0  0  0  0
  7  9  1  0  0  0  0
  9 10  1  0  0  0  0
  9 11  1  0  0  0  0
  7 12  1  0  0  0  0
 12 13  1  0  0  0  0
M  END
> <VConfSearch Rank>
218

> <Conf_Id>
20

> <Delta U+W>
1.030

> <U+W>
-2.101

> <U>
0.841

> <W>
-2.942

> <W(PB)>
-4.530

> <W(SA)>
1.587

> <Valence>
6.736

> <Coulomb>
-7.246

> <VdW>
1.352

> <VdW6>
-2.500

> <VdW12>
3.851

> <Bond>
0.063

> <Angle>
0.687

> <Pdih>
5.986

> <Idih>
0.000

> <Tether>
0.000

$$$$
VeraChem MOL file


 13 13  0  0  0  0  0  0  0  0999 V2000     
   20.4915   19.6582   21.4432 C   0  0  0  0  0  0  0  0  0  0  0  0
   20.8213   19.2127   20.4953 H   0  0  0  0  0  0  0  0  0  0  0  0
   20.9043   20.6715   21.5160 H   0  0  0  0  0  0  0  0  0  0  0  0
   20.6870   18.7447   22.6980 C   0  0  0  0  0  0  0  0  0  0  0  0
   21.5511   18.0717   22.6746 H   0  0  0  0  0  0  0  0  0  0  0  0
   20.6817   19.2774   23.6570 H   0  0  0  0  0  0  0  0  0  0  0  0
   19.3225   18.1084   22.2950 C   0  0  0  0  0  0  0  0  0  0  0  0
   19.4056   17.3313   21.5230 H   0  0  0  0  0  0  0  0  0  0  0  0
   18.9610   19.5171   21.7346 C   0  0  0  0  0  0  0  0  0  0  0  0
   18.5699   20.2224   22.4782 H   0  0  0  0  0  0  0  0  0  0  0  0
   18.3009   19.5262   20.8603 H   0  0  0  0  0  0  0  0  0  0  0  0
   18.5248   17.6606   23.3650 O   0  0  0  0  0  0  0  0  0  0  0  0
   18.4871   18.3908   24.0178 H   0  0  0  0  0  0  0  0  0  0  0  0
  1  2  1  0  0  0  0
  1  3  1  0  0  0  0
  1  4  1  0  0  0  0
  4  5  1  0  0  0  0
  4  6  1  0  0  0  0
  4  7  1  0  0  0  0
  7  8  1  0  0  0  0
  1  9  1  0  0  0  0
  7  9  1  0  0  0  0
  9 10  1  0  0  0  0
  9 11  1  0  0  0  0
  7 12  1  0  0  0  0
 12 13  1  0  0  0  0
M  END
> <VConfSearch Rank>
219

> <Conf_Id>
24

> <Delta U+W>
0.356

> <U+W>
-2.775

> <U>
-0.184

> <W>
-2.591

> <W(PB)>
-4.184

> <W(SA)>
1.593

> <Valence>
6.840

> <Coulomb>
-7.916

> <VdW>
0.893

> <VdW6>
-2.167

> <VdW12>
3.060

> <Bond>
0.059

> <Angle>
0.918

> <Pdih>
5.862

> <Idih>
0.000

> <Tether>
0.000

$$$$
VeraChem MOL file


 13 13  0  0  0  0  0  0  0  0999 V2000     
   20.6360   19.0485   22.8184 C   0  0  0  0  0  0  0  0  0  0  0  0
   21.4202   19.7154   23.1961 H   0  0  0  0  0  0  0  0  0  0  0  0
   20.8446   18.0317   23.1746 H   0  0  0  0  0  0  0  0  0  0  0  0
   20.3222   19.1590   21.2889 C   0  0  0  0  0  0  0  0  0  0  0  0
   20.4834   20.1572   20.8639 H   0  0  0  0  0  0  0  0  0  0  0  0
   20.8099   18.4219   20.6411 H   0  0  0  0  0  0  0  0  0  0  0  0
   18.8380   18.8597   21.6653 C   0  0  0  0  0  0  0  0  0  0  0  0
   18.0929   19.3885   21.0574 H   0  0  0  0  0  0  0  0  0  0  0  0
   19.1633   19.5329   23.0346 C   0  0  0  0  0  0  0  0  0  0  0  0
   19.0404   20.6228   23.0377 H   0  0  0  0  0  0  0  0  0  0  0  0
   18.6424   19.1213   23.9063 H   0  0  0  0  0  0  0  0  0  0  0  0
   18.5123   17.4887   21.7427 O   0  0  0  0  0  0  0  0  0  0  0  0
   19.2063   17.0705   22.2930 H   0  0  0  0  0  0  0  0  0  0  0  0
  1  2  1  0  0  0  0
  1  3  1  0  0  0  0
  1  4  1  0  0  0  0
  4  5  1  0  0  0  0
  4  6  1  0  0  0  0
  4  7  1  0  0  0  0
  7  8  1  0  0  0  0
  1  9  1  0  0  0  0
  7  9  1  0  0  0  0
  9 10  1  0  0  0  0
  9 11  1  0  0  0  0
  7 12  1  0  0  0  0
 12 13  1  0  0  0  0
M  END
> <VConfSearch Rank>
220

> <Conf_Id>
44

> <Delta U+W>
0.823

> <U+W>
-2.308

> <U>
0.039

> <W>
-2.348

> <W(PB)>
-3.918

> <W(SA)>
1.571

> <Valence>
7.320

> <Coulomb>
-8.530

> <VdW>
1.249

> <VdW6>
-2.615

> <VdW12>
3.864

> <Bond>
0.056

> <Angle>
0.694

> <Pdih>
6.570

> <Idih>
0.000

> <Tether>
0.000

$$$$
VeraChem MOL file


 13 13  0  0  0  0  0  0  0  0999 V2000     
   20.5931   19.9801   22.3232 C   0  0  0  0  0  0  0  0  0  0  0  0
   20.9871   20.2840   21.3445 H   0  0  0  0  0  0  0  0  0  0  0  0
   21.0624   20.5988   23.0974 H   0  0  0  0  0  0  0  0  0  0  0  0
   20.5985   18.4370   22.5803 C   0  0  0  0  0  0  0  0  0  0  0  0
   21.4142   17.8721   22.1161 H   0  0  0  0  0  0  0  0  0  0  0  0
   20.5239   18.1464   23.6356 H   0  0  0  0  0  0  0  0  0  0  0  0
   19.2434   18.4268   21.8106 C   0  0  0  0  0  0  0  0  0  0  0  0
   19.3550   18.4016   20.7179 H   0  0  0  0  0  0  0  0  0  0  0  0
   19.0350   19.8576   22.3924 C   0  0  0  0  0  0  0  0  0  0  0  0
   18.4683   20.5519   21.7623 H   0  0  0  0  0  0  0  0  0  0  0  0
   18.6183   19.8808   23.4071 H   0  0  0  0  0  0  0  0  0  0  0  0
   18.3136   17.4598   22.2408 O   0  0  0  0  0  0  0  0  0  0  0  0
   17.4601   17.6610   21.8001 H   0  0  0  0  0  0  0  0  0  0  0  0
  1  2  1  0  0  0  0
  1  3  1  0  0  0  0
  1  4  1  0  0  0  0
  4  5  1  0  0  0  0
  4  6  1  0  0  0  0
  4  7  1  0  0  0  0
  7  8  1  0  0  0  0
  1  9  1  0  0  0  0
  7  9  1  0  0  0  0
  9 10  1  0  0  0  0
  9 11  1  0  0  0  0
  7 12  1  0  0  0  0
 12 13  1  0  0  0  0
M  END
> <VConfSearch Rank>
221

> <Conf_Id>
22

> <Delta U+W>
0.000

> <U+W>
-3.131

> <U>
-0.154

> <W>
-2.978

> <W(PB)>
-4.579

> <W(SA)>
1.601

> <Valence>
6.333

> <Coulomb>
-7.439

> <VdW>
0.952

> <VdW6>
-2.120

> <VdW12>
3.072

> <Bond>
0.065

> <Angle>
0.931

> <Pdih>
5.338

> <Idih>
0.000

> <Tether>
0.000

$$$$
VeraChem MOL file


 13 13  0  0  0  0  0  0  0  0999 V2000     
   19.3390   20.0947   22.7849 C   0  0  0  0  0  0  0  0  0  0  0  0
   18.2636   20.2458   22.9471 H   0  0  0  0  0  0  0  0  0  0  0  0
   19.8697   21.0076   23.0805 H   0  0  0  0  0  0  0  0  0  0  0  0
   19.7133   19.5052   21.3850 C   0  0  0  0  0  0  0  0  0  0  0  0
   20.7594   19.6546   21.0898 H   0  0  0  0  0  0  0  0  0  0  0  0
   19.0663   19.7965   20.5504 H   0  0  0  0  0  0  0  0  0  0  0  0
   19.4133   18.1161   22.0252 C   0  0  0  0  0  0  0  0  0  0  0  0
   18.3479   17.8478   22.0292 H   0  0  0  0  0  0  0  0  0  0  0  0
   19.9055   18.7543   23.3591 C   0  0  0  0  0  0  0  0  0  0  0  0
   20.9937   18.7366   23.4970 H   0  0  0  0  0  0  0  0  0  0  0  0
   19.4286   18.3789   24.2711 H   0  0  0  0  0  0  0  0  0  0  0  0
   20.1962   17.0487   21.5434 O   0  0  0  0  0  0  0  0  0  0  0  0
   19.8856   16.8475   20.6344 H   0  0  0  0  0  0  0  0  0  0  0  0
  1  2  1  0  0  0  0
  1  3  1  0  0  0  0
  1  4  1  0  0  0  0
  4  5  1  0  0  0  0
  4  6  1  0  0  0  0
  4  7  1  0  0  0  0
  7  8  1  0  0  0  0
  1  9  1  0  0  0  0
  7  9  1  0  0  0  0
  9 10  1  0  0  0  0
  9 11  1  0  0  0  0
  7 12  1  0  0  0  0
 12 13  1  0  0  0  0
M  END
> <VConfSearch Rank>
222

> <Conf_Id>
19

> <Delta U+W>
-0.011

> <U+W>
-3.142

> <U>
-0.154

> <W>
-2.989

> <W(PB)>
-4.588

> <W(SA)>
1.599

> <Valence>
6.334

> <Coulomb>
-7.439

> <VdW>
0.951

> <VdW6>
-2.120

> <VdW12>
3.072

> <Bond>
0.065

> <Angle>
0.930

> <Pdih>
5.339

> <Idih>
0.000

> <Tether>
0.000

$$$$
VeraChem MOL file


 13 13  0  0  0  0  0  0  0  0999 V2000     
   18.4076   18.9461   22.3559 C   0  0  0  0  0  0  0  0  0  0  0  0
   17.5713   18.2463   22.4690 H   0  0  0  0  0  0  0  0  0  0  0  0
   18.0123   19.9703   22.3671 H   0  0  0  0  0  0  0  0  0  0  0  0
   19.4024   18.6467   21.1856 C   0  0  0  0  0  0  0  0  0  0  0  0
   19.5156   17.5826   20.9456 H   0  0  0  0  0  0  0  0  0  0  0  0
   19.2313   19.1995   20.2552 H   0  0  0  0  0  0  0  0  0  0  0  0
   20.5192   19.2146   22.1160 C   0  0  0  0  0  0  0  0  0  0  0  0
   21.4908   18.7125   22.0230 H   0  0  0  0  0  0  0  0  0  0  0  0
   19.6340   18.7120   23.2992 C   0  0  0  0  0  0  0  0  0  0  0  0
   19.6616   19.3190   24.2108 H   0  0  0  0  0  0  0  0  0  0  0  0
   19.8029   17.6632   23.5721 H   0  0  0  0  0  0  0  0  0  0  0  0
   20.6909   20.6163   22.0521 O   0  0  0  0  0  0  0  0  0  0  0  0
   21.2818   20.8708   22.7924 H   0  0  0  0  0  0  0  0  0  0  0  0
  1  2  1  0  0  0  0
  1  3  1  0  0  0  0
  1  4  1  0  0  0  0
  4  5  1  0  0  0  0
  4  6  1  0  0  0  0
  4  7  1  0  0  0  0
  7  8  1  0  0  0  0
  1  9  1  0  0  0  0
  7  9  1  0  0  0  0
  9 10  1  0  0  0  0
  9 11  1  0  0  0  0
  7 12  1  0  0  0  0
 12 13  1  0  0  0  0
M  END
> <VConfSearch Rank>
223

> <Conf_Id>
20

> <Delta U+W>
1.030

> <U+W>
-2.101

> <U>
0.841

> <W>
-2.942

> <W(PB)>
-4.530

> <W(SA)>
1.587

> <Valence>
6.736

> <Coulomb>
-7.246

> <VdW>
1.352

> <VdW6>
-2.500

> <VdW12>
3.851

> <Bond>
0.063

> <Angle>
0.687

> <Pdih>
5.986

> <Idih>
0.000

> <Tether>
0.000

$$$$
VeraChem MOL file


 13 13  0  0  0  0  0  0  0  0999 V2000     
   19.3791   18.2711   21.1913 C   0  0  0  0  0  0  0  0  0  0  0  0
   20.0282   18.2783   20.3057 H   0  0  0  0  0  0  0  0  0  0  0  0
   18.5081   17.6388   20.9816 H   0  0  0  0  0  0  0  0  0  0  0  0
   19.0746   19.6838   21.7904 C   0  0  0  0  0  0  0  0  0  0  0  0
   19.0223   20.5105   21.0734 H   0  0  0  0  0  0  0  0  0  0  0  0
   18.1912   19.7246   22.4396 H   0  0  0  0  0  0  0  0  0  0  0  0
   20.4314   19.5230   22.5402 C   0  0  0  0  0  0  0  0  0  0  0  0
   21.3075   19.7962   21.9366 H   0  0  0  0  0  0  0  0  0  0  0  0
   20.1188   17.9961   22.5421 C   0  0  0  0  0  0  0  0  0  0  0  0
   19.4689   17.6597   23.3593 H   0  0  0  0  0  0  0  0  0  0  0  0
   20.9888   17.3323   22.4890 H   0  0  0  0  0  0  0  0  0  0  0  0
   20.4959   20.1283   23.8096 O   0  0  0  0  0  0  0  0  0  0  0  0
   19.6938   19.8501   24.2994 H   0  0  0  0  0  0  0  0  0  0  0  0
  1  2  1  0  0  0  0
  1  3  1  0  0  0  0
  1  4  1  0  0  0  0
  4  5  1  0  0  0  0
  4  6  1  0  0  0  0
  4  7  1  0  0  0  0
  7  8  1  0  0  0  0
  1  9  1  0  0  0  0
  7  9  1  0  0  0  0
  9 10  1  0  0  0  0
  9 11  1  0  0  0  0
  7 12  1  0  0  0  0
 12 13  1  0  0  0  0
M  END
> <VConfSearch Rank>
224

> <Conf_Id>
24

> <Delta U+W>
0.356

> <U+W>
-2.775

> <U>
-0.184

> <W>
-2.591

> <W(PB)>
-4.184

> <W(SA)>
1.593

> <Valence>
6.840

> <Coulomb>
-7.916

> <VdW>
0.893

> <VdW6>
-2.167

> <VdW12>
3.060

> <Bond>
0.059

> <Angle>
0.918

> <Pdih>
5.862

> <Idih>
0.000

> <Tether>
0.000

$$$$
VeraChem MOL file


 13 13  0  0  0  0  0  0  0  0999 V2000     
   19.3572   17.8977   22.1655 C   0  0  0  0  0  0  0  0  0  0  0  0
   18.5940   17.1996   21.8015 H   0  0  0  0  0  0  0  0  0  0  0  0
   20.1138   17.3266   22.7184 H   0  0  0  0  0  0  0  0  0  0  0  0
   18.8237   19.1708   22.9036 C   0  0  0  0  0  0  0  0  0  0  0  0
   17.8435   19.5190   22.5558 H   0  0  0  0  0  0  0  0  0  0  0  0
   18.8082   19.1238   23.9982 H   0  0  0  0  0  0  0  0  0  0  0  0
   20.0304   19.9308   22.2708 C   0  0  0  0  0  0  0  0  0  0  0  0
   19.8215   20.9694   21.9841 H   0  0  0  0  0  0  0  0  0  0  0  0
   19.9308   18.8973   21.1064 C   0  0  0  0  0  0  0  0  0  0  0  0
   19.2221   19.1785   20.3179 H   0  0  0  0  0  0  0  0  0  0  0  0
   20.8790   18.6123   20.6367 H   0  0  0  0  0  0  0  0  0  0  0  0
   21.2264   19.8677   23.0172 O   0  0  0  0  0  0  0  0  0  0  0  0
   21.3612   18.9244   23.2438 H   0  0  0  0  0  0  0  0  0  0  0  0
  1  2  1  0  0  0  0
  1  3  1  0  0  0  0
  1  4  1  0  0  0  0
  4  5  1  0  0  0  0
  4  6  1  0  0  0  0
  4  7  1  0  0  0  0
  7  8  1  0  0  0  0
  1  9  1  0  0  0  0
  7  9  1  0  0  0  0
  9 10  1  0  0  0  0
  9 11  1  0  0  0  0
  7 12  1  0  0  0  0
 12 13  1  0  0  0  0
M  END
> <VConfSearch Rank>
225

> <Conf_Id>
44

> <Delta U+W>
0.823

> <U+W>
-2.308

> <U>
0.039

> <W>
-2.348

> <W(PB)>
-3.918

> <W(SA)>
1.571

> <Valence>
7.320

> <Coulomb>
-8.530

> <VdW>
1.249

> <VdW6>
-2.615

> <VdW12>
3.864

> <Bond>
0.056

> <Angle>
0.694

> <Pdih>
6.570

> <Idih>
0.000

> <Tether>
0.000

$$$$
VeraChem MOL file


 13 13  0  0  0  0  0  0  0  0999 V2000     
   20.0255   20.2801   22.5352 C   0  0  0  0  0  0  0  0  0  0  0  0
   19.4985   20.6973   23.4033 H   0  0  0  0  0  0  0  0  0  0  0  0
   20.7545   21.0181   22.1799 H   0  0  0  0  0  0  0  0  0  0  0  0
   19.0957   19.6529   21.4445 C   0  0  0  0  0  0  0  0  0  0  0  0
   18.1133   20.1211   21.3190 H   0  0  0  0  0  0  0  0  0  0  0  0
   19.5594   19.5355   20.4572 H   0  0  0  0  0  0  0  0  0  0  0  0
   19.1269   18.3702   22.3291 C   0  0  0  0  0  0  0  0  0  0  0  0
   18.4050   18.3857   23.1572 H   0  0  0  0  0  0  0  0  0  0  0  0
   20.5623   18.8241   22.7328 C   0  0  0  0  0  0  0  0  0  0  0  0
   20.8791   18.5605   23.7479 H   0  0  0  0  0  0  0  0  0  0  0  0
   21.3494   18.5264   22.0288 H   0  0  0  0  0  0  0  0  0  0  0  0
   19.0555   17.1517   21.6258 O   0  0  0  0  0  0  0  0  0  0  0  0
   19.2477   16.4342   22.2673 H   0  0  0  0  0  0  0  0  0  0  0  0
  1  2  1  0  0  0  0
  1  3  1  0  0  0  0
  1  4  1  0  0  0  0
  4  5  1  0  0  0  0
  4  6  1  0  0  0  0
  4  7  1  0  0  0  0
  7  8  1  0  0  0  0
  1  9  1  0  0  0  0
  7  9  1  0  0  0  0
  9 10  1  0  0  0  0
  9 11  1  0  0  0  0
  7 12  1  0  0  0  0
 12 13  1  0  0  0  0
M  END
> <VConfSearch Rank>
226

> <Conf_Id>
22

> <Delta U+W>
0.000

> <U+W>
-3.131

> <U>
-0.154

> <W>
-2.978

> <W(PB)>
-4.579

> <W(SA)>
1.601

> <Valence>
6.333

> <Coulomb>
-7.439

> <VdW>
0.952

> <VdW6>
-2.120

> <VdW12>
3.072

> <Bond>
0.065

> <Angle>
0.931

> <Pdih>
5.338

> <Idih>
0.000

> <Tether>
0.000

$$$$
VeraChem MOL file


 13 13  0  0  0  0  0  0  0  0999 V2000     
   19.2530   20.1072   22.6975 C   0  0  0  0  0  0  0  0  0  0  0  0
   18.1741   20.2874   22.6031 H   0  0  0  0  0  0  0  0  0  0  0  0
   19.7246   21.0091   23.1055 H   0  0  0  0  0  0  0  0  0  0  0  0
   19.9280   19.4941   21.4263 C   0  0  0  0  0  0  0  0  0  0  0  0
   21.0178   19.6137   21.3834 H   0  0  0  0  0  0  0  0  0  0  0  0
   19.5021   19.7934   20.4623 H   0  0  0  0  0  0  0  0  0  0  0  0
   19.4489   18.1197   21.9839 C   0  0  0  0  0  0  0  0  0  0  0  0
   18.4052   17.8788   21.7397 H   0  0  0  0  0  0  0  0  0  0  0  0
   19.6329   18.7586   23.3934 C   0  0  0  0  0  0  0  0  0  0  0  0
   20.6578   18.7145   23.7821 H   0  0  0  0  0  0  0  0  0  0  0  0
   18.9460   18.4048   24.1700 H   0  0  0  0  0  0  0  0  0  0  0  0
   20.2933   17.0277   21.7027 O   0  0  0  0  0  0  0  0  0  0  0  0
   20.1984   16.8254   20.7471 H   0  0  0  0  0  0  0  0  0  0  0  0
  1  2  1  0  0  0  0
  1  3  1  0  0  0  0
  1  4  1  0  0  0  0
  4  5  1  0  0  0  0
  4  6  1  0  0  0  0
  4  7  1  0  0  0  0
  7  8  1  0  0  0  0
  1  9  1  0  0  0  0
  7  9  1  0  0  0  0
  9 10  1  0  0  0  0
  9 11  1  0  0  0  0
  7 12  1  0  0  0  0
 12 13  1  0  0  0  0
M  END
> <VConfSearch Rank>
227

> <Conf_Id>
19

> <Delta U+W>
-0.011

> <U+W>
-3.142

> <U>
-0.154

> <W>
-2.989

> <W(PB)>
-4.588

> <W(SA)>
1.599

> <Valence>
6.334

> <Coulomb>
-7.439

> <VdW>
0.951

> <VdW6>
-2.120

> <VdW12>
3.072

> <Bond>
0.065

> <Angle>
0.930

> <Pdih>
5.339

> <Idih>
0.000

> <Tether>
0.000

$$$$
VeraChem MOL file


 13 13  0  0  0  0  0  0  0  0999 V2000     
   20.6562   18.6242   21.7465 C   0  0  0  0  0  0  0  0  0  0  0  0
   21.0687   17.8623   21.0747 H   0  0  0  0  0  0  0  0  0  0  0  0
   21.4572   19.3244   22.0172 H   0  0  0  0  0  0  0  0  0  0  0  0
   19.8203   18.0937   22.9585 C   0  0  0  0  0  0  0  0  0  0  0  0
   19.2854   17.1557   22.7666 H   0  0  0  0  0  0  0  0  0  0  0  0
   20.3562   18.0032   23.9098 H   0  0  0  0  0  0  0  0  0  0  0  0
   18.9444   19.3747   22.7930 C   0  0  0  0  0  0  0  0  0  0  0  0
   17.8773   19.2292   23.0048 H   0  0  0  0  0  0  0  0  0  0  0  0
   19.3264   19.3054   21.2813 C   0  0  0  0  0  0  0  0  0  0  0  0
   19.4335   20.2678   20.7687 H   0  0  0  0  0  0  0  0  0  0  0  0
   18.6719   18.6609   20.6820 H   0  0  0  0  0  0  0  0  0  0  0  0
   19.4226   20.5148   23.4783 O   0  0  0  0  0  0  0  0  0  0  0  0
   18.9015   21.2835   23.1626 H   0  0  0  0  0  0  0  0  0  0  0  0
  1  2  1  0  0  0  0
  1  3  1  0  0  0  0
  1  4  1  0  0  0  0
  4  5  1  0  0  0  0
  4  6  1  0  0  0  0
  4  7  1  0  0  0  0
  7  8  1  0  0  0  0
  1  9  1  0  0  0  0
  7  9  1  0  0  0  0
  9 10  1  0  0  0  0
  9 11  1  0  0  0  0
  7 12  1  0  0  0  0
 12 13  1  0  0  0  0
M  END
> <VConfSearch Rank>
228

> <Conf_Id>
20

> <Delta U+W>
1.030

> <U+W>
-2.101

> <U>
0.841

> <W>
-2.942

> <W(PB)>
-4.530

> <W(SA)>
1.587

> <Valence>
6.736

> <Coulomb>
-7.246

> <VdW>
1.352

> <VdW6>
-2.500

> <VdW12>
3.851

> <Bond>
0.063

> <Angle>
0.687

> <Pdih>
5.986

> <Idih>
0.000

> <Tether>
0.000

$$$$
VeraChem MOL file


 13 13  0  0  0  0  0  0  0  0999 V2000     
   20.4733   18.1856   21.4871 C   0  0  0  0  0  0  0  0  0  0  0  0
   20.2647   18.1452   20.4099 H   0  0  0  0  0  0  0  0  0  0  0  0
   21.3118   17.5140   21.7066 H   0  0  0  0  0  0  0  0  0  0  0  0
   19.2142   18.0350   22.4033 C   0  0  0  0  0  0  0  0  0  0  0  0
   18.4122   17.3950   22.0191 H   0  0  0  0  0  0  0  0  0  0  0  0
   19.4333   17.7422   23.4375 H   0  0  0  0  0  0  0  0  0  0  0  0
   19.0225   19.5660   22.1828 C   0  0  0  0  0  0  0  0  0  0  0  0
   18.5045   19.8186   21.2477 H   0  0  0  0  0  0  0  0  0  0  0  0
   20.5764   19.6298   22.0796 C   0  0  0  0  0  0  0  0  0  0  0  0
   21.0999   19.6935   23.0414 H   0  0  0  0  0  0  0  0  0  0  0  0
   20.9774   20.3983   21.4096 H   0  0  0  0  0  0  0  0  0  0  0  0
   18.4595   20.2668   23.2662 O   0  0  0  0  0  0  0  0  0  0  0  0
   18.9589   20.0029   24.0672 H   0  0  0  0  0  0  0  0  0  0  0  0
  1  2  1  0  0  0  0
  1  3  1  0  0  0  0
  1  4  1  0  0  0  0
  4  5  1  0  0  0  0
  4  6  1  0  0  0  0
  4  7  1  0  0  0  0
  7  8  1  0  0  0  0
  1  9  1  0  0  0  0
  7  9  1  0  0  0  0
  9 10  1  0  0  0  0
  9 11  1  0  0  0  0
  7 12  1  0  0  0  0
 12 13  1  0  0  0  0
M  END
> <VConfSearch Rank>
229

> <Conf_Id>
24

> <Delta U+W>
0.356

> <U+W>
-2.775

> <U>
-0.184

> <W>
-2.591

> <W(PB)>
-4.184

> <W(SA)>
1.593

> <Valence>
6.840

> <Coulomb>
-7.916

> <VdW>
0.893

> <VdW6>
-2.167

> <VdW12>
3.060

> <Bond>
0.059

> <Angle>
0.918

> <Pdih>
5.862

> <Idih>
0.000

> <Tether>
0.000

$$$$
VeraChem MOL file


 13 13  0  0  0  0  0  0  0  0999 V2000     
   19.0689   18.2173   21.6536 C   0  0  0  0  0  0  0  0  0  0  0  0
   18.3779   18.0498   20.8188 H   0  0  0  0  0  0  0  0  0  0  0  0
   19.2255   17.2621   22.1707 H   0  0  0  0  0  0  0  0  0  0  0  0
   18.7306   19.4252   22.5899 C   0  0  0  0  0  0  0  0  0  0  0  0
   18.2188   20.2567   22.0902 H   0  0  0  0  0  0  0  0  0  0  0  0
   18.1878   19.1854   23.5111 H   0  0  0  0  0  0  0  0  0  0  0  0
   20.2710   19.6232   22.7381 C   0  0  0  0  0  0  0  0  0  0  0  0
   20.5962   20.6688   22.8118 H   0  0  0  0  0  0  0  0  0  0  0  0
   20.3785   19.0030   21.3106 C   0  0  0  0  0  0  0  0  0  0  0  0
   20.2707   19.7309   20.4973 H   0  0  0  0  0  0  0  0  0  0  0  0
   21.2701   18.3956   21.1183 H   0  0  0  0  0  0  0  0  0  0  0  0
   20.8700   18.8585   23.7620 O   0  0  0  0  0  0  0  0  0  0  0  0
   20.5459   17.9414   23.6473 H   0  0  0  0  0  0  0  0  0  0  0  0
  1  2  1  0  0  0  0
  1  3  1  0  0  0  0
  1  4  1  0  0  0  0
  4  5  1  0  0  0  0
  4  6  1  0  0  0  0
  4  7  1  0  0  0  0
  7  8  1  0  0  0  0
  1  9  1  0  0  0  0
  7  9  1  0  0  0  0
  9 10  1  0  0  0  0
  9 11  1  0  0  0  0
  7 12  1  0  0  0  0
 12 13  1  0  0  0  0
M  END
> <VConfSearch Rank>
230

> <Conf_Id>
44

> <Delta U+W>
0.823

> <U+W>
-2.308

> <U>
0.039

> <W>
-2.348

> <W(PB)>
-3.918

> <W(SA)>
1.571

> <Valence>
7.320

> <Coulomb>
-8.530

> <VdW>
1.249

> <VdW6>
-2.615

> <VdW12>
3.864

> <Bond>
0.056

> <Angle>
0.694

> <Pdih>
6.570

> <Idih>
0.000

> <Tether>
0.000

$$$$
VeraChem MOL file


 13 13  0  0  0  0  0  0  0  0999 V2000     
   18.5872   19.7999   22.2026 C   0  0  0  0  0  0  0  0  0  0  0  0
   18.7868   20.8587   22.4142 H   0  0  0  0  0  0  0  0  0  0  0  0
   17.5245   19.6857   21.9580 H   0  0  0  0  0  0  0  0  0  0  0  0
   19.1593   18.8016   23.2625 C   0  0  0  0  0  0  0  0  0  0  0  0
   19.1894   19.1597   24.2974 H   0  0  0  0  0  0  0  0  0  0  0  0
   18.7035   17.8039   23.2475 H   0  0  0  0  0  0  0  0  0  0  0  0
   20.4953   18.9131   22.4678 C   0  0  0  0  0  0  0  0  0  0  0  0
   21.1000   19.7894   22.7389 H   0  0  0  0  0  0  0  0  0  0  0  0
   19.5961   19.1287   21.2132 C   0  0  0  0  0  0  0  0  0  0  0  0
   20.0108   19.7772   20.4337 H   0  0  0  0  0  0  0  0  0  0  0  0
   19.2341   18.2036   20.7474 H   0  0  0  0  0  0  0  0  0  0  0  0
   21.2848   17.7465   22.4503 O   0  0  0  0  0  0  0  0  0  0  0  0
   22.0010   17.8900   21.7948 H   0  0  0  0  0  0  0  0  0  0  0  0
  1  2  1  0  0  0  0
  1  3  1  0  0  0  0
  1  4  1  0  0  0  0
  4  5  1  0  0  0  0
  4  6  1  0  0  0  0
  4  7  1  0  0  0  0
  7  8  1  0  0  0  0
  1  9  1  0  0  0  0
  7  9  1  0  0  0  0
  9 10  1  0  0  0  0
  9 11  1  0  0  0  0
  7 12  1  0  0  0  0
 12 13  1  0  0  0  0
M  END
> <VConfSearch Rank>
231

> <Conf_Id>
22

> <Delta U+W>
0.000

> <U+W>
-3.131

> <U>
-0.154

> <W>
-2.978

> <W(PB)>
-4.579

> <W(SA)>
1.601

> <Valence>
6.333

> <Coulomb>
-7.439

> <VdW>
0.952

> <VdW6>
-2.120

> <VdW12>
3.072

> <Bond>
0.065

> <Angle>
0.931

> <Pdih>
5.338

> <Idih>
0.000

> <Tether>
0.000

$$$$
VeraChem MOL file


 13 13  0  0  0  0  0  0  0  0999 V2000     
   19.3413   19.1035   20.9705 C   0  0  0  0  0  0  0  0  0  0  0  0
   19.8285   18.3767   20.3072 H   0  0  0  0  0  0  0  0  0  0  0  0
   18.7806   19.8178   20.3560 H   0  0  0  0  0  0  0  0  0  0  0  0
   20.2752   19.7216   22.0628 C   0  0  0  0  0  0  0  0  0  0  0  0
   19.9091   20.6581   22.5019 H   0  0  0  0  0  0  0  0  0  0  0  0
   21.3261   19.8509   21.7818 H   0  0  0  0  0  0  0  0  0  0  0  0
   19.9457   18.4447   22.8935 C   0  0  0  0  0  0  0  0  0  0  0  0
   20.5620   17.5729   22.6344 H   0  0  0  0  0  0  0  0  0  0  0  0
   18.5640   18.4736   22.1732 C   0  0  0  0  0  0  0  0  0  0  0  0
   17.8227   19.1349   22.6385 H   0  0  0  0  0  0  0  0  0  0  0  0
   18.1009   17.4976   21.9918 H   0  0  0  0  0  0  0  0  0  0  0  0
   19.9010   18.6286   24.2895 O   0  0  0  0  0  0  0  0  0  0  0  0
   20.8250   18.7535   24.5959 H   0  0  0  0  0  0  0  0  0  0  0  0
  1  2  1  0  0  0  0
  1  3  1  0  0  0  0
  1  4  1  0  0  0  0
  4  5  1  0  0  0  0
  4  6  1  0  0  0  0
  4  7  1  0  0  0  0
  7  8  1  0  0  0  0
  1  9  1  0  0  0  0
  7  9  1  0  0  0  0
  9 10  1  0  0  0  0
  9 11  1  0  0  0  0
  7 12  1  0  0  0  0
 12 13  1  0  0  0  0
M  END
> <VConfSearch Rank>
232

> <Conf_Id>
19

> <Delta U+W>
-0.011

> <U+W>
-3.142

> <U>
-0.154

> <W>
-2.989

> <W(PB)>
-4.588

> <W(SA)>
1.599

> <Valence>
6.334

> <Coulomb>
-7.439

> <VdW>
0.951

> <VdW6>
-2.120

> <VdW12>
3.072

> <Bond>
0.065

> <Angle>
0.930

> <Pdih>
5.339

> <Idih>
0.000

> <Tether>
0.000

$$$$
VeraChem MOL file


 13 13  0  0  0  0  0  0  0  0999 V2000     
   20.4317   19.0724   21.3431 C   0  0  0  0  0  0  0  0  0  0  0  0
   20.5399   19.0485   20.2524 H   0  0  0  0  0  0  0  0  0  0  0  0
   21.4217   19.2301   21.7907 H   0  0  0  0  0  0  0  0  0  0  0  0
   19.6102   17.9023   21.9794 C   0  0  0  0  0  0  0  0  0  0  0  0
   18.8148   17.5035   21.3381 H   0  0  0  0  0  0  0  0  0  0  0  0
   20.1941   17.0642   22.3757 H   0  0  0  0  0  0  0  0  0  0  0  0
   19.1203   18.9451   23.0320 C   0  0  0  0  0  0  0  0  0  0  0  0
   18.0835   18.8063   23.3647 H   0  0  0  0  0  0  0  0  0  0  0  0
   19.3084   20.0066   21.9034 C   0  0  0  0  0  0  0  0  0  0  0  0
   19.6297   21.0020   22.2295 H   0  0  0  0  0  0  0  0  0  0  0  0
   18.4398   20.1184   21.2431 H   0  0  0  0  0  0  0  0  0  0  0  0
   19.9699   19.1054   24.1503 O   0  0  0  0  0  0  0  0  0  0  0  0
   19.6578   19.8949   24.6417 H   0  0  0  0  0  0  0  0  0  0  0  0
  1  2  1  0  0  0  0
  1  3  1  0  0  0  0
  1  4  1  0  0  0  0
  4  5  1  0  0  0  0
  4  6  1  0  0  0  0
  4  7  1  0  0  0  0
  7  8  1  0  0  0  0
  1  9  1  0  0  0  0
  7  9  1  0  0  0  0
  9 10  1  0  0  0  0
  9 11  1  0  0  0  0
  7 12  1  0  0  0  0
 12 13  1  0  0  0  0
M  END
> <VConfSearch Rank>
233

> <Conf_Id>
20

> <Delta U+W>
1.030

> <U+W>
-2.101

> <U>
0.841

> <W>
-2.942

> <W(PB)>
-4.530

> <W(SA)>
1.587

> <Valence>
6.736

> <Coulomb>
-7.246

> <VdW>
1.352

> <VdW6>
-2.500

> <VdW12>
3.851

> <Bond>
0.063

> <Angle>
0.687

> <Pdih>
5.986

> <Idih>
0.000

> <Tether>
0.000

$$$$
VeraChem MOL file


 13 13  0  0  0  0  0  0  0  0999 V2000     
   20.4308   18.2564   21.3820 C   0  0  0  0  0  0  0  0  0  0  0  0
   19.8859   17.6491   20.6472 H   0  0  0  0  0  0  0  0  0  0  0  0
   21.5067   18.1154   21.2236 H   0  0  0  0  0  0  0  0  0  0  0  0
   19.9279   18.1069   22.8558 C   0  0  0  0  0  0  0  0  0  0  0  0
   19.5360   17.1223   23.1339 H   0  0  0  0  0  0  0  0  0  0  0  0
   20.6470   18.4280   23.6194 H   0  0  0  0  0  0  0  0  0  0  0  0
   18.8610   19.1757   22.4704 C   0  0  0  0  0  0  0  0  0  0  0  0
   17.9796   18.7605   21.9629 H   0  0  0  0  0  0  0  0  0  0  0  0
   19.9415   19.7377   21.4979 C   0  0  0  0  0  0  0  0  0  0  0  0
   20.6637   20.4234   21.9580 H   0  0  0  0  0  0  0  0  0  0  0  0
   19.5617   20.1935   20.5769 H   0  0  0  0  0  0  0  0  0  0  0  0
   18.4722   20.0433   23.5085 O   0  0  0  0  0  0  0  0  0  0  0  0
   19.2946   20.3805   23.9217 H   0  0  0  0  0  0  0  0  0  0  0  0
  1  2  1  0  0  0  0
  1  3  1  0  0  0  0
  1  4  1  0  0  0  0
  4  5  1  0  0  0  0
  4  6  1  0  0  0  0
  4  7  1  0  0  0  0
  7  8  1  0  0  0  0
  1  9  1  0  0  0  0
  7  9  1  0  0  0  0
  9 10  1  0  0  0  0
  9 11  1  0  0  0  0
  7 12  1  0  0  0  0
 12 13  1  0  0  0  0
M  END
> <VConfSearch Rank>
234

> <Conf_Id>
24

> <Delta U+W>
0.356

> <U+W>
-2.775

> <U>
-0.184

> <W>
-2.591

> <W(PB)>
-4.184

> <W(SA)>
1.593

> <Valence>
6.840

> <Coulomb>
-7.916

> <VdW>
0.893

> <VdW6>
-2.167

> <VdW12>
3.060

> <Bond>
0.059

> <Angle>
0.918

> <Pdih>
5.862

> <Idih>
0.000

> <Tether>
0.000

$$$$
VeraChem MOL file


 13 13  0  0  0  0  0  0  0  0999 V2000     
   19.0677   19.5434   22.9486 C   0  0  0  0  0  0  0  0  0  0  0  0
   18.1003   19.6093   23.4605 H   0  0  0  0  0  0  0  0  0  0  0  0
   19.6973   20.3753   23.2891 H   0  0  0  0  0  0  0  0  0  0  0  0
   19.0086   19.3551   21.3958 C   0  0  0  0  0  0  0  0  0  0  0  0
   18.1295   18.8047   21.0390 H   0  0  0  0  0  0  0  0  0  0  0  0
   19.1179   20.2644   20.7942 H   0  0  0  0  0  0  0  0  0  0  0  0
   20.2905   18.4785   21.5455 C   0  0  0  0  0  0  0  0  0  0  0  0
   20.3464   17.6232   20.8601 H   0  0  0  0  0  0  0  0  0  0  0  0
   19.7607   18.1401   22.9733 C   0  0  0  0  0  0  0  0  0  0  0  0
   19.0660   17.2919   23.0034 H   0  0  0  0  0  0  0  0  0  0  0  0
   20.5245   17.9919   23.7449 H   0  0  0  0  0  0  0  0  0  0  0  0
   21.5049   19.1971   21.5200 O   0  0  0  0  0  0  0  0  0  0  0  0
   21.3976   19.9431   22.1456 H   0  0  0  0  0  0  0  0  0  0  0  0
  1  2  1  0  0  0  0
  1  3  1  0  0  0  0
  1  4  1  0  0  0  0
  4  5  1  0  0  0  0
  4  6  1  0  0  0  0
  4  7  1  0  0  0  0
  7  8  1  0  0  0  0
  1  9  1  0  0  0  0
  7  9  1  0  0  0  0
  9 10  1  0  0  0  0
  9 11  1  0  0  0  0
  7 12  1  0  0  0  0
 12 13  1  0  0  0  0
M  END
> <VConfSearch Rank>
235

> <Conf_Id>
44

> <Delta U+W>
0.823

> <U+W>
-2.308

> <U>
0.039

> <W>
-2.348

> <W(PB)>
-3.918

> <W(SA)>
1.571

> <Valence>
7.320

> <Coulomb>
-8.530

> <VdW>
1.249

> <VdW6>
-2.615

> <VdW12>
3.864

> <Bond>
0.056

> <Angle>
0.694

> <Pdih>
6.570

> <Idih>
0.000

> <Tether>
0.000

$$$$
VeraChem MOL file


 13 13  0  0  0  0  0  0  0  0999 V2000     
   18.7048   18.1630   22.0459 C   0  0  0  0  0  0  0  0  0  0  0  0
   18.2548   18.2299   21.0466 H   0  0  0  0  0  0  0  0  0  0  0  0
   18.2434   17.3255   22.5826 H   0  0  0  0  0  0  0  0  0  0  0  0
   18.7791   19.5191   22.8223 C   0  0  0  0  0  0  0  0  0  0  0  0
   17.9695   20.2314   22.6302 H   0  0  0  0  0  0  0  0  0  0  0  0
   18.9132   19.4212   23.9068 H   0  0  0  0  0  0  0  0  0  0  0  0
   20.0979   19.7618   22.0282 C   0  0  0  0  0  0  0  0  0  0  0  0
   19.9393   20.1694   21.0204 H   0  0  0  0  0  0  0  0  0  0  0  0
   20.2683   18.2130   22.0645 C   0  0  0  0  0  0  0  0  0  0  0  0
   20.7753   17.7676   21.2016 H   0  0  0  0  0  0  0  0  0  0  0  0
   20.7281   17.8264   22.9826 H   0  0  0  0  0  0  0  0  0  0  0  0
   21.0877   20.4933   22.7136 O   0  0  0  0  0  0  0  0  0  0  0  0
   21.9112   20.4363   22.1827 H   0  0  0  0  0  0  0  0  0  0  0  0
  1  2  1  0  0  0  0
  1  3  1  0  0  0  0
  1  4  1  0  0  0  0
  4  5  1  0  0  0  0
  4  6  1  0  0  0  0
  4  7  1  0  0  0  0
  7  8  1  0  0  0  0
  1  9  1  0  0  0  0
  7  9  1  0  0  0  0
  9 10  1  0  0  0  0
  9 11  1  0  0  0  0
  7 12  1  0  0  0  0
 12 13  1  0  0  0  0
M  END
> <VConfSearch Rank>
236

> <Conf_Id>
22

> <Delta U+W>
0.000

> <U+W>
-3.131

> <U>
-0.154

> <W>
-2.978

> <W(PB)>
-4.579

> <W(SA)>
1.601

> <Valence>
6.333

> <Coulomb>
-7.439

> <VdW>
0.952

> <VdW6>
-2.120

> <VdW12>
3.072

> <Bond>
0.065

> <Angle>
0.931

> <Pdih>
5.338

> <Idih>
0.000

> <Tether>
0.000

$$$$
VeraChem MOL file


 13 13  0  0  0  0  0  0  0  0999 V2000     
   20.2143   19.8759   22.9504 C   0  0  0  0  0  0  0  0  0  0  0  0
   20.9994   19.5022   23.6208 H   0  0  0  0  0  0  0  0  0  0  0  0
   20.1077   20.9564   23.1037 H   0  0  0  0  0  0  0  0  0  0  0  0
   18.8887   19.0455   22.9677 C   0  0  0  0  0  0  0  0  0  0  0  0
   18.0117   19.5741   22.5738 H   0  0  0  0  0  0  0  0  0  0  0  0
   18.6216   18.5834   23.9244 H   0  0  0  0  0  0  0  0  0  0  0  0
   19.6005   18.1159   21.9389 C   0  0  0  0  0  0  0  0  0  0  0  0
   20.2614   17.3673   22.3971 H   0  0  0  0  0  0  0  0  0  0  0  0
   20.3420   19.4021   21.4649 C   0  0  0  0  0  0  0  0  0  0  0  0
   19.7839   20.0072   20.7397 H   0  0  0  0  0  0  0  0  0  0  0  0
   21.3607   19.2540   21.0904 H   0  0  0  0  0  0  0  0  0  0  0  0
   18.7571   17.5194   20.9811 O   0  0  0  0  0  0  0  0  0  0  0  0
   18.2329   16.8308   21.4440 H   0  0  0  0  0  0  0  0  0  0  0  0
  1  2  1  0  0  0  0
  1  3  1  0  0  0  0
  1  4  1  0  0  0  0
  4  5  1  0  0  0  0
  4  6  1  0  0  0  0
  4  7  1  0  0  0  0
  7  8  1  0  0  0  0
  1  9  1  0  0  0  0
  7  9  1  0  0  0  0
  9 10  1  0  0  0  0
  9 11  1  0  0  0  0
  7 12  1  0  0  0  0
 12 13  1  0  0  0  0
M  END
> <VConfSearch Rank>
237

> <Conf_Id>
19

> <Delta U+W>
-0.011

> <U+W>
-3.142

> <U>
-0.154

> <W>
-2.989

> <W(PB)>
-4.588

> <W(SA)>
1.599

> <Valence>
6.334

> <Coulomb>
-7.439

> <VdW>
0.951

> <VdW6>
-2.120

> <VdW12>
3.072

> <Bond>
0.065

> <Angle>
0.930

> <Pdih>
5.339

> <Idih>
0.000

> <Tether>
0.000

$$$$
VeraChem MOL file


 13 13  0  0  0  0  0  0  0  0999 V2000     
   20.3468   19.9298   22.7701 C   0  0  0  0  0  0  0  0  0  0  0  0
   21.2709   20.1313   23.3245 H   0  0  0  0  0  0  0  0  0  0  0  0
   19.8935   20.8876   22.4833 H   0  0  0  0  0  0  0  0  0  0  0  0
   19.3559   18.9139   23.4297 C   0  0  0  0  0  0  0  0  0  0  0  0
   19.8374   18.1354   24.0336 H   0  0  0  0  0  0  0  0  0  0  0  0
   18.5351   19.3500   24.0098 H   0  0  0  0  0  0  0  0  0  0  0  0
   18.9974   18.4668   21.9781 C   0  0  0  0  0  0  0  0  0  0  0  0
   18.7862   17.3953   21.8689 H   0  0  0  0  0  0  0  0  0  0  0  0
   20.4543   18.8872   21.6081 C   0  0  0  0  0  0  0  0  0  0  0  0
   20.5939   19.3007   20.6032 H   0  0  0  0  0  0  0  0  0  0  0  0
   21.2028   18.1022   21.7705 H   0  0  0  0  0  0  0  0  0  0  0  0
   17.9804   19.2263   21.3559 O   0  0  0  0  0  0  0  0  0  0  0  0
   17.9671   18.9732   20.4083 H   0  0  0  0  0  0  0  0  0  0  0  0
  1  2  1  0  0  0  0
  1  3  1  0  0  0  0
  1  4  1  0  0  0  0
  4  5  1  0  0  0  0
  4  6  1  0  0  0  0
  4  7  1  0  0  0  0
  7  8  1  0  0  0  0
  1  9  1  0  0  0  0
  7  9  1  0  0  0  0
  9 10  1  0  0  0  0
  9 11  1  0  0  0  0
  7 12  1  0  0  0  0
 12 13  1  0  0  0  0
M  END
> <VConfSearch Rank>
238

> <Conf_Id>
20

> <Delta U+W>
1.030

> <U+W>
-2.101

> <U>
0.841

> <W>
-2.942

> <W(PB)>
-4.530

> <W(SA)>
1.587

> <Valence>
6.736

> <Coulomb>
-7.246

> <VdW>
1.352

> <VdW6>
-2.500

> <VdW12>
3.851

> <Bond>
0.063

> <Angle>
0.687

> <Pdih>
5.986

> <Idih>
0.000

> <Tether>
0.000

$$$$
VeraChem MOL file


 13 13  0  0  0  0  0  0  0  0999 V2000     
   19.6152   19.2288   23.4570 C   0  0  0  0  0  0  0  0  0  0  0  0
   18.6985   19.7415   23.7772 H   0  0  0  0  0  0  0  0  0  0  0  0
   20.2476   19.0605   24.3368 H   0  0  0  0  0  0  0  0  0  0  0  0
   20.3213   19.8662   22.2150 C   0  0  0  0  0  0  0  0  0  0  0  0
   20.2325   20.9536   22.1153 H   0  0  0  0  0  0  0  0  0  0  0  0
   21.3752   19.5866   22.0944 H   0  0  0  0  0  0  0  0  0  0  0  0
   19.3196   19.0249   21.3677 C   0  0  0  0  0  0  0  0  0  0  0  0
   18.3353   19.4970   21.2457 H   0  0  0  0  0  0  0  0  0  0  0  0
   19.3820   17.9896   22.5310 C   0  0  0  0  0  0  0  0  0  0  0  0
   20.2260   17.2906   22.4811 H   0  0  0  0  0  0  0  0  0  0  0  0
   18.4637   17.4197   22.7104 H   0  0  0  0  0  0  0  0  0  0  0  0
   19.8087   18.5713   20.1280 O   0  0  0  0  0  0  0  0  0  0  0  0
   20.6831   18.1624   20.2986 H   0  0  0  0  0  0  0  0  0  0  0  0
  1  2  1  0  0  0  0
  1  3  1  0  0  0  0
  1  4  1  0  0  0  0
  4  5  1  0  0  0  0
  4  6  1  0  0  0  0
  4  7  1  0  0  0  0
  7  8  1  0  0  0  0
  1  9  1  0  0  0  0
  7  9  1  0  0  0  0
  9 10  1  0  0  0  0
  9 11  1  0  0  0  0
  7 12  1  0  0  0  0
 12 13  1  0  0  0  0
M  END
> <VConfSearch Rank>
239

> <Conf_Id>
24

> <Delta U+W>
0.356

> <U+W>
-2.775

> <U>
-0.184

> <W>
-2.591

> <W(PB)>
-4.184

> <W(SA)>
1.593

> <Valence>
6.840

> <Coulomb>
-7.916

> <VdW>
0.893

> <VdW6>
-2.167

> <VdW12>
3.060

> <Bond>
0.059

> <Angle>
0.918

> <Pdih>
5.862

> <Idih>
0.000

> <Tether>
0.000

$$$$
VeraChem MOL file


 13 13  0  0  0  0  0  0  0  0999 V2000     
   19.7441   18.0946   21.5050 C   0  0  0  0  0  0  0  0  0  0  0  0
   19.2671   17.1623   21.1799 H   0  0  0  0  0  0  0  0  0  0  0  0
   20.6472   18.2506   20.9013 H   0  0  0  0  0  0  0  0  0  0  0  0
   19.9475   18.2570   23.0484 C   0  0  0  0  0  0  0  0  0  0  0  0
   19.1896   17.7538   23.6611 H   0  0  0  0  0  0  0  0  0  0  0  0
   20.9385   17.9946   23.4355 H   0  0  0  0  0  0  0  0  0  0  0  0
   19.6818   19.7789   22.8306 C   0  0  0  0  0  0  0  0  0  0  0  0
   19.1324   20.2715   23.6429 H   0  0  0  0  0  0  0  0  0  0  0  0
   18.8039   19.3410   21.6175 C   0  0  0  0  0  0  0  0  0  0  0  0
   17.7656   19.1035   21.8793 H   0  0  0  0  0  0  0  0  0  0  0  0
   18.7994   20.0220   20.7591 H   0  0  0  0  0  0  0  0  0  0  0  0
   20.8235   20.5362   22.4918 O   0  0  0  0  0  0  0  0  0  0  0  0
   21.2711   20.0521   21.7675 H   0  0  0  0  0  0  0  0  0  0  0  0
  1  2  1  0  0  0  0
  1  3  1  0  0  0  0
  1  4  1  0  0  0  0
  4  5  1  0  0  0  0
  4  6  1  0  0  0  0
  4  7  1  0  0  0  0
  7  8  1  0  0  0  0
  1  9  1  0  0  0  0
  7  9  1  0  0  0  0
  9 10  1  0  0  0  0
  9 11  1  0  0  0  0
  7 12  1  0  0  0  0
 12 13  1  0  0  0  0
M  END
> <VConfSearch Rank>
240

> <Conf_Id>
44

> <Delta U+W>
0.823

> <U+W>
-2.308

> <U>
0.039

> <W>
-2.348

> <W(PB)>
-3.918

> <W(SA)>
1.571

> <Valence>
7.320

> <Coulomb>
-8.530

> <VdW>
1.249

> <VdW6>
-2.615

> <VdW12>
3.864

> <Bond>
0.056

> <Angle>
0.694

> <Pdih>
6.570

> <Idih>
0.000

> <Tether>
0.000

$$$$
VeraChem MOL file


 13 13  0  0  0  0  0  0  0  0999 V2000     
   19.6568   18.1461   21.2804 C   0  0  0  0  0  0  0  0  0  0  0  0
   20.0479   17.1672   21.5877 H   0  0  0  0  0  0  0  0  0  0  0  0
   19.3145   18.0760   20.2410 H   0  0  0  0  0  0  0  0  0  0  0  0
   20.5875   19.3576   21.6170 C   0  0  0  0  0  0  0  0  0  0  0  0
   21.6650   19.1622   21.5890 H   0  0  0  0  0  0  0  0  0  0  0  0
   20.3794   20.2702   21.0447 H   0  0  0  0  0  0  0  0  0  0  0  0
   19.9277   19.3161   23.0283 C   0  0  0  0  0  0  0  0  0  0  0  0
   20.3804   18.5804   23.7072 H   0  0  0  0  0  0  0  0  0  0  0  0
   18.6561   18.7979   22.2909 C   0  0  0  0  0  0  0  0  0  0  0  0
   18.0238   18.1057   22.8577 H   0  0  0  0  0  0  0  0  0  0  0  0
   18.0232   19.5863   21.8648 H   0  0  0  0  0  0  0  0  0  0  0  0
   19.7884   20.5650   23.6649 O   0  0  0  0  0  0  0  0  0  0  0  0
   19.2221   20.4271   24.4546 H   0  0  0  0  0  0  0  0  0  0  0  0
  1  2  1  0  0  0  0
  1  3  1  0  0  0  0
  1  4  1  0  0  0  0
  4  5  1  0  0  0  0
  4  6  1  0  0  0  0
  4  7  1  0  0  0  0
  7  8  1  0  0  0  0
  1  9  1  0  0  0  0
  7  9  1  0  0  0  0
  9 10  1  0  0  0  0
  9 11  1  0  0  0  0
  7 12  1  0  0  0  0
 12 13  1  0  0  0  0
M  END
> <VConfSearch Rank>
241

> <Conf_Id>
22

> <Delta U+W>
0.000

> <U+W>
-3.131

> <U>
-0.154

> <W>
-2.978

> <W(PB)>
-4.579

> <W(SA)>
1.601

> <Valence>
6.333

> <Coulomb>
-7.439

> <VdW>
0.952

> <VdW6>
-2.120

> <VdW12>
3.072

> <Bond>
0.065

> <Angle>
0.931

> <Pdih>
5.338

> <Idih>
0.000

> <Tether>
0.000

$$$$
VeraChem MOL file


 13 13  0  0  0  0  0  0  0  0999 V2000     
   19.9037   19.5022   21.0910 C   0  0  0  0  0  0  0  0  0  0  0  0
   20.9675   19.7431   20.9649 H   0  0  0  0  0  0  0  0  0  0  0  0
   19.3553   19.8679   20.2148 H   0  0  0  0  0  0  0  0  0  0  0  0
   19.3063   19.8862   22.4850 C   0  0  0  0  0  0  0  0  0  0  0  0
   18.2118   19.9579   22.5102 H   0  0  0  0  0  0  0  0  0  0  0  0
   19.7293   20.7771   22.9620 H   0  0  0  0  0  0  0  0  0  0  0  0
   19.8770   18.5194   22.9701 C   0  0  0  0  0  0  0  0  0  0  0  0
   20.9414   18.5514   23.2407 H   0  0  0  0  0  0  0  0  0  0  0  0
   19.6133   18.0249   21.5159 C   0  0  0  0  0  0  0  0  0  0  0  0
   18.5863   17.6865   21.3302 H   0  0  0  0  0  0  0  0  0  0  0  0
   20.3078   17.2672   21.1371 H   0  0  0  0  0  0  0  0  0  0  0  0
   19.1255   17.8736   23.9714 O   0  0  0  0  0  0  0  0  0  0  0  0
   19.2569   18.3770   24.8036 H   0  0  0  0  0  0  0  0  0  0  0  0
  1  2  1  0  0  0  0
  1  3  1  0  0  0  0
  1  4  1  0  0  0  0
  4  5  1  0  0  0  0
  4  6  1  0  0  0  0
  4  7  1  0  0  0  0
  7  8  1  0  0  0  0
  1  9  1  0  0  0  0
  7  9  1  0  0  0  0
  9 10  1  0  0  0  0
  9 11  1  0  0  0  0
  7 12  1  0  0  0  0
 12 13  1  0  0  0  0
M  END
> <VConfSearch Rank>
242

> <Conf_Id>
19

> <Delta U+W>
-0.011

> <U+W>
-3.142

> <U>
-0.154

> <W>
-2.989

> <W(PB)>
-4.588

> <W(SA)>
1.599

> <Valence>
6.334

> <Coulomb>
-7.439

> <VdW>
0.951

> <VdW6>
-2.120

> <VdW12>
3.072

> <Bond>
0.065

> <Angle>
0.930

> <Pdih>
5.339

> <Idih>
0.000

> <Tether>
0.000

$$$$
VeraChem MOL file


 13 13  0  0  0  0  0  0  0  0999 V2000     
   18.9738   19.0707   21.2394 C   0  0  0  0  0  0  0  0  0  0  0  0
   18.0227   18.7897   20.7720 H   0  0  0  0  0  0  0  0  0  0  0  0
   19.5644   19.6465   20.5150 H   0  0  0  0  0  0  0  0  0  0  0  0
   19.7598   17.9178   21.9481 C   0  0  0  0  0  0  0  0  0  0  0  0
   19.1263   17.1318   22.3766 H   0  0  0  0  0  0  0  0  0  0  0  0
   20.5550   17.4457   21.3606 H   0  0  0  0  0  0  0  0  0  0  0  0
   20.2252   18.9955   22.9763 C   0  0  0  0  0  0  0  0  0  0  0  0
   20.3218   18.6319   24.0075 H   0  0  0  0  0  0  0  0  0  0  0  0
   18.8778   19.7175   22.6611 C   0  0  0  0  0  0  0  0  0  0  0  0
   18.9010   20.8124   22.6932 H   0  0  0  0  0  0  0  0  0  0  0  0
   18.0298   19.3679   23.2624 H   0  0  0  0  0  0  0  0  0  0  0  0
   21.3868   19.7100   22.6045 O   0  0  0  0  0  0  0  0  0  0  0  0
   21.4773   20.4622   23.2274 H   0  0  0  0  0  0  0  0  0  0  0  0
  1  2  1  0  0  0  0
  1  3  1  0  0  0  0
  1  4  1  0  0  0  0
  4  5  1  0  0  0  0
  4  6  1  0  0  0  0
  4  7  1  0  0  0  0
  7  8  1  0  0  0  0
  1  9  1  0  0  0  0
  7  9  1  0  0  0  0
  9 10  1  0  0  0  0
  9 11  1  0  0  0  0
  7 12  1  0  0  0  0
 12 13  1  0  0  0  0
M  END
> <VConfSearch Rank>
243

> <Conf_Id>
20

> <Delta U+W>
1.030

> <U+W>
-2.101

> <U>
0.841

> <W>
-2.942

> <W(PB)>
-4.530

> <W(SA)>
1.587

> <Valence>
6.736

> <Coulomb>
-7.246

> <VdW>
1.352

> <VdW6>
-2.500

> <VdW12>
3.851

> <Bond>
0.063

> <Angle>
0.687

> <Pdih>
5.986

> <Idih>
0.000

> <Tether>
0.000

$$$$
VeraChem MOL file


 13 13  0  0  0  0  0  0  0  0999 V2000     
   19.5100   18.0076   23.0442 C   0  0  0  0  0  0  0  0  0  0  0  0
   19.8716   17.0008   22.7967 H   0  0  0  0  0  0  0  0  0  0  0  0
   18.9953   17.9665   24.0116 H   0  0  0  0  0  0  0  0  0  0  0  0
   18.7427   18.7296   21.8877 C   0  0  0  0  0  0  0  0  0  0  0  0
   18.1660   18.0847   21.2155 H   0  0  0  0  0  0  0  0  0  0  0  0
   18.1045   19.5610   22.2114 H   0  0  0  0  0  0  0  0  0  0  0  0
   20.1547   19.1482   21.3776 C   0  0  0  0  0  0  0  0  0  0  0  0
   20.6553   18.3784   20.7747 H   0  0  0  0  0  0  0  0  0  0  0  0
   20.5730   19.1433   22.8790 C   0  0  0  0  0  0  0  0  0  0  0  0
   20.3439   20.0673   23.4242 H   0  0  0  0  0  0  0  0  0  0  0  0
   21.6127   18.8639   23.0823 H   0  0  0  0  0  0  0  0  0  0  0  0
   20.2192   20.3997   20.7362 O   0  0  0  0  0  0  0  0  0  0  0  0
   19.7596   21.0418   21.3168 H   0  0  0  0  0  0  0  0  0  0  0  0
  1  2  1  0  0  0  0
  1  3  1  0  0  0  0
  1  4  1  0  0  0  0
  4  5  1  0  0  0  0
  4  6  1  0  0  0  0
  4  7  1  0  0  0  0
  7  8  1  0  0  0  0
  1  9  1  0  0  0  0
  7  9  1  0  0  0  0
  9 10  1  0  0  0  0
  9 11  1  0  0  0  0
  7 12  1  0  0  0  0
 12 13  1  0  0  0  0
M  END
> <VConfSearch Rank>
244

> <Conf_Id>
24

> <Delta U+W>
0.356

> <U+W>
-2.775

> <U>
-0.184

> <W>
-2.591

> <W(PB)>
-4.184

> <W(SA)>
1.593

> <Valence>
6.840

> <Coulomb>
-7.916

> <VdW>
0.893

> <VdW6>
-2.167

> <VdW12>
3.060

> <Bond>
0.059

> <Angle>
0.918

> <Pdih>
5.862

> <Idih>
0.000

> <Tether>
0.000

$$$$
VeraChem MOL file


 13 13  0  0  0  0  0  0  0  0999 V2000     
   20.0554   19.8477   21.6046 C   0  0  0  0  0  0  0  0  0  0  0  0
   20.0460   20.9384   21.4919 H   0  0  0  0  0  0  0  0  0  0  0  0
   20.6688   19.4215   20.8006 H   0  0  0  0  0  0  0  0  0  0  0  0
   18.6587   19.1680   21.7981 C   0  0  0  0  0  0  0  0  0  0  0  0
   17.9170   19.7935   22.3096 H   0  0  0  0  0  0  0  0  0  0  0  0
   18.1974   18.7467   20.8979 H   0  0  0  0  0  0  0  0  0  0  0  0
   19.3855   18.1509   22.7316 C   0  0  0  0  0  0  0  0  0  0  0  0
   18.7948   17.8118   23.5921 H   0  0  0  0  0  0  0  0  0  0  0  0
   20.3829   19.3108   23.0380 C   0  0  0  0  0  0  0  0  0  0  0  0
   20.0640   19.9713   23.8534 H   0  0  0  0  0  0  0  0  0  0  0  0
   21.4224   19.0138   23.2169 H   0  0  0  0  0  0  0  0  0  0  0  0
   19.9536   17.0416   22.0693 O   0  0  0  0  0  0  0  0  0  0  0  0
   20.4654   17.4020   21.3160 H   0  0  0  0  0  0  0  0  0  0  0  0
  1  2  1  0  0  0  0
  1  3  1  0  0  0  0
  1  4  1  0  0  0  0
  4  5  1  0  0  0  0
  4  6  1  0  0  0  0
  4  7  1  0  0  0  0
  7  8  1  0  0  0  0
  1  9  1  0  0  0  0
  7  9  1  0  0  0  0
  9 10  1  0  0  0  0
  9 11  1  0  0  0  0
  7 12  1  0  0  0  0
 12 13  1  0  0  0  0
M  END
> <VConfSearch Rank>
245

> <Conf_Id>
44

> <Delta U+W>
0.823

> <U+W>
-2.308

> <U>
0.039

> <W>
-2.348

> <W(PB)>
-3.918

> <W(SA)>
1.571

> <Valence>
7.320

> <Coulomb>
-8.530

> <VdW>
1.249

> <VdW6>
-2.615

> <VdW12>
3.864

> <Bond>
0.056

> <Angle>
0.694

> <Pdih>
6.570

> <Idih>
0.000

> <Tether>
0.000

$$$$
VeraChem MOL file


 13 13  0  0  0  0  0  0  0  0999 V2000     
   18.3808   19.3131   22.3654 C   0  0  0  0  0  0  0  0  0  0  0  0
   18.0880   19.6129   23.3802 H   0  0  0  0  0  0  0  0  0  0  0  0
   17.5012   19.3764   21.7138 H   0  0  0  0  0  0  0  0  0  0  0  0
   19.1996   17.9824   22.2867 C   0  0  0  0  0  0  0  0  0  0  0  0
   18.9595   17.2216   23.0374 H   0  0  0  0  0  0  0  0  0  0  0  0
   19.2142   17.5093   21.2969 H   0  0  0  0  0  0  0  0  0  0  0  0
   20.4421   18.8710   22.5958 C   0  0  0  0  0  0  0  0  0  0  0  0
   20.5842   19.0767   23.6656 H   0  0  0  0  0  0  0  0  0  0  0  0
   19.6825   19.9965   21.8307 C   0  0  0  0  0  0  0  0  0  0  0  0
   19.8676   21.0190   22.1776 H   0  0  0  0  0  0  0  0  0  0  0  0
   19.8010   19.9665   20.7404 H   0  0  0  0  0  0  0  0  0  0  0  0
   21.6479   18.4473   22.0033 O   0  0  0  0  0  0  0  0  0  0  0  0
   22.3041   19.1652   22.1344 H   0  0  0  0  0  0  0  0  0  0  0  0
  1  2  1  0  0  0  0
  1  3  1  0  0  0  0
  1  4  1  0  0  0  0
  4  5  1  0  0  0  0
  4  6  1  0  0  0  0
  4  7  1  0  0  0  0
  7  8  1  0  0  0  0
  1  9  1  0  0  0  0
  7  9  1  0  0  0  0
  9 10  1  0  0  0  0
  9 11  1  0  0  0  0
  7 12  1  0  0  0  0
 12 13  1  0  0  0  0
M  END
> <VConfSearch Rank>
246

> <Conf_Id>
22

> <Delta U+W>
0.000

> <U+W>
-3.131

> <U>
-0.154

> <W>
-2.978

> <W(PB)>
-4.579

> <W(SA)>
1.601

> <Valence>
6.333

> <Coulomb>
-7.439

> <VdW>
0.952

> <VdW6>
-2.120

> <VdW12>
3.072

> <Bond>
0.065

> <Angle>
0.931

> <Pdih>
5.338

> <Idih>
0.000

> <Tether>
0.000

$$$$
VeraChem MOL file


 13 13  0  0  0  0  0  0  0  0999 V2000     
   18.3208   19.0829   22.3102 C   0  0  0  0  0  0  0  0  0  0  0  0
   17.7612   18.3182   21.7554 H   0  0  0  0  0  0  0  0  0  0  0  0
   17.6085   19.8051   22.7266 H   0  0  0  0  0  0  0  0  0  0  0  0
   19.5418   19.6872   21.5413 C   0  0  0  0  0  0  0  0  0  0  0  0
   19.8967   20.6501   21.9296 H   0  0  0  0  0  0  0  0  0  0  0  0
   19.4373   19.7626   20.4534 H   0  0  0  0  0  0  0  0  0  0  0  0
   20.3293   18.4481   22.0646 C   0  0  0  0  0  0  0  0  0  0  0  0
   20.1924   17.5434   21.4564 H   0  0  0  0  0  0  0  0  0  0  0  0
   19.3885   18.5194   23.3050 C   0  0  0  0  0  0  0  0  0  0  0  0
   19.7118   19.2248   24.0806 H   0  0  0  0  0  0  0  0  0  0  0  0
   19.1505   17.5605   23.7780 H   0  0  0  0  0  0  0  0  0  0  0  0
   21.6947   18.6701   22.3307 O   0  0  0  0  0  0  0  0  0  0  0  0
   22.1484   18.7619   21.4653 H   0  0  0  0  0  0  0  0  0  0  0  0
  1  2  1  0  0  0  0
  1  3  1  0  0  0  0
  1  4  1  0  0  0  0
  4  5  1  0  0  0  0
  4  6  1  0  0  0  0
  4  7  1  0  0  0  0
  7  8  1  0  0  0  0
  1  9  1  0  0  0  0
  7  9  1  0  0  0  0
  9 10  1  0  0  0  0
  9 11  1  0  0  0  0
  7 12  1  0  0  0  0
 12 13  1  0  0  0  0
M  END
> <VConfSearch Rank>
247

> <Conf_Id>
19

> <Delta U+W>
-0.011

> <U+W>
-3.142

> <U>
-0.154

> <W>
-2.989

> <W(PB)>
-4.588

> <W(SA)>
1.599

> <Valence>
6.334

> <Coulomb>
-7.439

> <VdW>
0.951

> <VdW6>
-2.120

> <VdW12>
3.072

> <Bond>
0.065

> <Angle>
0.930

> <Pdih>
5.339

> <Idih>
0.000

> <Tether>
0.000

$$$$
VeraChem MOL file


 13 13  0  0  0  0  0  0  0  0999 V2000     
   20.8476   19.0665   22.4826 C   0  0  0  0  0  0  0  0  0  0  0  0
   21.6703   19.5872   22.9865 H   0  0  0  0  0  0  0  0  0  0  0  0
   21.2444   18.1596   22.0079 H   0  0  0  0  0  0  0  0  0  0  0  0
   19.9440   19.9436   21.5535 C   0  0  0  0  0  0  0  0  0  0  0  0
   19.8458   20.9891   21.8697 H   0  0  0  0  0  0  0  0  0  0  0  0
   20.1877   19.9219   20.4855 H   0  0  0  0  0  0  0  0  0  0  0  0
   18.7614   19.0274   21.9979 C   0  0  0  0  0  0  0  0  0  0  0  0
   17.7980   19.5430   22.1021 H   0  0  0  0  0  0  0  0  0  0  0  0
   19.5518   18.8428   23.3310 C   0  0  0  0  0  0  0  0  0  0  0  0
   19.4568   17.8638   23.8137 H   0  0  0  0  0  0  0  0  0  0  0  0
   19.3589   19.6216   24.0788 H   0  0  0  0  0  0  0  0  0  0  0  0
   18.6000   17.8508   21.2313 O   0  0  0  0  0  0  0  0  0  0  0  0
   17.9551   17.2823   21.7037 H   0  0  0  0  0  0  0  0  0  0  0  0
  1  2  1  0  0  0  0
  1  3  1  0  0  0  0
  1  4  1  0  0  0  0
  4  5  1  0  0  0  0
  4  6  1  0  0  0  0
  4  7  1  0  0  0  0
  7  8  1  0  0  0  0
  1  9  1  0  0  0  0
  7  9  1  0  0  0  0
  9 10  1  0  0  0  0
  9 11  1  0  0  0  0
  7 12  1  0  0  0  0
 12 13  1  0  0  0  0
M  END
> <VConfSearch Rank>
248

> <Conf_Id>
20

> <Delta U+W>
1.030

> <U+W>
-2.101

> <U>
0.841

> <W>
-2.942

> <W(PB)>
-4.530

> <W(SA)>
1.587

> <Valence>
6.736

> <Coulomb>
-7.246

> <VdW>
1.352

> <VdW6>
-2.500

> <VdW12>
3.851

> <Bond>
0.063

> <Angle>
0.687

> <Pdih>
5.986

> <Idih>
0.000

> <Tether>
0.000

$$$$
VeraChem MOL file


 13 13  0  0  0  0  0  0  0  0999 V2000     
   20.1166   20.0402   22.7819 C   0  0  0  0  0  0  0  0  0  0  0  0
   20.7019   19.9635   23.7078 H   0  0  0  0  0  0  0  0  0  0  0  0
   19.9751   21.1013   22.5443 H   0  0  0  0  0  0  0  0  0  0  0  0
   18.8304   19.1505   22.7457 C   0  0  0  0  0  0  0  0  0  0  0  0
   18.3277   18.9903   23.7059 H   0  0  0  0  0  0  0  0  0  0  0  0
   18.0827   19.4571   22.0039 H   0  0  0  0  0  0  0  0  0  0  0  0
   19.7828   18.0074   22.2816 C   0  0  0  0  0  0  0  0  0  0  0  0
   20.3003   17.4983   23.1060 H   0  0  0  0  0  0  0  0  0  0  0  0
   20.6235   19.1354   21.6108 C   0  0  0  0  0  0  0  0  0  0  0  0
   20.2766   19.4387   20.6152 H   0  0  0  0  0  0  0  0  0  0  0  0
   21.7045   18.9619   21.5686 H   0  0  0  0  0  0  0  0  0  0  0  0
   19.2157   17.0695   21.3980 O   0  0  0  0  0  0  0  0  0  0  0  0
   18.7709   17.5787   20.6884 H   0  0  0  0  0  0  0  0  0  0  0  0
  1  2  1  0  0  0  0
  1  3  1  0  0  0  0
  1  4  1  0  0  0  0
  4  5  1  0  0  0  0
  4  6  1  0  0  0  0
  4  7  1  0  0  0  0
  7  8  1  0  0  0  0
  1  9  1  0  0  0  0
  7  9  1  0  0  0  0
  9 10  1  0  0  0  0
  9 11  1  0  0  0  0
  7 12  1  0  0  0  0
 12 13  1  0  0  0  0
M  END
> <VConfSearch Rank>
249

> <Conf_Id>
24

> <Delta U+W>
0.356

> <U+W>
-2.775

> <U>
-0.184

> <W>
-2.591

> <W(PB)>
-4.184

> <W(SA)>
1.593

> <Valence>
6.840

> <Coulomb>
-7.916

> <VdW>
0.893

> <VdW6>
-2.167

> <VdW12>
3.060

> <Bond>
0.059

> <Angle>
0.918

> <Pdih>
5.862

> <Idih>
0.000

> <Tether>
0.000

$$$$
VeraChem MOL file


 13 13  0  0  0  0  0  0  0  0999 V2000     
   18.7966   18.4744   21.7445 C   0  0  0  0  0  0  0  0  0  0  0  0
   17.8341   17.9825   21.9289 H   0  0  0  0  0  0  0  0  0  0  0  0
   18.9705   18.5007   20.6613 H   0  0  0  0  0  0  0  0  0  0  0  0
   20.0046   17.9538   22.5929 C   0  0  0  0  0  0  0  0  0  0  0  0
   19.7319   17.5756   23.5857 H   0  0  0  0  0  0  0  0  0  0  0  0
   20.6551   17.2181   22.1068 H   0  0  0  0  0  0  0  0  0  0  0  0
   20.5210   19.4260   22.5925 C   0  0  0  0  0  0  0  0  0  0  0  0
   21.0171   19.7405   23.5196 H   0  0  0  0  0  0  0  0  0  0  0  0
   19.0203   19.8376   22.4806 C   0  0  0  0  0  0  0  0  0  0  0  0
   18.5062   19.9214   23.4458 H   0  0  0  0  0  0  0  0  0  0  0  0
   18.8140   20.7416   21.8967 H   0  0  0  0  0  0  0  0  0  0  0  0
   21.3146   19.7743   21.4787 O   0  0  0  0  0  0  0  0  0  0  0  0
   20.8258   19.4715   20.6858 H   0  0  0  0  0  0  0  0  0  0  0  0
  1  2  1  0  0  0  0
  1  3  1  0  0  0  0
  1  4  1  0  0  0  0
  4  5  1  0  0  0  0
  4  6  1  0  0  0  0
  4  7  1  0  0  0  0
  7  8  1  0  0  0  0
  1  9  1  0  0  0  0
  7  9  1  0  0  0  0
  9 10  1  0  0  0  0
  9 11  1  0  0  0  0
  7 12  1  0  0  0  0
 12 13  1  0  0  0  0
M  END
> <VConfSearch Rank>
250

> <Conf_Id>
44

> <Delta U+W>
0.823

> <U+W>
-2.308

> <U>
0.039

> <W>
-2.348

> <W(PB)>
-3.918

> <W(SA)>
1.571

> <Valence>
7.320

> <Coulomb>
-8.530

> <VdW>
1.249

> <VdW6>
-2.615

> <VdW12>
3.864

> <Bond>
0.056

> <Angle>
0.694

> <Pdih>
6.570

> <Idih>
0.000

> <Tether>
0.000

$$$$
VeraChem MOL file


 13 13  0  0  0  0  0  0  0  0999 V2000     
   20.8595   18.7779   21.7491 C   0  0  0  0  0  0  0  0  0  0  0  0
   21.1648   17.7313   21.8795 H   0  0  0  0  0  0  0  0  0  0  0  0
   21.6370   19.3014   21.1800 H   0  0  0  0  0  0  0  0  0  0  0  0
   20.3716   19.4849   23.0565 C   0  0  0  0  0  0  0  0  0  0  0  0
   20.8504   19.1634   23.9878 H   0  0  0  0  0  0  0  0  0  0  0  0
   20.3784   20.5812   23.0163 H   0  0  0  0  0  0  0  0  0  0  0  0
   18.9889   18.8362   22.7464 C   0  0  0  0  0  0  0  0  0  0  0  0
   18.9002   17.7967   23.0908 H   0  0  0  0  0  0  0  0  0  0  0  0
   19.3910   18.9737   21.2469 C   0  0  0  0  0  0  0  0  0  0  0  0
   19.0037   18.1996   20.5753 H   0  0  0  0  0  0  0  0  0  0  0  0
   19.1843   19.9578   20.8079 H   0  0  0  0  0  0  0  0  0  0  0  0
   17.8672   19.5914   23.1414 O   0  0  0  0  0  0  0  0  0  0  0  0
   17.0757   19.1625   22.7503 H   0  0  0  0  0  0  0  0  0  0  0  0
  1  2  1  0  0  0  0
  1  3  1  0  0  0  0
  1  4  1  0  0  0  0
  4  5  1  0  0  0  0
  4  6  1  0  0  0  0
  4  7  1  0  0  0  0
  7  8  1  0  0  0  0
  1  9  1  0  0  0  0
  7  9  1  0  0  0  0
  9 10  1  0  0  0  0
  9 11  1  0  0  0  0
  7 12  1  0  0  0  0
 12 13  1  0  0  0  0
M  END
> <VConfSearch Rank>
251

> <Conf_Id>
22

> <Delta U+W>
0.000

> <U+W>
-3.131

> <U>
-0.154

> <W>
-2.978

> <W(PB)>
-4.579

> <W(SA)>
1.601

> <Valence>
6.333

> <Coulomb>
-7.439

> <VdW>
0.952

> <VdW6>
-2.120

> <VdW12>
3.072

> <Bond>
0.065

> <Angle>
0.931

> <Pdih>
5.338

> <Idih>
0.000

> <Tether>
0.000

$$$$
VeraChem MOL file


 13 13  0  0  0  0  0  0  0  0999 V2000     
   19.6558   18.5806   23.5193 C   0  0  0  0  0  0  0  0  0  0  0  0
   20.1480   17.6159   23.7002 H   0  0  0  0  0  0  0  0  0  0  0  0
   19.2736   18.9633   24.4731 H   0  0  0  0  0  0  0  0  0  0  0  0
   18.6479   18.5870   22.3229 C   0  0  0  0  0  0  0  0  0  0  0  0
   17.9269   19.4139   22.3358 H   0  0  0  0  0  0  0  0  0  0  0  0
   18.1080   17.6510   22.1422 H   0  0  0  0  0  0  0  0  0  0  0  0
   19.8999   18.8334   21.4279 C   0  0  0  0  0  0  0  0  0  0  0  0
   20.4484   17.9180   21.1667 H   0  0  0  0  0  0  0  0  0  0  0  0
   20.4872   19.5881   22.6585 C   0  0  0  0  0  0  0  0  0  0  0  0
   20.1707   20.6352   22.7428 H   0  0  0  0  0  0  0  0  0  0  0  0
   21.5755   19.5386   22.7726 H   0  0  0  0  0  0  0  0  0  0  0  0
   19.6772   19.6264   20.2851 O   0  0  0  0  0  0  0  0  0  0  0  0
   19.1629   19.0830   19.6499 H   0  0  0  0  0  0  0  0  0  0  0  0
  1  2  1  0  0  0  0
  1  3  1  0  0  0  0
  1  4  1  0  0  0  0
  4  5  1  0  0  0  0
  4  6  1  0  0  0  0
  4  7  1  0  0  0  0
  7  8  1  0  0  0  0
  1  9  1  0  0  0  0
  7  9  1  0  0  0  0
  9 10  1  0  0  0  0
  9 11  1  0  0  0  0
  7 12  1  0  0  0  0
 12 13  1  0  0  0  0
M  END
> <VConfSearch Rank>
252

> <Conf_Id>
19

> <Delta U+W>
-0.011

> <U+W>
-3.142

> <U>
-0.154

> <W>
-2.989

> <W(PB)>
-4.588

> <W(SA)>
1.599

> <Valence>
6.334

> <Coulomb>
-7.439

> <VdW>
0.951

> <VdW6>
-2.120

> <VdW12>
3.072

> <Bond>
0.065

> <Angle>
0.930

> <Pdih>
5.339

> <Idih>
0.000

> <Tether>
0.000

$$$$
VeraChem MOL file


 13 13  0  0  0  0  0  0  0  0999 V2000     
   19.5888   19.7473   23.2976 C   0  0  0  0  0  0  0  0  0  0  0  0
   19.6603   20.7664   23.6954 H   0  0  0  0  0  0  0  0  0  0  0  0
   19.3156   19.0691   24.1165 H   0  0  0  0  0  0  0  0  0  0  0  0
   20.7953   19.2616   22.4272 C   0  0  0  0  0  0  0  0  0  0  0  0
   21.3003   20.0567   21.8655 H   0  0  0  0  0  0  0  0  0  0  0  0
   21.5528   18.6636   22.9458 H   0  0  0  0  0  0  0  0  0  0  0  0
   19.7486   18.4567   21.5954 C   0  0  0  0  0  0  0  0  0  0  0  0
   19.9661   18.3979   20.5211 H   0  0  0  0  0  0  0  0  0  0  0  0
   18.7355   19.5738   21.9974 C   0  0  0  0  0  0  0  0  0  0  0  0
   17.6985   19.2516   22.1428 H   0  0  0  0  0  0  0  0  0  0  0  0
   18.7408   20.4453   21.3314 H   0  0  0  0  0  0  0  0  0  0  0  0
   19.4504   17.1703   22.0997 O   0  0  0  0  0  0  0  0  0  0  0  0
   18.6686   16.8395   21.6082 H   0  0  0  0  0  0  0  0  0  0  0  0
  1  2  1  0  0  0  0
  1  3  1  0  0  0  0
  1  4  1  0  0  0  0
  4  5  1  0  0  0  0
  4  6  1  0  0  0  0
  4  7  1  0  0  0  0
  7  8  1  0  0  0  0
  1  9  1  0  0  0  0
  7  9  1  0  0  0  0
  9 10  1  0  0  0  0
  9 11  1  0  0  0  0
  7 12  1  0  0  0  0
 12 13  1  0  0  0  0
M  END
> <VConfSearch Rank>
253

> <Conf_Id>
20

> <Delta U+W>
1.030

> <U+W>
-2.101

> <U>
0.841

> <W>
-2.942

> <W(PB)>
-4.530

> <W(SA)>
1.587

> <Valence>
6.736

> <Coulomb>
-7.246

> <VdW>
1.352

> <VdW6>
-2.500

> <VdW12>
3.851

> <Bond>
0.063

> <Angle>
0.687

> <Pdih>
5.986

> <Idih>
0.000

> <Tether>
0.000

$$$$
VeraChem MOL file


 13 13  0  0  0  0  0  0  0  0999 V2000     
   20.1100   19.8473   21.3686 C   0  0  0  0  0  0  0  0  0  0  0  0
   19.9293   19.6540   20.3029 H   0  0  0  0  0  0  0  0  0  0  0  0
   20.5920   20.8270   21.4697 H   0  0  0  0  0  0  0  0  0  0  0  0
   20.7843   18.6666   22.1423 C   0  0  0  0  0  0  0  0  0  0  0  0
   21.4822   18.0489   21.5664 H   0  0  0  0  0  0  0  0  0  0  0  0
   21.2642   18.9530   23.0862 H   0  0  0  0  0  0  0  0  0  0  0  0
   19.3400   18.0991   22.2879 C   0  0  0  0  0  0  0  0  0  0  0  0
   18.9947   17.5334   21.4119 H   0  0  0  0  0  0  0  0  0  0  0  0
   18.8789   19.5879   22.2983 C   0  0  0  0  0  0  0  0  0  0  0  0
   18.9329   20.0803   23.2771 H   0  0  0  0  0  0  0  0  0  0  0  0
   17.8941   19.7839   21.8601 H   0  0  0  0  0  0  0  0  0  0  0  0
   19.0895   17.3805   23.4722 O   0  0  0  0  0  0  0  0  0  0  0  0
   19.4164   17.9309   24.2145 H   0  0  0  0  0  0  0  0  0  0  0  0
  1  2  1  0  0  0  0
  1  3  1  0  0  0  0
  1  4  1  0  0  0  0
  4  5  1  0  0  0  0
  4  6  1  0  0  0  0
  4  7  1  0  0  0  0
  7  8  1  0  0  0  0
  1  9  1  0  0  0  0
  7  9  1  0  0  0  0
  9 10  1  0  0  0  0
  9 11  1  0  0  0  0
  7 12  1  0  0  0  0
 12 13  1  0  0  0  0
M  END
> <VConfSearch Rank>
254

> <Conf_Id>
24

> <Delta U+W>
0.356

> <U+W>
-2.775

> <U>
-0.184

> <W>
-2.591

> <W(PB)>
-4.184

> <W(SA)>
1.593

> <Valence>
6.840

> <Coulomb>
-7.916

> <VdW>
0.893

> <VdW6>
-2.167

> <VdW12>
3.060

> <Bond>
0.059

> <Angle>
0.918

> <Pdih>
5.862

> <Idih>
0.000

> <Tether>
0.000

$$$$
VeraChem MOL file


 13 13  0  0  0  0  0  0  0  0999 V2000     
   18.7891   18.4266   21.8186 C   0  0  0  0  0  0  0  0  0  0  0  0
   17.8542   17.9160   22.0788 H   0  0  0  0  0  0  0  0  0  0  0  0
   18.9031   18.4061   20.7273 H   0  0  0  0  0  0  0  0  0  0  0  0
   20.0573   17.9829   22.6216 C   0  0  0  0  0  0  0  0  0  0  0  0
   19.8510   17.6449   23.6444 H   0  0  0  0  0  0  0  0  0  0  0  0
   20.7037   17.2442   22.1345 H   0  0  0  0  0  0  0  0  0  0  0  0
   20.5256   19.4679   22.5244 C   0  0  0  0  0  0  0  0  0  0  0  0
   21.0609   19.8409   23.4069 H   0  0  0  0  0  0  0  0  0  0  0  0
   19.0087   19.8295   22.4773 C   0  0  0  0  0  0  0  0  0  0  0  0
   18.5452   19.9442   23.4647 H   0  0  0  0  0  0  0  0  0  0  0  0
   18.7422   20.6980   21.8646 H   0  0  0  0  0  0  0  0  0  0  0  0
   21.2461   19.7856   21.3532 O   0  0  0  0  0  0  0  0  0  0  0  0
   20.7249   19.4310   20.6036 H   0  0  0  0  0  0  0  0  0  0  0  0
  1  2  1  0  0  0  0
  1  3  1  0  0  0  0
  1  4  1  0  0  0  0
  4  5  1  0  0  0  0
  4  6  1  0  0  0  0
  4  7  1  0  0  0  0
  7  8  1  0  0  0  0
  1  9  1  0  0  0  0
  7  9  1  0  0  0  0
  9 10  1  0  0  0  0
  9 11  1  0  0  0  0
  7 12  1  0  0  0  0
 12 13  1  0  0  0  0
M  END
> <VConfSearch Rank>
255

> <Conf_Id>
44

> <Delta U+W>
0.823

> <U+W>
-2.308

> <U>
0.039

> <W>
-2.348

> <W(PB)>
-3.918

> <W(SA)>
1.571

> <Valence>
7.320

> <Coulomb>
-8.530

> <VdW>
1.249

> <VdW6>
-2.615

> <VdW12>
3.864

> <Bond>
0.056

> <Angle>
0.694

> <Pdih>
6.570

> <Idih>
0.000

> <Tether>
0.000

$$$$
VeraChem MOL file


 13 13  0  0  0  0  0  0  0  0999 V2000     
   20.0109   20.2554   21.8571 C   0  0  0  0  0  0  0  0  0  0  0  0
   19.1522   20.9018   21.6328 H   0  0  0  0  0  0  0  0  0  0  0  0
   20.9307   20.8397   21.7353 H   0  0  0  0  0  0  0  0  0  0  0  0
   19.9836   18.8614   21.1476 C   0  0  0  0  0  0  0  0  0  0  0  0
   19.5166   18.8319   20.1571 H   0  0  0  0  0  0  0  0  0  0  0  0
   20.9543   18.3529   21.0953 H   0  0  0  0  0  0  0  0  0  0  0  0
   19.0816   18.4102   22.3357 C   0  0  0  0  0  0  0  0  0  0  0  0
   18.0211   18.6685   22.2096 H   0  0  0  0  0  0  0  0  0  0  0  0
   19.8864   19.4391   23.1858 C   0  0  0  0  0  0  0  0  0  0  0  0
   19.3344   19.9229   23.9991 H   0  0  0  0  0  0  0  0  0  0  0  0
   20.8369   19.0595   23.5811 H   0  0  0  0  0  0  0  0  0  0  0  0
   19.2257   17.0637   22.7238 O   0  0  0  0  0  0  0  0  0  0  0  0
   18.7383   16.9508   23.5681 H   0  0  0  0  0  0  0  0  0  0  0  0
  1  2  1  0  0  0  0
  1  3  1  0  0  0  0
  1  4  1  0  0  0  0
  4  5  1  0  0  0  0
  4  6  1  0  0  0  0
  4  7  1  0  0  0  0
  7  8  1  0  0  0  0
  1  9  1  0  0  0  0
  7  9  1  0  0  0  0
  9 10  1  0  0  0  0
  9 11  1  0  0  0  0
  7 12  1  0  0  0  0
 12 13  1  0  0  0  0
M  END
> <VConfSearch Rank>
256

> <Conf_Id>
22

> <Delta U+W>
0.000

> <U+W>
-3.131

> <U>
-0.154

> <W>
-2.978

> <W(PB)>
-4.579

> <W(SA)>
1.601

> <Valence>
6.333

> <Coulomb>
-7.439

> <VdW>
0.952

> <VdW6>
-2.120

> <VdW12>
3.072

> <Bond>
0.065

> <Angle>
0.931

> <Pdih>
5.338

> <Idih>
0.000

> <Tether>
0.000

$$$$
VeraChem MOL file


 13 13  0  0  0  0  0  0  0  0999 V2000     
   20.4502   19.4795   21.3736 C   0  0  0  0  0  0  0  0  0  0  0  0
   20.0410   19.5235   20.3557 H   0  0  0  0  0  0  0  0  0  0  0  0
   21.4728   19.8749   21.3576 H   0  0  0  0  0  0  0  0  0  0  0  0
   20.2555   18.1070   22.0987 C   0  0  0  0  0  0  0  0  0  0  0  0
   20.9240   17.9413   22.9528 H   0  0  0  0  0  0  0  0  0  0  0  0
   20.2725   17.2174   21.4597 H   0  0  0  0  0  0  0  0  0  0  0  0
   18.8427   18.6455   22.4772 C   0  0  0  0  0  0  0  0  0  0  0  0
   18.0896   18.5148   21.6880 H   0  0  0  0  0  0  0  0  0  0  0  0
   19.5087   20.0545   22.4828 C   0  0  0  0  0  0  0  0  0  0  0  0
   20.0113   20.3158   23.4224 H   0  0  0  0  0  0  0  0  0  0  0  0
   18.8630   20.8877   22.1850 H   0  0  0  0  0  0  0  0  0  0  0  0
   18.3449   18.2097   23.7209 O   0  0  0  0  0  0  0  0  0  0  0  0
   18.1059   17.2629   23.6227 H   0  0  0  0  0  0  0  0  0  0  0  0
  1  2  1  0  0  0  0
  1  3  1  0  0  0  0
  1  4  1  0  0  0  0
  4  5  1  0  0  0  0
  4  6  1  0  0  0  0
  4  7  1  0  0  0  0
  7  8  1  0  0  0  0
  1  9  1  0  0  0  0
  7  9  1  0  0  0  0
  9 10  1  0  0  0  0
  9 11  1  0  0  0  0
  7 12  1  0  0  0  0
 12 13  1  0  0  0  0
M  END
> <VConfSearch Rank>
257

> <Conf_Id>
19

> <Delta U+W>
-0.011

> <U+W>
-3.142

> <U>
-0.154

> <W>
-2.989

> <W(PB)>
-4.588

> <W(SA)>
1.599

> <Valence>
6.334

> <Coulomb>
-7.439

> <VdW>
0.951

> <VdW6>
-2.120

> <VdW12>
3.072

> <Bond>
0.065

> <Angle>
0.930

> <Pdih>
5.339

> <Idih>
0.000

> <Tether>
0.000

$$$$
VeraChem MOL file


 13 13  0  0  0  0  0  0  0  0999 V2000     
   18.5938   19.2420   21.6452 C   0  0  0  0  0  0  0  0  0  0  0  0
   18.1722   19.5267   20.6740 H   0  0  0  0  0  0  0  0  0  0  0  0
   17.7720   18.9548   22.3141 H   0  0  0  0  0  0  0  0  0  0  0  0
   19.6202   20.2441   22.2706 C   0  0  0  0  0  0  0  0  0  0  0  0
   20.2109   20.8070   21.5378 H   0  0  0  0  0  0  0  0  0  0  0  0
   19.2184   20.9457   23.0100 H   0  0  0  0  0  0  0  0  0  0  0  0
   20.3468   18.9905   22.8503 C   0  0  0  0  0  0  0  0  0  0  0  0
   21.4409   19.0716   22.8848 H   0  0  0  0  0  0  0  0  0  0  0  0
   19.7863   18.2295   21.6082 C   0  0  0  0  0  0  0  0  0  0  0  0
   19.5277   17.1767   21.7668 H   0  0  0  0  0  0  0  0  0  0  0  0
   20.4171   18.3038   20.7140 H   0  0  0  0  0  0  0  0  0  0  0  0
   19.8554   18.5419   24.0974 O   0  0  0  0  0  0  0  0  0  0  0  0
   20.2599   17.6653   24.2709 H   0  0  0  0  0  0  0  0  0  0  0  0
  1  2  1  0  0  0  0
  1  3  1  0  0  0  0
  1  4  1  0  0  0  0
  4  5  1  0  0  0  0
  4  6  1  0  0  0  0
  4  7  1  0  0  0  0
  7  8  1  0  0  0  0
  1  9  1  0  0  0  0
  7  9  1  0  0  0  0
  9 10  1  0  0  0  0
  9 11  1  0  0  0  0
  7 12  1  0  0  0  0
 12 13  1  0  0  0  0
M  END
> <VConfSearch Rank>
258

> <Conf_Id>
20

> <Delta U+W>
1.030

> <U+W>
-2.101

> <U>
0.841

> <W>
-2.942

> <W(PB)>
-4.530

> <W(SA)>
1.587

> <Valence>
6.736

> <Coulomb>
-7.246

> <VdW>
1.352

> <VdW6>
-2.500

> <VdW12>
3.851

> <Bond>
0.063

> <Angle>
0.687

> <Pdih>
5.986

> <Idih>
0.000

> <Tether>
0.000

$$$$
VeraChem MOL file


 13 13  0  0  0  0  0  0  0  0999 V2000     
   20.4786   17.9047   22.3006 C   0  0  0  0  0  0  0  0  0  0  0  0
   21.5652   18.0400   22.3821 H   0  0  0  0  0  0  0  0  0  0  0  0
   20.2575   16.8308   22.3148 H   0  0  0  0  0  0  0  0  0  0  0  0
   19.8006   18.7308   21.1581 C   0  0  0  0  0  0  0  0  0  0  0  0
   20.4056   18.8988   20.2603 H   0  0  0  0  0  0  0  0  0  0  0  0
   18.8125   18.3645   20.8531 H   0  0  0  0  0  0  0  0  0  0  0  0
   19.7760   19.9016   22.1865 C   0  0  0  0  0  0  0  0  0  0  0  0
   20.7192   20.4619   22.2442 H   0  0  0  0  0  0  0  0  0  0  0  0
   19.6342   18.7930   23.2729 C   0  0  0  0  0  0  0  0  0  0  0  0
   18.6090   18.4407   23.4406 H   0  0  0  0  0  0  0  0  0  0  0  0
   20.0923   19.0160   24.2427 H   0  0  0  0  0  0  0  0  0  0  0  0
   18.6829   20.7816   22.0746 O   0  0  0  0  0  0  0  0  0  0  0  0
   17.8751   20.2285   22.0274 H   0  0  0  0  0  0  0  0  0  0  0  0
  1  2  1  0  0  0  0
  1  3  1  0  0  0  0
  1  4  1  0  0  0  0
  4  5  1  0  0  0  0
  4  6  1  0  0  0  0
  4  7  1  0  0  0  0
  7  8  1  0  0  0  0
  1  9  1  0  0  0  0
  7  9  1  0  0  0  0
  9 10  1  0  0  0  0
  9 11  1  0  0  0  0
  7 12  1  0  0  0  0
 12 13  1  0  0  0  0
M  END
> <VConfSearch Rank>
259

> <Conf_Id>
24

> <Delta U+W>
0.356

> <U+W>
-2.775

> <U>
-0.184

> <W>
-2.591

> <W(PB)>
-4.184

> <W(SA)>
1.593

> <Valence>
6.840

> <Coulomb>
-7.916

> <VdW>
0.893

> <VdW6>
-2.167

> <VdW12>
3.060

> <Bond>
0.059

> <Angle>
0.918

> <Pdih>
5.862

> <Idih>
0.000

> <Tether>
0.000

$$$$
VeraChem MOL file


 13 13  0  0  0  0  0  0  0  0999 V2000     
   18.7340   19.5583   22.1851 C   0  0  0  0  0  0  0  0  0  0  0  0
   18.0509   20.2046   22.7491 H   0  0  0  0  0  0  0  0  0  0  0  0
   18.3247   19.4178   21.1766 H   0  0  0  0  0  0  0  0  0  0  0  0
   19.1799   18.2413   22.9041 C   0  0  0  0  0  0  0  0  0  0  0  0
   19.2283   18.3157   23.9973 H   0  0  0  0  0  0  0  0  0  0  0  0
   18.6231   17.3349   22.6411 H   0  0  0  0  0  0  0  0  0  0  0  0
   20.5556   18.4270   22.1921 C   0  0  0  0  0  0  0  0  0  0  0  0
   21.4262   18.1170   22.7840 H   0  0  0  0  0  0  0  0  0  0  0  0
   20.2473   19.9558   22.2321 C   0  0  0  0  0  0  0  0  0  0  0  0
   20.5574   20.4506   23.1605 H   0  0  0  0  0  0  0  0  0  0  0  0
   20.6195   20.5418   21.3842 H   0  0  0  0  0  0  0  0  0  0  0  0
   20.6308   17.8724   20.8965 O   0  0  0  0  0  0  0  0  0  0  0  0
   19.8341   18.1806   20.4174 H   0  0  0  0  0  0  0  0  0  0  0  0
  1  2  1  0  0  0  0
  1  3  1  0  0  0  0
  1  4  1  0  0  0  0
  4  5  1  0  0  0  0
  4  6  1  0  0  0  0
  4  7  1  0  0  0  0
  7  8  1  0  0  0  0
  1  9  1  0  0  0  0
  7  9  1  0  0  0  0
  9 10  1  0  0  0  0
  9 11  1  0  0  0  0
  7 12  1  0  0  0  0
 12 13  1  0  0  0  0
M  END
> <VConfSearch Rank>
260

> <Conf_Id>
44

> <Delta U+W>
0.823

> <U+W>
-2.308

> <U>
0.039

> <W>
-2.348

> <W(PB)>
-3.918

> <W(SA)>
1.571

> <Valence>
7.320

> <Coulomb>
-8.530

> <VdW>
1.249

> <VdW6>
-2.615

> <VdW12>
3.864

> <Bond>
0.056

> <Angle>
0.694

> <Pdih>
6.570

> <Idih>
0.000

> <Tether>
0.000

$$$$
VeraChem MOL file


 13 13  0  0  0  0  0  0  0  0999 V2000     
   20.0932   19.9841   23.0692 C   0  0  0  0  0  0  0  0  0  0  0  0
   20.5930   19.5900   23.9639 H   0  0  0  0  0  0  0  0  0  0  0  0
   20.1402   21.0793   23.0954 H   0  0  0  0  0  0  0  0  0  0  0  0
   18.6869   19.3637   22.7784 C   0  0  0  0  0  0  0  0  0  0  0  0
   18.0972   19.0703   23.6537 H   0  0  0  0  0  0  0  0  0  0  0  0
   18.0524   19.9568   22.1081 H   0  0  0  0  0  0  0  0  0  0  0  0
   19.4731   18.2163   22.0754 C   0  0  0  0  0  0  0  0  0  0  0  0
   19.8424   17.4451   22.7654 H   0  0  0  0  0  0  0  0  0  0  0  0
   20.5274   19.3097   21.7261 C   0  0  0  0  0  0  0  0  0  0  0  0
   21.5676   18.9704   21.6711 H   0  0  0  0  0  0  0  0  0  0  0  0
   20.2980   19.8929   20.8255 H   0  0  0  0  0  0  0  0  0  0  0  0
   18.8241   17.6301   20.9711 O   0  0  0  0  0  0  0  0  0  0  0  0
   19.4772   17.0491   20.5248 H   0  0  0  0  0  0  0  0  0  0  0  0
  1  2  1  0  0  0  0
  1  3  1  0  0  0  0
  1  4  1  0  0  0  0
  4  5  1  0  0  0  0
  4  6  1  0  0  0  0
  4  7  1  0  0  0  0
  7  8  1  0  0  0  0
  1  9  1  0  0  0  0
  7  9  1  0  0  0  0
  9 10  1  0  0  0  0
  9 11  1  0  0  0  0
  7 12  1  0  0  0  0
 12 13  1  0  0  0  0
M  END
> <VConfSearch Rank>
261

> <Conf_Id>
22

> <Delta U+W>
0.000

> <U+W>
-3.131

> <U>
-0.154

> <W>
-2.978

> <W(PB)>
-4.579

> <W(SA)>
1.601

> <Valence>
6.333

> <Coulomb>
-7.439

> <VdW>
0.952

> <VdW6>
-2.120

> <VdW12>
3.072

> <Bond>
0.065

> <Angle>
0.931

> <Pdih>
5.338

> <Idih>
0.000

> <Tether>
0.000

$$$$
VeraChem MOL file


 13 13  0  0  0  0  0  0  0  0999 V2000     
   18.8963   17.9950   21.6648 C   0  0  0  0  0  0  0  0  0  0  0  0
   19.3687   17.5596   20.7744 H   0  0  0  0  0  0  0  0  0  0  0  0
   17.9009   17.5514   21.7857 H   0  0  0  0  0  0  0  0  0  0  0  0
   18.9676   19.5556   21.7467 C   0  0  0  0  0  0  0  0  0  0  0  0
   18.2399   20.0122   22.4292 H   0  0  0  0  0  0  0  0  0  0  0  0
   18.9387   20.0905   20.7911 H   0  0  0  0  0  0  0  0  0  0  0  0
   20.3832   19.3373   22.3612 C   0  0  0  0  0  0  0  0  0  0  0  0
   21.1743   19.1825   21.6147 H   0  0  0  0  0  0  0  0  0  0  0  0
   19.7998   18.0139   22.9418 C   0  0  0  0  0  0  0  0  0  0  0  0
   19.2567   18.1330   23.8875 H   0  0  0  0  0  0  0  0  0  0  0  0
   20.5091   17.1855   23.0447 H   0  0  0  0  0  0  0  0  0  0  0  0
   20.7785   20.2922   23.3185 O   0  0  0  0  0  0  0  0  0  0  0  0
   20.9685   21.1256   22.8365 H   0  0  0  0  0  0  0  0  0  0  0  0
  1  2  1  0  0  0  0
  1  3  1  0  0  0  0
  1  4  1  0  0  0  0
  4  5  1  0  0  0  0
  4  6  1  0  0  0  0
  4  7  1  0  0  0  0
  7  8  1  0  0  0  0
  1  9  1  0  0  0  0
  7  9  1  0  0  0  0
  9 10  1  0  0  0  0
  9 11  1  0  0  0  0
  7 12  1  0  0  0  0
 12 13  1  0  0  0  0
M  END
> <VConfSearch Rank>
262

> <Conf_Id>
19

> <Delta U+W>
-0.011

> <U+W>
-3.142

> <U>
-0.154

> <W>
-2.989

> <W(PB)>
-4.588

> <W(SA)>
1.599

> <Valence>
6.334

> <Coulomb>
-7.439

> <VdW>
0.951

> <VdW6>
-2.120

> <VdW12>
3.072

> <Bond>
0.065

> <Angle>
0.930

> <Pdih>
5.339

> <Idih>
0.000

> <Tether>
0.000

$$$$
VeraChem MOL file


 13 13  0  0  0  0  0  0  0  0999 V2000     
   19.8633   20.0990   22.8902 C   0  0  0  0  0  0  0  0  0  0  0  0
   19.6766   21.1787   22.9277 H   0  0  0  0  0  0  0  0  0  0  0  0
   20.4435   19.8120   23.7769 H   0  0  0  0  0  0  0  0  0  0  0  0
   20.4246   19.5438   21.5390 C   0  0  0  0  0  0  0  0  0  0  0  0
   20.0968   20.0950   20.6494 H   0  0  0  0  0  0  0  0  0  0  0  0
   21.5108   19.4100   21.4879 H   0  0  0  0  0  0  0  0  0  0  0  0
   19.5959   18.2547   21.8339 C   0  0  0  0  0  0  0  0  0  0  0  0
   19.1660   17.7744   20.9454 H   0  0  0  0  0  0  0  0  0  0  0  0
   18.6182   19.1944   22.6068 C   0  0  0  0  0  0  0  0  0  0  0  0
   18.1298   18.7601   23.4861 H   0  0  0  0  0  0  0  0  0  0  0  0
   17.8520   19.6614   21.9761 H   0  0  0  0  0  0  0  0  0  0  0  0
   20.2560   17.2929   22.6322 O   0  0  0  0  0  0  0  0  0  0  0  0
   19.5881   16.6233   22.8924 H   0  0  0  0  0  0  0  0  0  0  0  0
  1  2  1  0  0  0  0
  1  3  1  0  0  0  0
  1  4  1  0  0  0  0
  4  5  1  0  0  0  0
  4  6  1  0  0  0  0
  4  7  1  0  0  0  0
  7  8  1  0  0  0  0
  1  9  1  0  0  0  0
  7  9  1  0  0  0  0
  9 10  1  0  0  0  0
  9 11  1  0  0  0  0
  7 12  1  0  0  0  0
 12 13  1  0  0  0  0
M  END
> <VConfSearch Rank>
263

> <Conf_Id>
20

> <Delta U+W>
1.030

> <U+W>
-2.101

> <U>
0.841

> <W>
-2.942

> <W(PB)>
-4.530

> <W(SA)>
1.587

> <Valence>
6.736

> <Coulomb>
-7.246

> <VdW>
1.352

> <VdW6>
-2.500

> <VdW12>
3.851

> <Bond>
0.063

> <Angle>
0.687

> <Pdih>
5.986

> <Idih>
0.000

> <Tether>
0.000

$$$$
VeraChem MOL file


 13 13  0  0  0  0  0  0  0  0999 V2000     
   20.9757   18.9570   21.8481 C   0  0  0  0  0  0  0  0  0  0  0  0
   21.6312   18.1672   22.2382 H   0  0  0  0  0  0  0  0  0  0  0  0
   21.5655   19.6095   21.1932 H   0  0  0  0  0  0  0  0  0  0  0  0
   20.1031   19.6761   22.9292 C   0  0  0  0  0  0  0  0  0  0  0  0
   20.5501   19.7704   23.9250 H   0  0  0  0  0  0  0  0  0  0  0  0
   19.7122   20.6548   22.6248 H   0  0  0  0  0  0  0  0  0  0  0  0
   19.1117   18.4881   22.7422 C   0  0  0  0  0  0  0  0  0  0  0  0
   19.3745   17.5944   23.3244 H   0  0  0  0  0  0  0  0  0  0  0  0
   19.6145   18.4498   21.2675 C   0  0  0  0  0  0  0  0  0  0  0  0
   19.1144   19.1544   20.5916 H   0  0  0  0  0  0  0  0  0  0  0  0
   19.6301   17.4611   20.7957 H   0  0  0  0  0  0  0  0  0  0  0  0
   17.7502   18.8051   22.9085 O   0  0  0  0  0  0  0  0  0  0  0  0
   17.5756   19.6049   22.3696 H   0  0  0  0  0  0  0  0  0  0  0  0
  1  2  1  0  0  0  0
  1  3  1  0  0  0  0
  1  4  1  0  0  0  0
  4  5  1  0  0  0  0
  4  6  1  0  0  0  0
  4  7  1  0  0  0  0
  7  8  1  0  0  0  0
  1  9  1  0  0  0  0
  7  9  1  0  0  0  0
  9 10  1  0  0  0  0
  9 11  1  0  0  0  0
  7 12  1  0  0  0  0
 12 13  1  0  0  0  0
M  END
> <VConfSearch Rank>
264

> <Conf_Id>
24

> <Delta U+W>
0.356

> <U+W>
-2.775

> <U>
-0.184

> <W>
-2.591

> <W(PB)>
-4.184

> <W(SA)>
1.593

> <Valence>
6.840

> <Coulomb>
-7.916

> <VdW>
0.893

> <VdW6>
-2.167

> <VdW12>
3.060

> <Bond>
0.059

> <Angle>
0.918

> <Pdih>
5.862

> <Idih>
0.000

> <Tether>
0.000

$$$$
VeraChem MOL file


 13 13  0  0  0  0  0  0  0  0999 V2000     
   20.5578   18.4472   22.7037 C   0  0  0  0  0  0  0  0  0  0  0  0
   20.8700   17.7746   23.5115 H   0  0  0  0  0  0  0  0  0  0  0  0
   21.4481   18.7390   22.1322 H   0  0  0  0  0  0  0  0  0  0  0  0
   19.6264   19.6334   23.1227 C   0  0  0  0  0  0  0  0  0  0  0  0
   18.9732   19.4171   23.9768 H   0  0  0  0  0  0  0  0  0  0  0  0
   20.1191   20.5966   23.2964 H   0  0  0  0  0  0  0  0  0  0  0  0
   18.9362   19.4612   21.7341 C   0  0  0  0  0  0  0  0  0  0  0  0
   17.8537   19.6422   21.7321 H   0  0  0  0  0  0  0  0  0  0  0  0
   19.3491   17.9602   21.8366 C   0  0  0  0  0  0  0  0  0  0  0  0
   18.6279   17.3336   22.3755 H   0  0  0  0  0  0  0  0  0  0  0  0
   19.6004   17.4670   20.8910 H   0  0  0  0  0  0  0  0  0  0  0  0
   19.5460   20.1718   20.6782 O   0  0  0  0  0  0  0  0  0  0  0  0
   20.5039   19.9739   20.7291 H   0  0  0  0  0  0  0  0  0  0  0  0
  1  2  1  0  0  0  0
  1  3  1  0  0  0  0
  1  4  1  0  0  0  0
  4  5  1  0  0  0  0
  4  6  1  0  0  0  0
  4  7  1  0  0  0  0
  7  8  1  0  0  0  0
  1  9  1  0  0  0  0
  7  9  1  0  0  0  0
  9 10  1  0  0  0  0
  9 11  1  0  0  0  0
  7 12  1  0  0  0  0
 12 13  1  0  0  0  0
M  END
> <VConfSearch Rank>
265

> <Conf_Id>
44

> <Delta U+W>
0.823

> <U+W>
-2.308

> <U>
0.039

> <W>
-2.348

> <W(PB)>
-3.918

> <W(SA)>
1.571

> <Valence>
7.320

> <Coulomb>
-8.530

> <VdW>
1.249

> <VdW6>
-2.615

> <VdW12>
3.864

> <Bond>
0.056

> <Angle>
0.694

> <Pdih>
6.570

> <Idih>
0.000

> <Tether>
0.000

$$$$
VeraChem MOL file


 13 13  0  0  0  0  0  0  0  0999 V2000     
   20.2914   18.7166   21.1325 C   0  0  0  0  0  0  0  0  0  0  0  0
   21.3856   18.7506   21.2182 H   0  0  0  0  0  0  0  0  0  0  0  0
   20.0295   18.3616   20.1287 H   0  0  0  0  0  0  0  0  0  0  0  0
   19.5565   20.0096   21.6174 C   0  0  0  0  0  0  0  0  0  0  0  0
   20.0909   20.9542   21.4688 H   0  0  0  0  0  0  0  0  0  0  0  0
   18.5305   20.1222   21.2456 H   0  0  0  0  0  0  0  0  0  0  0  0
   19.6620   19.3885   23.0429 C   0  0  0  0  0  0  0  0  0  0  0  0
   20.6287   19.5673   23.5334 H   0  0  0  0  0  0  0  0  0  0  0  0
   19.5633   18.0097   22.3231 C   0  0  0  0  0  0  0  0  0  0  0  0
   20.1043   17.1833   22.7970 H   0  0  0  0  0  0  0  0  0  0  0  0
   18.5393   17.6820   22.1042 H   0  0  0  0  0  0  0  0  0  0  0  0
   18.5961   19.6922   23.9125 O   0  0  0  0  0  0  0  0  0  0  0  0
   18.6947   19.1202   24.7039 H   0  0  0  0  0  0  0  0  0  0  0  0
  1  2  1  0  0  0  0
  1  3  1  0  0  0  0
  1  4  1  0  0  0  0
  4  5  1  0  0  0  0
  4  6  1  0  0  0  0
  4  7  1  0  0  0  0
  7  8  1  0  0  0  0
  1  9  1  0  0  0  0
  7  9  1  0  0  0  0
  9 10  1  0  0  0  0
  9 11  1  0  0  0  0
  7 12  1  0  0  0  0
 12 13  1  0  0  0  0
M  END
> <VConfSearch Rank>
266

> <Conf_Id>
22

> <Delta U+W>
0.000

> <U+W>
-3.131

> <U>
-0.154

> <W>
-2.978

> <W(PB)>
-4.579

> <W(SA)>
1.601

> <Valence>
6.333

> <Coulomb>
-7.439

> <VdW>
0.952

> <VdW6>
-2.120

> <VdW12>
3.072

> <Bond>
0.065

> <Angle>
0.931

> <Pdih>
5.338

> <Idih>
0.000

> <Tether>
0.000

$$$$
VeraChem MOL file


 13 13  0  0  0  0  0  0  0  0999 V2000     
   19.8446   18.6483   23.5179 C   0  0  0  0  0  0  0  0  0  0  0  0
   20.1225   17.6010   23.6956 H   0  0  0  0  0  0  0  0  0  0  0  0
   19.7757   19.1613   24.4846 H   0  0  0  0  0  0  0  0  0  0  0  0
   18.6354   18.8488   22.5459 C   0  0  0  0  0  0  0  0  0  0  0  0
   18.1494   19.8300   22.6156 H   0  0  0  0  0  0  0  0  0  0  0  0
   17.8643   18.0709   22.5685 H   0  0  0  0  0  0  0  0  0  0  0  0
   19.6897   18.7281   21.4044 C   0  0  0  0  0  0  0  0  0  0  0  0
   19.9384   17.6925   21.1348 H   0  0  0  0  0  0  0  0  0  0  0  0
   20.6868   19.3708   22.4152 C   0  0  0  0  0  0  0  0  0  0  0  0
   20.6514   20.4666   22.4539 H   0  0  0  0  0  0  0  0  0  0  0  0
   21.7314   19.0550   22.3199 H   0  0  0  0  0  0  0  0  0  0  0  0
   19.4218   19.4943   20.2530 O   0  0  0  0  0  0  0  0  0  0  0  0
   18.6707   19.0669   19.7878 H   0  0  0  0  0  0  0  0  0  0  0  0
  1  2  1  0  0  0  0
  1  3  1  0  0  0  0
  1  4  1  0  0  0  0
  4  5  1  0  0  0  0
  4  6  1  0  0  0  0
  4  7  1  0  0  0  0
  7  8  1  0  0  0  0
  1  9  1  0  0  0  0
  7  9  1  0  0  0  0
  9 10  1  0  0  0  0
  9 11  1  0  0  0  0
  7 12  1  0  0  0  0
 12 13  1  0  0  0  0
M  END
> <VConfSearch Rank>
267

> <Conf_Id>
19

> <Delta U+W>
-0.011

> <U+W>
-3.142

> <U>
-0.154

> <W>
-2.989

> <W(PB)>
-4.588

> <W(SA)>
1.599

> <Valence>
6.334

> <Coulomb>
-7.439

> <VdW>
0.951

> <VdW6>
-2.120

> <VdW12>
3.072

> <Bond>
0.065

> <Angle>
0.930

> <Pdih>
5.339

> <Idih>
0.000

> <Tether>
0.000

$$$$
VeraChem MOL file


 13 13  0  0  0  0  0  0  0  0999 V2000     
   19.0821   18.3084   23.0922 C   0  0  0  0  0  0  0  0  0  0  0  0
   19.2396   17.6064   23.9194 H   0  0  0  0  0  0  0  0  0  0  0  0
   18.0027   18.4570   22.9585 H   0  0  0  0  0  0  0  0  0  0  0  0
   19.8641   18.0029   21.7715 C   0  0  0  0  0  0  0  0  0  0  0  0
   20.8310   17.5069   21.9196 H   0  0  0  0  0  0  0  0  0  0  0  0
   19.3082   17.4628   20.9971 H   0  0  0  0  0  0  0  0  0  0  0  0
   19.9608   19.5490   21.5831 C   0  0  0  0  0  0  0  0  0  0  0  0
   20.8980   19.8965   21.1294 H   0  0  0  0  0  0  0  0  0  0  0  0
   19.9194   19.6295   23.1413 C   0  0  0  0  0  0  0  0  0  0  0  0
   19.4124   20.5041   23.5633 H   0  0  0  0  0  0  0  0  0  0  0  0
   20.8999   19.5278   23.6221 H   0  0  0  0  0  0  0  0  0  0  0  0
   18.8572   20.1382   20.9251 O   0  0  0  0  0  0  0  0  0  0  0  0
   18.9463   21.1102   21.0216 H   0  0  0  0  0  0  0  0  0  0  0  0
  1  2  1  0  0  0  0
  1  3  1  0  0  0  0
  1  4  1  0  0  0  0
  4  5  1  0  0  0  0
  4  6  1  0  0  0  0
  4  7  1  0  0  0  0
  7  8  1  0  0  0  0
  1  9  1  0  0  0  0
  7  9  1  0  0  0  0
  9 10  1  0  0  0  0
  9 11  1  0  0  0  0
  7 12  1  0  0  0  0
 12 13  1  0  0  0  0
M  END
> <VConfSearch Rank>
268

> <Conf_Id>
20

> <Delta U+W>
1.030

> <U+W>
-2.101

> <U>
0.841

> <W>
-2.942

> <W(PB)>
-4.530

> <W(SA)>
1.587

> <Valence>
6.736

> <Coulomb>
-7.246

> <VdW>
1.352

> <VdW6>
-2.500

> <VdW12>
3.851

> <Bond>
0.063

> <Angle>
0.687

> <Pdih>
5.986

> <Idih>
0.000

> <Tether>
0.000

$$$$
VeraChem MOL file


 13 13  0  0  0  0  0  0  0  0999 V2000     
   19.2596   20.0447   21.7492 C   0  0  0  0  0  0  0  0  0  0  0  0
   19.1406   20.8898   22.4400 H   0  0  0  0  0  0  0  0  0  0  0  0
   18.9100   20.3523   20.7564 H   0  0  0  0  0  0  0  0  0  0  0  0
   18.7051   18.6820   22.2813 C   0  0  0  0  0  0  0  0  0  0  0  0
   17.8296   18.7408   22.9372 H   0  0  0  0  0  0  0  0  0  0  0  0
   18.5132   17.9316   21.5045 H   0  0  0  0  0  0  0  0  0  0  0  0
   20.0811   18.5431   23.0001 C   0  0  0  0  0  0  0  0  0  0  0  0
   20.1360   19.0737   23.9604 H   0  0  0  0  0  0  0  0  0  0  0  0
   20.6608   19.3508   21.7998 C   0  0  0  0  0  0  0  0  0  0  0  0
   20.9060   18.7499   20.9154 H   0  0  0  0  0  0  0  0  0  0  0  0
   21.5124   20.0004   22.0305 H   0  0  0  0  0  0  0  0  0  0  0  0
   20.5637   17.2273   23.1326 O   0  0  0  0  0  0  0  0  0  0  0  0
   20.4905   16.8064   22.2505 H   0  0  0  0  0  0  0  0  0  0  0  0
  1  2  1  0  0  0  0
  1  3  1  0  0  0  0
  1  4  1  0  0  0  0
  4  5  1  0  0  0  0
  4  6  1  0  0  0  0
  4  7  1  0  0  0  0
  7  8  1  0  0  0  0
  1  9  1  0  0  0  0
  7  9  1  0  0  0  0
  9 10  1  0  0  0  0
  9 11  1  0  0  0  0
  7 12  1  0  0  0  0
 12 13  1  0  0  0  0
M  END
> <VConfSearch Rank>
269

> <Conf_Id>
24

> <Delta U+W>
0.356

> <U+W>
-2.775

> <U>
-0.184

> <W>
-2.591

> <W(PB)>
-4.184

> <W(SA)>
1.593

> <Valence>
6.840

> <Coulomb>
-7.916

> <VdW>
0.893

> <VdW6>
-2.167

> <VdW12>
3.060

> <Bond>
0.059

> <Angle>
0.918

> <Pdih>
5.862

> <Idih>
0.000

> <Tether>
0.000

$$$$
VeraChem MOL file


 13 13  0  0  0  0  0  0  0  0999 V2000     
   20.8081   19.0920   22.3001 C   0  0  0  0  0  0  0  0  0  0  0  0
   21.6289   19.5384   22.8741 H   0  0  0  0  0  0  0  0  0  0  0  0
   21.2379   18.5256   21.4641 H   0  0  0  0  0  0  0  0  0  0  0  0
   19.6413   20.0594   21.9092 C   0  0  0  0  0  0  0  0  0  0  0  0
   19.4683   20.8731   22.6241 H   0  0  0  0  0  0  0  0  0  0  0  0
   19.6841   20.4854   20.9005 H   0  0  0  0  0  0  0  0  0  0  0  0
   18.6891   18.8374   22.0935 C   0  0  0  0  0  0  0  0  0  0  0  0
   17.7033   19.0802   22.5104 H   0  0  0  0  0  0  0  0  0  0  0  0
   19.7309   18.3205   23.1334 C   0  0  0  0  0  0  0  0  0  0  0  0
   19.5798   18.7079   24.1484 H   0  0  0  0  0  0  0  0  0  0  0  0
   19.8516   17.2329   23.1903 H   0  0  0  0  0  0  0  0  0  0  0  0
   18.5419   18.0243   20.9493 O   0  0  0  0  0  0  0  0  0  0  0  0
   19.4468   17.8409   20.6225 H   0  0  0  0  0  0  0  0  0  0  0  0
  1  2  1  0  0  0  0
  1  3  1  0  0  0  0
  1  4  1  0  0  0  0
  4  5  1  0  0  0  0
  4  6  1  0  0  0  0
  4  7  1  0  0  0  0
  7  8  1  0  0  0  0
  1  9  1  0  0  0  0
  7  9  1  0  0  0  0
  9 10  1  0  0  0  0
  9 11  1  0  0  0  0
  7 12  1  0  0  0  0
 12 13  1  0  0  0  0
M  END
> <VConfSearch Rank>
270

> <Conf_Id>
44

> <Delta U+W>
0.823

> <U+W>
-2.308

> <U>
0.039

> <W>
-2.348

> <W(PB)>
-3.918

> <W(SA)>
1.571

> <Valence>
7.320

> <Coulomb>
-8.530

> <VdW>
1.249

> <VdW6>
-2.615

> <VdW12>
3.864

> <Bond>
0.056

> <Angle>
0.694

> <Pdih>
6.570

> <Idih>
0.000

> <Tether>
0.000

$$$$
VeraChem MOL file


 13 13  0  0  0  0  0  0  0  0999 V2000     
   19.2912   20.2998   22.3907 C   0  0  0  0  0  0  0  0  0  0  0  0
   19.5787   20.7349   23.3569 H   0  0  0  0  0  0  0  0  0  0  0  0
   18.8049   21.0758   21.7877 H   0  0  0  0  0  0  0  0  0  0  0  0
   18.5378   18.9321   22.4872 C   0  0  0  0  0  0  0  0  0  0  0  0
   17.8979   18.7934   23.3654 H   0  0  0  0  0  0  0  0  0  0  0  0
   17.9705   18.6553   21.5899 H   0  0  0  0  0  0  0  0  0  0  0  0
   19.9573   18.2949   22.5757 C   0  0  0  0  0  0  0  0  0  0  0  0
   20.3858   18.3069   23.5872 H   0  0  0  0  0  0  0  0  0  0  0  0
   20.4195   19.4829   21.6788 C   0  0  0  0  0  0  0  0  0  0  0  0
   21.4446   19.8337   21.8413 H   0  0  0  0  0  0  0  0  0  0  0  0
   20.2650   19.3292   20.6035 H   0  0  0  0  0  0  0  0  0  0  0  0
   20.0812   17.0174   21.9949 O   0  0  0  0  0  0  0  0  0  0  0  0
   21.0383   16.8016   21.9690 H   0  0  0  0  0  0  0  0  0  0  0  0
  1  2  1  0  0  0  0
  1  3  1  0  0  0  0
  1  4  1  0  0  0  0
  4  5  1  0  0  0  0
  4  6  1  0  0  0  0
  4  7  1  0  0  0  0
  7  8  1  0  0  0  0
  1  9  1  0  0  0  0
  7  9  1  0  0  0  0
  9 10  1  0  0  0  0
  9 11  1  0  0  0  0
  7 12  1  0  0  0  0
 12 13  1  0  0  0  0
M  END
> <VConfSearch Rank>
271

> <Conf_Id>
22

> <Delta U+W>
0.000

> <U+W>
-3.131

> <U>
-0.154

> <W>
-2.978

> <W(PB)>
-4.579

> <W(SA)>
1.601

> <Valence>
6.333

> <Coulomb>
-7.439

> <VdW>
0.952

> <VdW6>
-2.120

> <VdW12>
3.072

> <Bond>
0.065

> <Angle>
0.931

> <Pdih>
5.338

> <Idih>
0.000

> <Tether>
0.000

$$$$
VeraChem MOL file


 13 13  0  0  0  0  0  0  0  0999 V2000     
   20.2377   20.0882   22.3871 C   0  0  0  0  0  0  0  0  0  0  0  0
   20.9677   20.1024   23.2071 H   0  0  0  0  0  0  0  0  0  0  0  0
   20.1893   21.0899   21.9437 H   0  0  0  0  0  0  0  0  0  0  0  0
   18.8652   19.4277   22.7439 C   0  0  0  0  0  0  0  0  0  0  0  0
   18.0403   19.6932   22.0710 H   0  0  0  0  0  0  0  0  0  0  0  0
   18.5277   19.5462   23.7794 H   0  0  0  0  0  0  0  0  0  0  0  0
   19.5660   18.0768   22.4076 C   0  0  0  0  0  0  0  0  0  0  0  0
   20.1592   17.6640   23.2351 H   0  0  0  0  0  0  0  0  0  0  0  0
   20.4040   18.8999   21.3834 C   0  0  0  0  0  0  0  0  0  0  0  0
   19.9167   19.0472   20.4116 H   0  0  0  0  0  0  0  0  0  0  0  0
   21.4280   18.5491   21.2146 H   0  0  0  0  0  0  0  0  0  0  0  0
   18.7327   17.0884   21.8478 O   0  0  0  0  0  0  0  0  0  0  0  0
   18.1476   16.7614   22.5648 H   0  0  0  0  0  0  0  0  0  0  0  0
  1  2  1  0  0  0  0
  1  3  1  0  0  0  0
  1  4  1  0  0  0  0
  4  5  1  0  0  0  0
  4  6  1  0  0  0  0
  4  7  1  0  0  0  0
  7  8  1  0  0  0  0
  1  9  1  0  0  0  0
  7  9  1  0  0  0  0
  9 10  1  0  0  0  0
  9 11  1  0  0  0  0
  7 12  1  0  0  0  0
 12 13  1  0  0  0  0
M  END
> <VConfSearch Rank>
272

> <Conf_Id>
19

> <Delta U+W>
-0.011

> <U+W>
-3.142

> <U>
-0.154

> <W>
-2.989

> <W(PB)>
-4.588

> <W(SA)>
1.599

> <Valence>
6.334

> <Coulomb>
-7.439

> <VdW>
0.951

> <VdW6>
-2.120

> <VdW12>
3.072

> <Bond>
0.065

> <Angle>
0.930

> <Pdih>
5.339

> <Idih>
0.000

> <Tether>
0.000

$$$$
VeraChem MOL file


 13 13  0  0  0  0  0  0  0  0999 V2000     
   18.8579   20.0114   22.2523 C   0  0  0  0  0  0  0  0  0  0  0  0
   18.6948   21.0256   21.8691 H   0  0  0  0  0  0  0  0  0  0  0  0
   17.9521   19.6855   22.7800 H   0  0  0  0  0  0  0  0  0  0  0  0
   20.1888   19.7797   23.0424 C   0  0  0  0  0  0  0  0  0  0  0  0
   21.0278   20.4047   22.7135 H   0  0  0  0  0  0  0  0  0  0  0  0
   20.1163   19.8363   24.1341 H   0  0  0  0  0  0  0  0  0  0  0  0
   20.1869   18.3415   22.4365 C   0  0  0  0  0  0  0  0  0  0  0  0
   21.1819   17.9456   22.1958 H   0  0  0  0  0  0  0  0  0  0  0  0
   19.4242   18.9715   21.2292 C   0  0  0  0  0  0  0  0  0  0  0  0
   18.6851   18.3278   20.7397 H   0  0  0  0  0  0  0  0  0  0  0  0
   20.0778   19.4010   20.4602 H   0  0  0  0  0  0  0  0  0  0  0  0
   19.4516   17.3861   23.1746 O   0  0  0  0  0  0  0  0  0  0  0  0
   19.3764   16.5829   22.6166 H   0  0  0  0  0  0  0  0  0  0  0  0
  1  2  1  0  0  0  0
  1  3  1  0  0  0  0
  1  4  1  0  0  0  0
  4  5  1  0  0  0  0
  4  6  1  0  0  0  0
  4  7  1  0  0  0  0
  7  8  1  0  0  0  0
  1  9  1  0  0  0  0
  7  9  1  0  0  0  0
  9 10  1  0  0  0  0
  9 11  1  0  0  0  0
  7 12  1  0  0  0  0
 12 13  1  0  0  0  0
M  END
> <VConfSearch Rank>
273

> <Conf_Id>
20

> <Delta U+W>
1.030

> <U+W>
-2.101

> <U>
0.841

> <W>
-2.942

> <W(PB)>
-4.530

> <W(SA)>
1.587

> <Valence>
6.736

> <Coulomb>
-7.246

> <VdW>
1.352

> <VdW6>
-2.500

> <VdW12>
3.851

> <Bond>
0.063

> <Angle>
0.687

> <Pdih>
5.986

> <Idih>
0.000

> <Tether>
0.000

$$$$
VeraChem MOL file


 13 13  0  0  0  0  0  0  0  0999 V2000     
   18.5119   18.6230   22.3060 C   0  0  0  0  0  0  0  0  0  0  0  0
   17.8589   18.8203   21.4456 H   0  0  0  0  0  0  0  0  0  0  0  0
   17.9147   18.1576   23.0992 H   0  0  0  0  0  0  0  0  0  0  0  0
   19.4067   19.8312   22.7385 C   0  0  0  0  0  0  0  0  0  0  0  0
   18.9771   20.8277   22.5875 H   0  0  0  0  0  0  0  0  0  0  0  0
   19.7977   19.7678   23.7615 H   0  0  0  0  0  0  0  0  0  0  0  0
   20.3883   19.3425   21.6310 C   0  0  0  0  0  0  0  0  0  0  0  0
   20.1305   19.6937   20.6225 H   0  0  0  0  0  0  0  0  0  0  0  0
   19.8604   17.9121   21.9542 C   0  0  0  0  0  0  0  0  0  0  0  0
   20.3527   17.4198   22.8019 H   0  0  0  0  0  0  0  0  0  0  0  0
   19.8315   17.2138   21.1106 H   0  0  0  0  0  0  0  0  0  0  0  0
   21.7541   19.5569   21.8963 O   0  0  0  0  0  0  0  0  0  0  0  0
   21.9239   19.2264   22.8033 H   0  0  0  0  0  0  0  0  0  0  0  0
  1  2  1  0  0  0  0
  1  3  1  0  0  0  0
  1  4  1  0  0  0  0
  4  5  1  0  0  0  0
  4  6  1  0  0  0  0
  4  7  1  0  0  0  0
  7  8  1  0  0  0  0
  1  9  1  0  0  0  0
  7  9  1  0  0  0  0
  9 10  1  0  0  0  0
  9 11  1  0  0  0  0
  7 12  1  0  0  0  0
 12 13  1  0  0  0  0
M  END
> <VConfSearch Rank>
274

> <Conf_Id>
24

> <Delta U+W>
0.356

> <U+W>
-2.775

> <U>
-0.184

> <W>
-2.591

> <W(PB)>
-4.184

> <W(SA)>
1.593

> <Valence>
6.840

> <Coulomb>
-7.916

> <VdW>
0.893

> <VdW6>
-2.167

> <VdW12>
3.060

> <Bond>
0.059

> <Angle>
0.918

> <Pdih>
5.862

> <Idih>
0.000

> <Tether>
0.000

$$$$
VeraChem MOL file


 13 13  0  0  0  0  0  0  0  0999 V2000     
   19.2412   18.9275   21.1798 C   0  0  0  0  0  0  0  0  0  0  0  0
   18.8818   19.5072   20.3211 H   0  0  0  0  0  0  0  0  0  0  0  0
   19.1127   17.8609   20.9560 H   0  0  0  0  0  0  0  0  0  0  0  0
   18.7051   19.3757   22.5804 C   0  0  0  0  0  0  0  0  0  0  0  0
   18.4857   20.4474   22.6602 H   0  0  0  0  0  0  0  0  0  0  0  0
   17.8491   18.8150   22.9723 H   0  0  0  0  0  0  0  0  0  0  0  0
   20.1021   18.9685   23.1432 C   0  0  0  0  0  0  0  0  0  0  0  0
   20.4756   19.6062   23.9546 H   0  0  0  0  0  0  0  0  0  0  0  0
   20.6542   19.3200   21.7270 C   0  0  0  0  0  0  0  0  0  0  0  0
   20.9127   20.3780   21.5975 H   0  0  0  0  0  0  0  0  0  0  0  0
   21.4947   18.7108   21.3759 H   0  0  0  0  0  0  0  0  0  0  0  0
   20.2213   17.6094   23.5041 O   0  0  0  0  0  0  0  0  0  0  0  0
   19.8755   17.0915   22.7481 H   0  0  0  0  0  0  0  0  0  0  0  0
  1  2  1  0  0  0  0
  1  3  1  0  0  0  0
  1  4  1  0  0  0  0
  4  5  1  0  0  0  0
  4  6  1  0  0  0  0
  4  7  1  0  0  0  0
  7  8  1  0  0  0  0
  1  9  1  0  0  0  0
  7  9  1  0  0  0  0
  9 10  1  0  0  0  0
  9 11  1  0  0  0  0
  7 12  1  0  0  0  0
 12 13  1  0  0  0  0
M  END
> <VConfSearch Rank>
275

> <Conf_Id>
44

> <Delta U+W>
0.823

> <U+W>
-2.308

> <U>
0.039

> <W>
-2.348

> <W(PB)>
-3.918

> <W(SA)>
1.571

> <Valence>
7.320

> <Coulomb>
-8.530

> <VdW>
1.249

> <VdW6>
-2.615

> <VdW12>
3.864

> <Bond>
0.056

> <Angle>
0.694

> <Pdih>
6.570

> <Idih>
0.000

> <Tether>
0.000

$$$$
VeraChem MOL file


 13 13  0  0  0  0  0  0  0  0999 V2000     
   20.3197   20.1728   22.4455 C   0  0  0  0  0  0  0  0  0  0  0  0
   21.3045   20.1987   21.9608 H   0  0  0  0  0  0  0  0  0  0  0  0
   20.1392   21.1425   22.9244 H   0  0  0  0  0  0  0  0  0  0  0  0
   20.0594   18.9100   23.3315 C   0  0  0  0  0  0  0  0  0  0  0  0
   20.9332   18.4861   23.8381 H   0  0  0  0  0  0  0  0  0  0  0  0
   19.2472   19.0196   24.0609 H   0  0  0  0  0  0  0  0  0  0  0  0
   19.6428   18.2127   22.0014 C   0  0  0  0  0  0  0  0  0  0  0  0
   20.4905   17.8224   21.4217 H   0  0  0  0  0  0  0  0  0  0  0  0
   19.1623   19.6241   21.5474 C   0  0  0  0  0  0  0  0  0  0  0  0
   19.2428   19.8343   20.4752 H   0  0  0  0  0  0  0  0  0  0  0  0
   18.1536   19.8927   21.8852 H   0  0  0  0  0  0  0  0  0  0  0  0
   18.6299   17.2411   22.1223 O   0  0  0  0  0  0  0  0  0  0  0  0
   18.3476   17.0009   21.2136 H   0  0  0  0  0  0  0  0  0  0  0  0
  1  2  1  0  0  0  0
  1  3  1  0  0  0  0
  1  4  1  0  0  0  0
  4  5  1  0  0  0  0
  4  6  1  0  0  0  0
  4  7  1  0  0  0  0
  7  8  1  0  0  0  0
  1  9  1  0  0  0  0
  7  9  1  0  0  0  0
  9 10  1  0  0  0  0
  9 11  1  0  0  0  0
  7 12  1  0  0  0  0
 12 13  1  0  0  0  0
M  END
> <VConfSearch Rank>
276

> <Conf_Id>
22

> <Delta U+W>
0.000

> <U+W>
-3.131

> <U>
-0.154

> <W>
-2.978

> <W(PB)>
-4.579

> <W(SA)>
1.601

> <Valence>
6.333

> <Coulomb>
-7.439

> <VdW>
0.952

> <VdW6>
-2.120

> <VdW12>
3.072

> <Bond>
0.065

> <Angle>
0.931

> <Pdih>
5.338

> <Idih>
0.000

> <Tether>
0.000

$$$$
VeraChem MOL file


 13 13  0  0  0  0  0  0  0  0999 V2000     
   18.9612   18.7419   21.1229 C   0  0  0  0  0  0  0  0  0  0  0  0
   19.4837   19.1245   20.2362 H   0  0  0  0  0  0  0  0  0  0  0  0
   17.9843   18.3521   20.8131 H   0  0  0  0  0  0  0  0  0  0  0  0
   18.9560   19.7130   22.3494 C   0  0  0  0  0  0  0  0  0  0  0  0
   18.1848   19.4990   23.0999 H   0  0  0  0  0  0  0  0  0  0  0  0
   18.9345   20.7833   22.1169 H   0  0  0  0  0  0  0  0  0  0  0  0
   20.3586   19.1157   22.6738 C   0  0  0  0  0  0  0  0  0  0  0  0
   21.1810   19.5777   22.1107 H   0  0  0  0  0  0  0  0  0  0  0  0
   19.8188   17.8017   22.0329 C   0  0  0  0  0  0  0  0  0  0  0  0
   19.2388   17.1681   22.7153 H   0  0  0  0  0  0  0  0  0  0  0  0
   20.5625   17.1806   21.5218 H   0  0  0  0  0  0  0  0  0  0  0  0
   20.6756   19.0315   24.0438 O   0  0  0  0  0  0  0  0  0  0  0  0
   20.8424   19.9454   24.3603 H   0  0  0  0  0  0  0  0  0  0  0  0
  1  2  1  0  0  0  0
  1  3  1  0  0  0  0
  1  4  1  0  0  0  0
  4  5  1  0  0  0  0
  4  6  1  0  0  0  0
  4  7  1  0  0  0  0
  7  8  1  0  0  0  0
  1  9  1  0  0  0  0
  7  9  1  0  0  0  0
  9 10  1  0  0  0  0
  9 11  1  0  0  0  0
  7 12  1  0  0  0  0
 12 13  1  0  0  0  0
M  END
> <VConfSearch Rank>
277

> <Conf_Id>
19

> <Delta U+W>
-0.011

> <U+W>
-3.142

> <U>
-0.154

> <W>
-2.989

> <W(PB)>
-4.588

> <W(SA)>
1.599

> <Valence>
6.334

> <Coulomb>
-7.439

> <VdW>
0.951

> <VdW6>
-2.120

> <VdW12>
3.072

> <Bond>
0.065

> <Angle>
0.930

> <Pdih>
5.339

> <Idih>
0.000

> <Tether>
0.000

$$$$
VeraChem MOL file


 13 13  0  0  0  0  0  0  0  0999 V2000     
   19.8089   17.8418   22.4121 C   0  0  0  0  0  0  0  0  0  0  0  0
   19.6528   16.9758   23.0661 H   0  0  0  0  0  0  0  0  0  0  0  0
   20.2511   17.4945   21.4692 H   0  0  0  0  0  0  0  0  0  0  0  0
   20.5348   19.0693   23.0566 C   0  0  0  0  0  0  0  0  0  0  0  0
   20.3511   19.1941   24.1306 H   0  0  0  0  0  0  0  0  0  0  0  0
   21.6129   19.1407   22.8748 H   0  0  0  0  0  0  0  0  0  0  0  0
   19.6332   19.9600   22.1460 C   0  0  0  0  0  0  0  0  0  0  0  0
   19.3161   20.9065   22.6024 H   0  0  0  0  0  0  0  0  0  0  0  0
   18.5876   18.8052   22.2418 C   0  0  0  0  0  0  0  0  0  0  0  0
   17.9685   18.6433   21.3525 H   0  0  0  0  0  0  0  0  0  0  0  0
   17.9314   18.8654   23.1186 H   0  0  0  0  0  0  0  0  0  0  0  0
   20.1457   20.1957   20.8498 O   0  0  0  0  0  0  0  0  0  0  0  0
   19.4275   20.6076   20.3238 H   0  0  0  0  0  0  0  0  0  0  0  0
  1  2  1  0  0  0  0
  1  3  1  0  0  0  0
  1  4  1  0  0  0  0
  4  5  1  0  0  0  0
  4  6  1  0  0  0  0
  4  7  1  0  0  0  0
  7  8  1  0  0  0  0
  1  9  1  0  0  0  0
  7  9  1  0  0  0  0
  9 10  1  0  0  0  0
  9 11  1  0  0  0  0
  7 12  1  0  0  0  0
 12 13  1  0  0  0  0
M  END
> <VConfSearch Rank>
278

> <Conf_Id>
20

> <Delta U+W>
1.030

> <U+W>
-2.101

> <U>
0.841

> <W>
-2.942

> <W(PB)>
-4.530

> <W(SA)>
1.587

> <Valence>
6.736

> <Coulomb>
-7.246

> <VdW>
1.352

> <VdW6>
-2.500

> <VdW12>
3.851

> <Bond>
0.063

> <Angle>
0.687

> <Pdih>
5.986

> <Idih>
0.000

> <Tether>
0.000

$$$$
VeraChem MOL file


 13 13  0  0  0  0  0  0  0  0999 V2000     
   20.9005   19.5007   22.1015 C   0  0  0  0  0  0  0  0  0  0  0  0
   20.9613   20.5944   22.1765 H   0  0  0  0  0  0  0  0  0  0  0  0
   21.9098   19.1044   21.9382 H   0  0  0  0  0  0  0  0  0  0  0  0
   19.7900   18.9721   21.1346 C   0  0  0  0  0  0  0  0  0  0  0  0
   19.5712   19.5990   20.2631 H   0  0  0  0  0  0  0  0  0  0  0  0
   19.9313   17.9378   20.7975 H   0  0  0  0  0  0  0  0  0  0  0  0
   18.8261   19.1395   22.3478 C   0  0  0  0  0  0  0  0  0  0  0  0
   18.4464   20.1624   22.4755 H   0  0  0  0  0  0  0  0  0  0  0  0
   20.0669   18.8129   23.2326 C   0  0  0  0  0  0  0  0  0  0  0  0
   20.2700   17.7430   23.3645 H   0  0  0  0  0  0  0  0  0  0  0  0
   20.0926   19.2991   24.2140 H   0  0  0  0  0  0  0  0  0  0  0  0
   17.7729   18.2079   22.4160 O   0  0  0  0  0  0  0  0  0  0  0  0
   18.1696   17.3196   22.2963 H   0  0  0  0  0  0  0  0  0  0  0  0
  1  2  1  0  0  0  0
  1  3  1  0  0  0  0
  1  4  1  0  0  0  0
  4  5  1  0  0  0  0
  4  6  1  0  0  0  0
  4  7  1  0  0  0  0
  7  8  1  0  0  0  0
  1  9  1  0  0  0  0
  7  9  1  0  0  0  0
  9 10  1  0  0  0  0
  9 11  1  0  0  0  0
  7 12  1  0  0  0  0
 12 13  1  0  0  0  0
M  END
> <VConfSearch Rank>
279

> <Conf_Id>
24

> <Delta U+W>
0.356

> <U+W>
-2.775

> <U>
-0.184

> <W>
-2.591

> <W(PB)>
-4.184

> <W(SA)>
1.593

> <Valence>
6.840

> <Coulomb>
-7.916

> <VdW>
0.893

> <VdW6>
-2.167

> <VdW12>
3.060

> <Bond>
0.059

> <Angle>
0.918

> <Pdih>
5.862

> <Idih>
0.000

> <Tether>
0.000

$$$$
VeraChem MOL file


 13 13  0  0  0  0  0  0  0  0999 V2000     
   19.7928   18.9798   23.3300 C   0  0  0  0  0  0  0  0  0  0  0  0
   20.1537   19.5339   24.2047 H   0  0  0  0  0  0  0  0  0  0  0  0
   19.3374   18.0434   23.6765 H   0  0  0  0  0  0  0  0  0  0  0  0
   20.8123   18.8201   22.1530 C   0  0  0  0  0  0  0  0  0  0  0  0
   21.5267   19.6467   22.0567 H   0  0  0  0  0  0  0  0  0  0  0  0
   21.3663   17.8753   22.1184 H   0  0  0  0  0  0  0  0  0  0  0  0
   19.5843   18.9257   21.1965 C   0  0  0  0  0  0  0  0  0  0  0  0
   19.7782   19.4543   20.2544 H   0  0  0  0  0  0  0  0  0  0  0  0
   18.9274   19.7958   22.3125 C   0  0  0  0  0  0  0  0  0  0  0  0
   19.1797   20.8617   22.2553 H   0  0  0  0  0  0  0  0  0  0  0  0
   17.8408   19.7004   22.4167 H   0  0  0  0  0  0  0  0  0  0  0  0
   18.9293   17.7028   20.9375 O   0  0  0  0  0  0  0  0  0  0  0  0
   18.7831   17.2780   21.8078 H   0  0  0  0  0  0  0  0  0  0  0  0
  1  2  1  0  0  0  0
  1  3  1  0  0  0  0
  1  4  1  0  0  0  0
  4  5  1  0  0  0  0
  4  6  1  0  0  0  0
  4  7  1  0  0  0  0
  7  8  1  0  0  0  0
  1  9  1  0  0  0  0
  7  9  1  0  0  0  0
  9 10  1  0  0  0  0
  9 11  1  0  0  0  0
  7 12  1  0  0  0  0
 12 13  1  0  0  0  0
M  END
> <VConfSearch Rank>
280

> <Conf_Id>
44

> <Delta U+W>
0.823

> <U+W>
-2.308

> <U>
0.039

> <W>
-2.348

> <W(PB)>
-3.918

> <W(SA)>
1.571

> <Valence>
7.320

> <Coulomb>
-8.530

> <VdW>
1.249

> <VdW6>
-2.615

> <VdW12>
3.864

> <Bond>
0.056

> <Angle>
0.694

> <Pdih>
6.570

> <Idih>
0.000

> <Tether>
0.000

$$$$
VeraChem MOL file


 13 13  0  0  0  0  0  0  0  0999 V2000     
   20.7094   18.9216   21.4482 C   0  0  0  0  0  0  0  0  0  0  0  0
   21.6692   19.0990   21.9512 H   0  0  0  0  0  0  0  0  0  0  0  0
   20.9065   18.6371   20.4077 H   0  0  0  0  0  0  0  0  0  0  0  0
   19.6408   20.0437   21.6630 C   0  0  0  0  0  0  0  0  0  0  0  0
   20.0253   21.0637   21.7704 H   0  0  0  0  0  0  0  0  0  0  0  0
   18.8259   20.0492   20.9285 H   0  0  0  0  0  0  0  0  0  0  0  0
   19.3066   19.3021   22.9924 C   0  0  0  0  0  0  0  0  0  0  0  0
   19.9741   19.5632   23.8250 H   0  0  0  0  0  0  0  0  0  0  0  0
   19.7176   18.0031   22.2356 C   0  0  0  0  0  0  0  0  0  0  0  0
   20.1718   17.2165   22.8481 H   0  0  0  0  0  0  0  0  0  0  0  0
   18.9210   17.5598   21.6251 H   0  0  0  0  0  0  0  0  0  0  0  0
   17.9578   19.3644   23.3942 O   0  0  0  0  0  0  0  0  0  0  0  0
   17.8468   18.7345   24.1386 H   0  0  0  0  0  0  0  0  0  0  0  0
  1  2  1  0  0  0  0
  1  3  1  0  0  0  0
  1  4  1  0  0  0  0
  4  5  1  0  0  0  0
  4  6  1  0  0  0  0
  4  7  1  0  0  0  0
  7  8  1  0  0  0  0
  1  9  1  0  0  0  0
  7  9  1  0  0  0  0
  9 10  1  0  0  0  0
  9 11  1  0  0  0  0
  7 12  1  0  0  0  0
 12 13  1  0  0  0  0
M  END
> <VConfSearch Rank>
281

> <Conf_Id>
22

> <Delta U+W>
0.000

> <U+W>
-3.131

> <U>
-0.154

> <W>
-2.978

> <W(PB)>
-4.579

> <W(SA)>
1.601

> <Valence>
6.333

> <Coulomb>
-7.439

> <VdW>
0.952

> <VdW6>
-2.120

> <VdW12>
3.072

> <Bond>
0.065

> <Angle>
0.931

> <Pdih>
5.338

> <Idih>
0.000

> <Tether>
0.000

$$$$
VeraChem MOL file


 13 13  0  0  0  0  0  0  0  0999 V2000     
   18.6970   18.3413   22.9743 C   0  0  0  0  0  0  0  0  0  0  0  0
   17.8525   17.9647   22.3824 H   0  0  0  0  0  0  0  0  0  0  0  0
   18.4890   18.1612   24.0357 H   0  0  0  0  0  0  0  0  0  0  0  0
   19.1647   19.7869   22.6015 C   0  0  0  0  0  0  0  0  0  0  0  0
   19.7623   20.2883   23.3731 H   0  0  0  0  0  0  0  0  0  0  0  0
   18.3827   20.4736   22.2594 H   0  0  0  0  0  0  0  0  0  0  0  0
   20.0008   19.0965   21.4819 C   0  0  0  0  0  0  0  0  0  0  0  0
   19.4290   18.8760   20.5701 H   0  0  0  0  0  0  0  0  0  0  0  0
   20.1059   17.8913   22.4644 C   0  0  0  0  0  0  0  0  0  0  0  0
   20.9115   17.9769   23.2041 H   0  0  0  0  0  0  0  0  0  0  0  0
   20.1582   16.9009   21.9994 H   0  0  0  0  0  0  0  0  0  0  0  0
   21.2217   19.7250   21.1670 O   0  0  0  0  0  0  0  0  0  0  0  0
   21.0068   20.5517   20.6837 H   0  0  0  0  0  0  0  0  0  0  0  0
  1  2  1  0  0  0  0
  1  3  1  0  0  0  0
  1  4  1  0  0  0  0
  4  5  1  0  0  0  0
  4  6  1  0  0  0  0
  4  7  1  0  0  0  0
  7  8  1  0  0  0  0
  1  9  1  0  0  0  0
  7  9  1  0  0  0  0
  9 10  1  0  0  0  0
  9 11  1  0  0  0  0
  7 12  1  0  0  0  0
 12 13  1  0  0  0  0
M  END
> <VConfSearch Rank>
282

> <Conf_Id>
19

> <Delta U+W>
-0.011

> <U+W>
-3.142

> <U>
-0.154

> <W>
-2.989

> <W(PB)>
-4.588

> <W(SA)>
1.599

> <Valence>
6.334

> <Coulomb>
-7.439

> <VdW>
0.951

> <VdW6>
-2.120

> <VdW12>
3.072

> <Bond>
0.065

> <Angle>
0.930

> <Pdih>
5.339

> <Idih>
0.000

> <Tether>
0.000

$$$$
VeraChem MOL file


 13 13  0  0  0  0  0  0  0  0999 V2000     
   20.5176   19.8640   22.0017 C   0  0  0  0  0  0  0  0  0  0  0  0
   21.4226   20.0390   21.4082 H   0  0  0  0  0  0  0  0  0  0  0  0
   20.2518   20.7950   22.5193 H   0  0  0  0  0  0  0  0  0  0  0  0
   20.5281   18.5933   22.9149 C   0  0  0  0  0  0  0  0  0  0  0  0
   21.1225   17.7580   22.5255 H   0  0  0  0  0  0  0  0  0  0  0  0
   20.7987   18.7569   23.9639 H   0  0  0  0  0  0  0  0  0  0  0  0
   18.9999   18.4838   22.6182 C   0  0  0  0  0  0  0  0  0  0  0  0
   18.6229   17.4562   22.5351 H   0  0  0  0  0  0  0  0  0  0  0  0
   19.3284   19.1719   21.2563 C   0  0  0  0  0  0  0  0  0  0  0  0
   18.5571   19.8402   20.8579 H   0  0  0  0  0  0  0  0  0  0  0  0
   19.6323   18.4770   20.4640 H   0  0  0  0  0  0  0  0  0  0  0  0
   18.1709   19.2349   23.4822 O   0  0  0  0  0  0  0  0  0  0  0  0
   17.2689   19.2296   23.0969 H   0  0  0  0  0  0  0  0  0  0  0  0
  1  2  1  0  0  0  0
  1  3  1  0  0  0  0
  1  4  1  0  0  0  0
  4  5  1  0  0  0  0
  4  6  1  0  0  0  0
  4  7  1  0  0  0  0
  7  8  1  0  0  0  0
  1  9  1  0  0  0  0
  7  9  1  0  0  0  0
  9 10  1  0  0  0  0
  9 11  1  0  0  0  0
  7 12  1  0  0  0  0
 12 13  1  0  0  0  0
M  END
> <VConfSearch Rank>
283

> <Conf_Id>
20

> <Delta U+W>
1.030

> <U+W>
-2.101

> <U>
0.841

> <W>
-2.942

> <W(PB)>
-4.530

> <W(SA)>
1.587

> <Valence>
6.736

> <Coulomb>
-7.246

> <VdW>
1.352

> <VdW6>
-2.500

> <VdW12>
3.851

> <Bond>
0.063

> <Angle>
0.687

> <Pdih>
5.986

> <Idih>
0.000

> <Tether>
0.000

$$$$
VeraChem MOL file


 13 13  0  0  0  0  0  0  0  0999 V2000     
   19.1083   18.8132   23.3146 C   0  0  0  0  0  0  0  0  0  0  0  0
   19.5327   19.2713   24.2178 H   0  0  0  0  0  0  0  0  0  0  0  0
   18.1732   18.3081   23.5848 H   0  0  0  0  0  0  0  0  0  0  0  0
   20.1223   17.9751   22.4681 C   0  0  0  0  0  0  0  0  0  0  0  0
   20.9111   17.4624   23.0296 H   0  0  0  0  0  0  0  0  0  0  0  0
   19.6599   17.2592   21.7775 H   0  0  0  0  0  0  0  0  0  0  0  0
   20.5244   19.3374   21.8267 C   0  0  0  0  0  0  0  0  0  0  0  0
   21.2520   19.9094   22.4185 H   0  0  0  0  0  0  0  0  0  0  0  0
   19.0438   19.7589   22.0701 C   0  0  0  0  0  0  0  0  0  0  0  0
   18.3402   19.4417   21.2905 H   0  0  0  0  0  0  0  0  0  0  0  0
   18.8801   20.8216   22.2801 H   0  0  0  0  0  0  0  0  0  0  0  0
   20.9215   19.2765   20.4775 O   0  0  0  0  0  0  0  0  0  0  0  0
   20.2390   18.7578   20.0023 H   0  0  0  0  0  0  0  0  0  0  0  0
  1  2  1  0  0  0  0
  1  3  1  0  0  0  0
  1  4  1  0  0  0  0
  4  5  1  0  0  0  0
  4  6  1  0  0  0  0
  4  7  1  0  0  0  0
  7  8  1  0  0  0  0
  1  9  1  0  0  0  0
  7  9  1  0  0  0  0
  9 10  1  0  0  0  0
  9 11  1  0  0  0  0
  7 12  1  0  0  0  0
 12 13  1  0  0  0  0
M  END
> <VConfSearch Rank>
284

> <Conf_Id>
24

> <Delta U+W>
0.356

> <U+W>
-2.775

> <U>
-0.184

> <W>
-2.591

> <W(PB)>
-4.184

> <W(SA)>
1.593

> <Valence>
6.840

> <Coulomb>
-7.916

> <VdW>
0.893

> <VdW6>
-2.167

> <VdW12>
3.060

> <Bond>
0.059

> <Angle>
0.918

> <Pdih>
5.862

> <Idih>
0.000

> <Tether>
0.000

$$$$
VeraChem MOL file


 13 13  0  0  0  0  0  0  0  0999 V2000     
   20.3141   19.9059   22.1329 C   0  0  0  0  0  0  0  0  0  0  0  0
   20.3020   20.9995   22.0539 H   0  0  0  0  0  0  0  0  0  0  0  0
   21.3590   19.5706   22.1426 H   0  0  0  0  0  0  0  0  0  0  0  0
   19.3853   19.1376   21.1343 C   0  0  0  0  0  0  0  0  0  0  0  0
   18.4793   19.6843   20.8457 H   0  0  0  0  0  0  0  0  0  0  0  0
   19.8643   18.7538   20.2266 H   0  0  0  0  0  0  0  0  0  0  0  0
   19.1654   18.1011   22.2795 C   0  0  0  0  0  0  0  0  0  0  0  0
   18.1565   17.6715   22.3247 H   0  0  0  0  0  0  0  0  0  0  0  0
   19.4148   19.2912   23.2570 C   0  0  0  0  0  0  0  0  0  0  0  0
   18.5161   19.8756   23.4889 H   0  0  0  0  0  0  0  0  0  0  0  0
   19.9196   19.0412   24.1969 H   0  0  0  0  0  0  0  0  0  0  0  0
   20.1306   17.0733   22.3405 O   0  0  0  0  0  0  0  0  0  0  0  0
   21.0049   17.5124   22.2965 H   0  0  0  0  0  0  0  0  0  0  0  0
  1  2  1  0  0  0  0
  1  3  1  0  0  0  0
  1  4  1  0  0  0  0
  4  5  1  0  0  0  0
  4  6  1  0  0  0  0
  4  7  1  0  0  0  0
  7  8  1  0  0  0  0
  1  9  1  0  0  0  0
  7  9  1  0  0  0  0
  9 10  1  0  0  0  0
  9 11  1  0  0  0  0
  7 12  1  0  0  0  0
 12 13  1  0  0  0  0
M  END
> <VConfSearch Rank>
285

> <Conf_Id>
44

> <Delta U+W>
0.823

> <U+W>
-2.308

> <U>
0.039

> <W>
-2.348

> <W(PB)>
-3.918

> <W(SA)>
1.571

> <Valence>
7.320

> <Coulomb>
-8.530

> <VdW>
1.249

> <VdW6>
-2.615

> <VdW12>
3.864

> <Bond>
0.056

> <Angle>
0.694

> <Pdih>
6.570

> <Idih>
0.000

> <Tether>
0.000

$$$$
VeraChem MOL file


 13 13  0  0  0  0  0  0  0  0999 V2000     
   19.8344   18.6375   23.4929 C   0  0  0  0  0  0  0  0  0  0  0  0
   20.2068   19.4242   24.1622 H   0  0  0  0  0  0  0  0  0  0  0  0
   19.6567   17.7305   24.0830 H   0  0  0  0  0  0  0  0  0  0  0  0
   20.6618   18.4508   22.1784 C   0  0  0  0  0  0  0  0  0  0  0  0
   21.7369   18.6474   22.2516 H   0  0  0  0  0  0  0  0  0  0  0  0
   20.5125   17.4880   21.6740 H   0  0  0  0  0  0  0  0  0  0  0  0
   19.7967   19.6170   21.6123 C   0  0  0  0  0  0  0  0  0  0  0  0
   20.1652   20.6151   21.8863 H   0  0  0  0  0  0  0  0  0  0  0  0
   18.6702   19.0803   22.5463 C   0  0  0  0  0  0  0  0  0  0  0  0
   17.9826   19.8331   22.9471 H   0  0  0  0  0  0  0  0  0  0  0  0
   18.0834   18.2547   22.1247 H   0  0  0  0  0  0  0  0  0  0  0  0
   19.5202   19.5471   20.2328 O   0  0  0  0  0  0  0  0  0  0  0  0
   18.8453   20.2321   20.0365 H   0  0  0  0  0  0  0  0  0  0  0  0
  1  2  1  0  0  0  0
  1  3  1  0  0  0  0
  1  4  1  0  0  0  0
  4  5  1  0  0  0  0
  4  6  1  0  0  0  0
  4  7  1  0  0  0  0
  7  8  1  0  0  0  0
  1  9  1  0  0  0  0
  7  9  1  0  0  0  0
  9 10  1  0  0  0  0
  9 11  1  0  0  0  0
  7 12  1  0  0  0  0
 12 13  1  0  0  0  0
M  END
> <VConfSearch Rank>
286

> <Conf_Id>
22

> <Delta U+W>
0.000

> <U+W>
-3.131

> <U>
-0.154

> <W>
-2.978

> <W(PB)>
-4.579

> <W(SA)>
1.601

> <Valence>
6.333

> <Coulomb>
-7.439

> <VdW>
0.952

> <VdW6>
-2.120

> <VdW12>
3.072

> <Bond>
0.065

> <Angle>
0.931

> <Pdih>
5.338

> <Idih>
0.000

> <Tether>
0.000

$$$$
VeraChem MOL file


 13 13  0  0  0  0  0  0  0  0999 V2000     
   19.8220   19.6725   21.1751 C   0  0  0  0  0  0  0  0  0  0  0  0
   20.7531   19.4395   20.6419 H   0  0  0  0  0  0  0  0  0  0  0  0
   19.3340   20.5177   20.6753 H   0  0  0  0  0  0  0  0  0  0  0  0
   19.9676   19.7839   22.7287 C   0  0  0  0  0  0  0  0  0  0  0  0
   19.1530   20.3236   23.2277 H   0  0  0  0  0  0  0  0  0  0  0  0
   20.9243   20.1704   23.0969 H   0  0  0  0  0  0  0  0  0  0  0  0
   19.8143   18.2329   22.7324 C   0  0  0  0  0  0  0  0  0  0  0  0
   20.7479   17.6920   22.5251 H   0  0  0  0  0  0  0  0  0  0  0  0
   18.9135   18.4351   21.4768 C   0  0  0  0  0  0  0  0  0  0  0  0
   17.8674   18.6768   21.7022 H   0  0  0  0  0  0  0  0  0  0  0  0
   18.9371   17.6263   20.7384 H   0  0  0  0  0  0  0  0  0  0  0  0
   19.1638   17.6941   23.8598 O   0  0  0  0  0  0  0  0  0  0  0  0
   19.7838   17.7695   24.6168 H   0  0  0  0  0  0  0  0  0  0  0  0
  1  2  1  0  0  0  0
  1  3  1  0  0  0  0
  1  4  1  0  0  0  0
  4  5  1  0  0  0  0
  4  6  1  0  0  0  0
  4  7  1  0  0  0  0
  7  8  1  0  0  0  0
  1  9  1  0  0  0  0
  7  9  1  0  0  0  0
  9 10  1  0  0  0  0
  9 11  1  0  0  0  0
  7 12  1  0  0  0  0
 12 13  1  0  0  0  0
M  END
> <VConfSearch Rank>
287

> <Conf_Id>
19

> <Delta U+W>
-0.011

> <U+W>
-3.142

> <U>
-0.154

> <W>
-2.989

> <W(PB)>
-4.588

> <W(SA)>
1.599

> <Valence>
6.334

> <Coulomb>
-7.439

> <VdW>
0.951

> <VdW6>
-2.120

> <VdW12>
3.072

> <Bond>
0.065

> <Angle>
0.930

> <Pdih>
5.339

> <Idih>
0.000

> <Tether>
0.000

$$$$
VeraChem MOL file


 13 13  0  0  0  0  0  0  0  0999 V2000     
   19.7499   17.8864   21.9051 C   0  0  0  0  0  0  0  0  0  0  0  0
   20.4280   17.1480   21.4612 H   0  0  0  0  0  0  0  0  0  0  0  0
   18.8138   17.3829   22.1797 H   0  0  0  0  0  0  0  0  0  0  0  0
   19.5608   19.2169   21.1033 C   0  0  0  0  0  0  0  0  0  0  0  0
   20.4385   19.5276   20.5238 H   0  0  0  0  0  0  0  0  0  0  0  0
   18.6779   19.2676   20.4565 H   0  0  0  0  0  0  0  0  0  0  0  0
   19.4274   19.9219   22.4892 C   0  0  0  0  0  0  0  0  0  0  0  0
   19.8583   20.9305   22.5324 H   0  0  0  0  0  0  0  0  0  0  0  0
   20.3565   18.7901   23.0294 C   0  0  0  0  0  0  0  0  0  0  0  0
   20.1695   18.4662   24.0592 H   0  0  0  0  0  0  0  0  0  0  0  0
   21.4278   18.9969   22.9169 H   0  0  0  0  0  0  0  0  0  0  0  0
   18.1209   19.9305   23.0288 O   0  0  0  0  0  0  0  0  0  0  0  0
   18.1925   20.2344   23.9587 H   0  0  0  0  0  0  0  0  0  0  0  0
  1  2  1  0  0  0  0
  1  3  1  0  0  0  0
  1  4  1  0  0  0  0
  4  5  1  0  0  0  0
  4  6  1  0  0  0  0
  4  7  1  0  0  0  0
  7  8  1  0  0  0  0
  1  9  1  0  0  0  0
  7  9  1  0  0  0  0
  9 10  1  0  0  0  0
  9 11  1  0  0  0  0
  7 12  1  0  0  0  0
 12 13  1  0  0  0  0
M  END
> <VConfSearch Rank>
288

> <Conf_Id>
20

> <Delta U+W>
1.030

> <U+W>
-2.101

> <U>
0.841

> <W>
-2.942

> <W(PB)>
-4.530

> <W(SA)>
1.587

> <Valence>
6.736

> <Coulomb>
-7.246

> <VdW>
1.352

> <VdW6>
-2.500

> <VdW12>
3.851

> <Bond>
0.063

> <Angle>
0.687

> <Pdih>
5.986

> <Idih>
0.000

> <Tether>
0.000

$$$$
VeraChem MOL file


 13 13  0  0  0  0  0  0  0  0999 V2000     
   20.3435   19.9640   21.6970 C   0  0  0  0  0  0  0  0  0  0  0  0
   21.3611   20.1919   22.0408 H   0  0  0  0  0  0  0  0  0  0  0  0
   20.0551   20.7046   20.9416 H   0  0  0  0  0  0  0  0  0  0  0  0
   19.3077   19.7110   22.8419 C   0  0  0  0  0  0  0  0  0  0  0  0
   19.4651   20.2752   23.7677 H   0  0  0  0  0  0  0  0  0  0  0  0
   18.2581   19.8150   22.5404 H   0  0  0  0  0  0  0  0  0  0  0  0
   19.8476   18.2489   22.8403 C   0  0  0  0  0  0  0  0  0  0  0  0
   20.7653   18.1137   23.4288 H   0  0  0  0  0  0  0  0  0  0  0  0
   20.1016   18.4656   21.3179 C   0  0  0  0  0  0  0  0  0  0  0  0
   19.2294   18.2912   20.6758 H   0  0  0  0  0  0  0  0  0  0  0  0
   20.9600   17.9299   20.8978 H   0  0  0  0  0  0  0  0  0  0  0  0
   18.9029   17.2554   23.1601 O   0  0  0  0  0  0  0  0  0  0  0  0
   18.1112   17.4263   22.6080 H   0  0  0  0  0  0  0  0  0  0  0  0
  1  2  1  0  0  0  0
  1  3  1  0  0  0  0
  1  4  1  0  0  0  0
  4  5  1  0  0  0  0
  4  6  1  0  0  0  0
  4  7  1  0  0  0  0
  7  8  1  0  0  0  0
  1  9  1  0  0  0  0
  7  9  1  0  0  0  0
  9 10  1  0  0  0  0
  9 11  1  0  0  0  0
  7 12  1  0  0  0  0
 12 13  1  0  0  0  0
M  END
> <VConfSearch Rank>
289

> <Conf_Id>
24

> <Delta U+W>
0.356

> <U+W>
-2.775

> <U>
-0.184

> <W>
-2.591

> <W(PB)>
-4.184

> <W(SA)>
1.593

> <Valence>
6.840

> <Coulomb>
-7.916

> <VdW>
0.893

> <VdW6>
-2.167

> <VdW12>
3.060

> <Bond>
0.059

> <Angle>
0.918

> <Pdih>
5.862

> <Idih>
0.000

> <Tether>
0.000

$$$$
VeraChem MOL file


 13 13  0  0  0  0  0  0  0  0999 V2000     
   20.5316   19.5126   21.6903 C   0  0  0  0  0  0  0  0  0  0  0  0
   20.8543   20.0201   20.7734 H   0  0  0  0  0  0  0  0  0  0  0  0
   21.3606   19.5353   22.4090 H   0  0  0  0  0  0  0  0  0  0  0  0
   19.8656   18.1093   21.4975 C   0  0  0  0  0  0  0  0  0  0  0  0
   19.3219   17.9916   20.5522 H   0  0  0  0  0  0  0  0  0  0  0  0
   20.5201   17.2410   21.6331 H   0  0  0  0  0  0  0  0  0  0  0  0
   18.9578   18.4752   22.7124 C   0  0  0  0  0  0  0  0  0  0  0  0
   17.9277   18.1023   22.6466 H   0  0  0  0  0  0  0  0  0  0  0  0
   19.1469   19.9587   22.2681 C   0  0  0  0  0  0  0  0  0  0  0  0
   18.4270   20.2944   21.5117 H   0  0  0  0  0  0  0  0  0  0  0  0
   19.1759   20.7001   23.0744 H   0  0  0  0  0  0  0  0  0  0  0  0
   19.5046   18.1615   23.9751 O   0  0  0  0  0  0  0  0  0  0  0  0
   20.4177   18.5158   23.9764 H   0  0  0  0  0  0  0  0  0  0  0  0
  1  2  1  0  0  0  0
  1  3  1  0  0  0  0
  1  4  1  0  0  0  0
  4  5  1  0  0  0  0
  4  6  1  0  0  0  0
  4  7  1  0  0  0  0
  7  8  1  0  0  0  0
  1  9  1  0  0  0  0
  7  9  1  0  0  0  0
  9 10  1  0  0  0  0
  9 11  1  0  0  0  0
  7 12  1  0  0  0  0
 12 13  1  0  0  0  0
M  END
> <VConfSearch Rank>
290

> <Conf_Id>
44

> <Delta U+W>
0.823

> <U+W>
-2.308

> <U>
0.039

> <W>
-2.348

> <W(PB)>
-3.918

> <W(SA)>
1.571

> <Valence>
7.320

> <Coulomb>
-8.530

> <VdW>
1.249

> <VdW6>
-2.615

> <VdW12>
3.864

> <Bond>
0.056

> <Angle>
0.694

> <Pdih>
6.570

> <Idih>
0.000

> <Tether>
0.000

$$$$
VeraChem MOL file


 13 13  0  0  0  0  0  0  0  0999 V2000     
   19.9826   18.2589   21.2349 C   0  0  0  0  0  0  0  0  0  0  0  0
   19.2878   17.4196   21.0991 H   0  0  0  0  0  0  0  0  0  0  0  0
   20.7300   18.2282   20.4331 H   0  0  0  0  0  0  0  0  0  0  0  0
   20.5400   18.4186   22.6878 C   0  0  0  0  0  0  0  0  0  0  0  0
   20.6771   17.4932   23.2577 H   0  0  0  0  0  0  0  0  0  0  0  0
   21.4542   19.0200   22.7661 H   0  0  0  0  0  0  0  0  0  0  0  0
   19.2246   19.2032   22.9758 C   0  0  0  0  0  0  0  0  0  0  0  0
   18.3664   18.5583   23.2097 H   0  0  0  0  0  0  0  0  0  0  0  0
   19.2968   19.6430   21.4823 C   0  0  0  0  0  0  0  0  0  0  0  0
   18.3343   19.8004   20.9834 H   0  0  0  0  0  0  0  0  0  0  0  0
   19.9388   20.5126   21.2938 H   0  0  0  0  0  0  0  0  0  0  0  0
   19.3385   20.2451   23.9172 O   0  0  0  0  0  0  0  0  0  0  0  0
   18.5015   20.7567   23.8872 H   0  0  0  0  0  0  0  0  0  0  0  0
  1  2  1  0  0  0  0
  1  3  1  0  0  0  0
  1  4  1  0  0  0  0
  4  5  1  0  0  0  0
  4  6  1  0  0  0  0
  4  7  1  0  0  0  0
  7  8  1  0  0  0  0
  1  9  1  0  0  0  0
  7  9  1  0  0  0  0
  9 10  1  0  0  0  0
  9 11  1  0  0  0  0
  7 12  1  0  0  0  0
 12 13  1  0  0  0  0
M  END
> <VConfSearch Rank>
291

> <Conf_Id>
22

> <Delta U+W>
0.000

> <U+W>
-3.131

> <U>
-0.154

> <W>
-2.978

> <W(PB)>
-4.579

> <W(SA)>
1.601

> <Valence>
6.333

> <Coulomb>
-7.439

> <VdW>
0.952

> <VdW6>
-2.120

> <VdW12>
3.072

> <Bond>
0.065

> <Angle>
0.931

> <Pdih>
5.338

> <Idih>
0.000

> <Tether>
0.000

$$$$
VeraChem MOL file


 13 13  0  0  0  0  0  0  0  0999 V2000     
   20.2452   20.0215   22.6477 C   0  0  0  0  0  0  0  0  0  0  0  0
   19.5635   20.7847   23.0457 H   0  0  0  0  0  0  0  0  0  0  0  0
   21.2648   20.4249   22.6538 H   0  0  0  0  0  0  0  0  0  0  0  0
   19.7766   19.3585   21.3105 C   0  0  0  0  0  0  0  0  0  0  0  0
   20.5714   18.8562   20.7451 H   0  0  0  0  0  0  0  0  0  0  0  0
   19.2090   19.9998   20.6273 H   0  0  0  0  0  0  0  0  0  0  0  0
   18.9307   18.4140   22.2169 C   0  0  0  0  0  0  0  0  0  0  0  0
   17.9668   18.8398   22.5278 H   0  0  0  0  0  0  0  0  0  0  0  0
   20.0665   18.5966   23.2684 C   0  0  0  0  0  0  0  0  0  0  0  0
   20.9235   17.9253   23.1328 H   0  0  0  0  0  0  0  0  0  0  0  0
   19.7541   18.5619   24.3178 H   0  0  0  0  0  0  0  0  0  0  0  0
   18.7648   17.1020   21.7314 O   0  0  0  0  0  0  0  0  0  0  0  0
   18.1453   17.1494   20.9717 H   0  0  0  0  0  0  0  0  0  0  0  0
  1  2  1  0  0  0  0
  1  3  1  0  0  0  0
  1  4  1  0  0  0  0
  4  5  1  0  0  0  0
  4  6  1  0  0  0  0
  4  7  1  0  0  0  0
  7  8  1  0  0  0  0
  1  9  1  0  0  0  0
  7  9  1  0  0  0  0
  9 10  1  0  0  0  0
  9 11  1  0  0  0  0
  7 12  1  0  0  0  0
 12 13  1  0  0  0  0
M  END
> <VConfSearch Rank>
292

> <Conf_Id>
19

> <Delta U+W>
-0.011

> <U+W>
-3.142

> <U>
-0.154

> <W>
-2.989

> <W(PB)>
-4.588

> <W(SA)>
1.599

> <Valence>
6.334

> <Coulomb>
-7.439

> <VdW>
0.951

> <VdW6>
-2.120

> <VdW12>
3.072

> <Bond>
0.065

> <Angle>
0.930

> <Pdih>
5.339

> <Idih>
0.000

> <Tether>
0.000

$$$$
VeraChem MOL file


 13 13  0  0  0  0  0  0  0  0999 V2000     
   20.6971   19.6609   22.4048 C   0  0  0  0  0  0  0  0  0  0  0  0
   21.2178   20.4635   22.9403 H   0  0  0  0  0  0  0  0  0  0  0  0
   21.4171   19.1492   21.7528 H   0  0  0  0  0  0  0  0  0  0  0  0
   19.3551   20.0582   21.7047 C   0  0  0  0  0  0  0  0  0  0  0  0
   18.7998   20.8596   22.2068 H   0  0  0  0  0  0  0  0  0  0  0  0
   19.4208   20.2933   20.6366 H   0  0  0  0  0  0  0  0  0  0  0  0
   18.8580   18.6205   22.0530 C   0  0  0  0  0  0  0  0  0  0  0  0
   17.7923   18.5545   22.3074 H   0  0  0  0  0  0  0  0  0  0  0  0
   19.8191   18.7060   23.2799 C   0  0  0  0  0  0  0  0  0  0  0  0
   20.2909   17.7658   23.5863 H   0  0  0  0  0  0  0  0  0  0  0  0
   19.3765   19.1798   24.1645 H   0  0  0  0  0  0  0  0  0  0  0  0
   19.1906   17.6294   21.1017 O   0  0  0  0  0  0  0  0  0  0  0  0
   18.9867   16.7589   21.5053 H   0  0  0  0  0  0  0  0  0  0  0  0
  1  2  1  0  0  0  0
  1  3  1  0  0  0  0
  1  4  1  0  0  0  0
  4  5  1  0  0  0  0
  4  6  1  0  0  0  0
  4  7  1  0  0  0  0
  7  8  1  0  0  0  0
  1  9  1  0  0  0  0
  7  9  1  0  0  0  0
  9 10  1  0  0  0  0
  9 11  1  0  0  0  0
  7 12  1  0  0  0  0
 12 13  1  0  0  0  0
M  END
> <VConfSearch Rank>
293

> <Conf_Id>
20

> <Delta U+W>
1.030

> <U+W>
-2.101

> <U>
0.841

> <W>
-2.942

> <W(PB)>
-4.530

> <W(SA)>
1.587

> <Valence>
6.736

> <Coulomb>
-7.246

> <VdW>
1.352

> <VdW6>
-2.500

> <VdW12>
3.851

> <Bond>
0.063

> <Angle>
0.687

> <Pdih>
5.986

> <Idih>
0.000

> <Tether>
0.000

$$$$
VeraChem MOL file


 13 13  0  0  0  0  0  0  0  0999 V2000     
   20.5370   19.8186   21.6929 C   0  0  0  0  0  0  0  0  0  0  0  0
   21.5110   19.9807   22.1733 H   0  0  0  0  0  0  0  0  0  0  0  0
   20.4622   20.4800   20.8215 H   0  0  0  0  0  0  0  0  0  0  0  0
   19.3158   19.8294   22.6706 C   0  0  0  0  0  0  0  0  0  0  0  0
   19.4002   20.4904   23.5403 H   0  0  0  0  0  0  0  0  0  0  0  0
   18.3457   20.0035   22.1890 H   0  0  0  0  0  0  0  0  0  0  0  0
   19.6617   18.3308   22.9236 C   0  0  0  0  0  0  0  0  0  0  0  0
   20.4549   18.1776   23.6679 H   0  0  0  0  0  0  0  0  0  0  0  0
   20.1693   18.3176   21.4500 C   0  0  0  0  0  0  0  0  0  0  0  0
   19.3899   18.1538   20.6956 H   0  0  0  0  0  0  0  0  0  0  0  0
   21.0074   17.6435   21.2417 H   0  0  0  0  0  0  0  0  0  0  0  0
   18.5621   17.4936   23.1916 O   0  0  0  0  0  0  0  0  0  0  0  0
   17.8913   17.6734   22.4999 H   0  0  0  0  0  0  0  0  0  0  0  0
  1  2  1  0  0  0  0
  1  3  1  0  0  0  0
  1  4  1  0  0  0  0
  4  5  1  0  0  0  0
  4  6  1  0  0  0  0
  4  7  1  0  0  0  0
  7  8  1  0  0  0  0
  1  9  1  0  0  0  0
  7  9  1  0  0  0  0
  9 10  1  0  0  0  0
  9 11  1  0  0  0  0
  7 12  1  0  0  0  0
 12 13  1  0  0  0  0
M  END
> <VConfSearch Rank>
294

> <Conf_Id>
24

> <Delta U+W>
0.356

> <U+W>
-2.775

> <U>
-0.184

> <W>
-2.591

> <W(PB)>
-4.184

> <W(SA)>
1.593

> <Valence>
6.840

> <Coulomb>
-7.916

> <VdW>
0.893

> <VdW6>
-2.167

> <VdW12>
3.060

> <Bond>
0.059

> <Angle>
0.918

> <Pdih>
5.862

> <Idih>
0.000

> <Tether>
0.000

$$$$
VeraChem MOL file


 13 13  0  0  0  0  0  0  0  0999 V2000     
   19.2643   17.9311   22.2465 C   0  0  0  0  0  0  0  0  0  0  0  0
   18.3530   17.3277   22.3343 H   0  0  0  0  0  0  0  0  0  0  0  0
   20.1220   17.2523   22.1570 H   0  0  0  0  0  0  0  0  0  0  0  0
   19.4346   19.0713   23.3052 C   0  0  0  0  0  0  0  0  0  0  0  0
   18.4915   19.5013   23.6640 H   0  0  0  0  0  0  0  0  0  0  0  0
   20.0621   18.8361   24.1721 H   0  0  0  0  0  0  0  0  0  0  0  0
   20.1194   19.8961   22.1716 C   0  0  0  0  0  0  0  0  0  0  0  0
   19.9144   20.9739   22.1980 H   0  0  0  0  0  0  0  0  0  0  0  0
   19.2229   19.0828   21.1873 C   0  0  0  0  0  0  0  0  0  0  0  0
   18.2279   19.5156   21.0269 H   0  0  0  0  0  0  0  0  0  0  0  0
   19.6661   18.8575   20.2108 H   0  0  0  0  0  0  0  0  0  0  0  0
   21.5057   19.6719   22.0318 O   0  0  0  0  0  0  0  0  0  0  0  0
   21.6280   18.7003   22.0143 H   0  0  0  0  0  0  0  0  0  0  0  0
  1  2  1  0  0  0  0
  1  3  1  0  0  0  0
  1  4  1  0  0  0  0
  4  5  1  0  0  0  0
  4  6  1  0  0  0  0
  4  7  1  0  0  0  0
  7  8  1  0  0  0  0
  1  9  1  0  0  0  0
  7  9  1  0  0  0  0
  9 10  1  0  0  0  0
  9 11  1  0  0  0  0
  7 12  1  0  0  0  0
 12 13  1  0  0  0  0
M  END
> <VConfSearch Rank>
295

> <Conf_Id>
44

> <Delta U+W>
0.823

> <U+W>
-2.308

> <U>
0.039

> <W>
-2.348

> <W(PB)>
-3.918

> <W(SA)>
1.571

> <Valence>
7.320

> <Coulomb>
-8.530

> <VdW>
1.249

> <VdW6>
-2.615

> <VdW12>
3.864

> <Bond>
0.056

> <Angle>
0.694

> <Pdih>
6.570

> <Idih>
0.000

> <Tether>
0.000

$$$$
VeraChem MOL file


 13 13  0  0  0  0  0  0  0  0999 V2000     
   19.5809   18.8859   20.9409 C   0  0  0  0  0  0  0  0  0  0  0  0
   20.2057   18.0687   20.5570 H   0  0  0  0  0  0  0  0  0  0  0  0
   19.0117   19.3133   20.1069 H   0  0  0  0  0  0  0  0  0  0  0  0
   20.3313   19.9089   21.8562 C   0  0  0  0  0  0  0  0  0  0  0  0
   21.3857   20.0874   21.6190 H   0  0  0  0  0  0  0  0  0  0  0  0
   19.8274   20.8763   21.9740 H   0  0  0  0  0  0  0  0  0  0  0  0
   20.0580   18.8944   23.0073 C   0  0  0  0  0  0  0  0  0  0  0  0
   20.7890   18.0759   23.0590 H   0  0  0  0  0  0  0  0  0  0  0  0
   18.7591   18.5340   22.2248 C   0  0  0  0  0  0  0  0  0  0  0  0
   18.4215   17.4954   22.3116 H   0  0  0  0  0  0  0  0  0  0  0  0
   17.9092   19.1994   22.4213 H   0  0  0  0  0  0  0  0  0  0  0  0
   19.8565   19.4662   24.2789 O   0  0  0  0  0  0  0  0  0  0  0  0
   19.5366   18.7521   24.8713 H   0  0  0  0  0  0  0  0  0  0  0  0
  1  2  1  0  0  0  0
  1  3  1  0  0  0  0
  1  4  1  0  0  0  0
  4  5  1  0  0  0  0
  4  6  1  0  0  0  0
  4  7  1  0  0  0  0
  7  8  1  0  0  0  0
  1  9  1  0  0  0  0
  7  9  1  0  0  0  0
  9 10  1  0  0  0  0
  9 11  1  0  0  0  0
  7 12  1  0  0  0  0
 12 13  1  0  0  0  0
M  END
> <VConfSearch Rank>
296

> <Conf_Id>
22

> <Delta U+W>
0.000

> <U+W>
-3.131

> <U>
-0.154

> <W>
-2.978

> <W(PB)>
-4.579

> <W(SA)>
1.601

> <Valence>
6.333

> <Coulomb>
-7.439

> <VdW>
0.952

> <VdW6>
-2.120

> <VdW12>
3.072

> <Bond>
0.065

> <Angle>
0.931

> <Pdih>
5.338

> <Idih>
0.000

> <Tether>
0.000

$$$$
VeraChem MOL file


 13 13  0  0  0  0  0  0  0  0999 V2000     
   18.3185   18.8047   22.3361 C   0  0  0  0  0  0  0  0  0  0  0  0
   17.7800   19.7459   22.1631 H   0  0  0  0  0  0  0  0  0  0  0  0
   17.5899   18.0259   22.5909 H   0  0  0  0  0  0  0  0  0  0  0  0
   19.5569   18.9238   23.2845 C   0  0  0  0  0  0  0  0  0  0  0  0
   19.8942   17.9745   23.7190 H   0  0  0  0  0  0  0  0  0  0  0  0
   19.4829   19.6704   24.0828 H   0  0  0  0  0  0  0  0  0  0  0  0
   20.3373   19.3662   22.0100 C   0  0  0  0  0  0  0  0  0  0  0  0
   20.2238   20.4312   21.7649 H   0  0  0  0  0  0  0  0  0  0  0  0
   19.3612   18.4346   21.2302 C   0  0  0  0  0  0  0  0  0  0  0  0
   19.6576   17.3784   21.2128 H   0  0  0  0  0  0  0  0  0  0  0  0
   19.1162   18.7487   20.2098 H   0  0  0  0  0  0  0  0  0  0  0  0
   21.6931   18.9857   21.9711 O   0  0  0  0  0  0  0  0  0  0  0  0
   22.1706   19.5443   22.6216 H   0  0  0  0  0  0  0  0  0  0  0  0
  1  2  1  0  0  0  0
  1  3  1  0  0  0  0
  1  4  1  0  0  0  0
  4  5  1  0  0  0  0
  4  6  1  0  0  0  0
  4  7  1  0  0  0  0
  7  8  1  0  0  0  0
  1  9  1  0  0  0  0
  7  9  1  0  0  0  0
  9 10  1  0  0  0  0
  9 11  1  0  0  0  0
  7 12  1  0  0  0  0
 12 13  1  0  0  0  0
M  END
> <VConfSearch Rank>
297

> <Conf_Id>
19

> <Delta U+W>
-0.011

> <U+W>
-3.142

> <U>
-0.154

> <W>
-2.989

> <W(PB)>
-4.588

> <W(SA)>
1.599

> <Valence>
6.334

> <Coulomb>
-7.439

> <VdW>
0.951

> <VdW6>
-2.120

> <VdW12>
3.072

> <Bond>
0.065

> <Angle>
0.930

> <Pdih>
5.339

> <Idih>
0.000

> <Tether>
0.000

$$$$
VeraChem MOL file


 13 13  0  0  0  0  0  0  0  0999 V2000     
   18.7659   18.6057   21.5280 C   0  0  0  0  0  0  0  0  0  0  0  0
   17.6877   18.5097   21.3540 H   0  0  0  0  0  0  0  0  0  0  0  0
   19.2996   18.1846   20.6660 H   0  0  0  0  0  0  0  0  0  0  0  0
   19.2856   18.1109   22.9187 C   0  0  0  0  0  0  0  0  0  0  0  0
   18.5656   18.2205   23.7388 H   0  0  0  0  0  0  0  0  0  0  0  0
   19.6954   17.0951   22.9456 H   0  0  0  0  0  0  0  0  0  0  0  0
   20.3344   19.2630   22.8304 C   0  0  0  0  0  0  0  0  0  0  0  0
   20.5746   19.7371   23.7908 H   0  0  0  0  0  0  0  0  0  0  0  0
   19.2679   20.0182   21.9770 C   0  0  0  0  0  0  0  0  0  0  0  0
   19.6583   20.6641   21.1828 H   0  0  0  0  0  0  0  0  0  0  0  0
   18.5430   20.5906   22.5686 H   0  0  0  0  0  0  0  0  0  0  0  0
   21.5245   18.9326   22.1430 O   0  0  0  0  0  0  0  0  0  0  0  0
   22.0191   19.7676   22.0002 H   0  0  0  0  0  0  0  0  0  0  0  0
  1  2  1  0  0  0  0
  1  3  1  0  0  0  0
  1  4  1  0  0  0  0
  4  5  1  0  0  0  0
  4  6  1  0  0  0  0
  4  7  1  0  0  0  0
  7  8  1  0  0  0  0
  1  9  1  0  0  0  0
  7  9  1  0  0  0  0
  9 10  1  0  0  0  0
  9 11  1  0  0  0  0
  7 12  1  0  0  0  0
 12 13  1  0  0  0  0
M  END
> <VConfSearch Rank>
298

> <Conf_Id>
20

> <Delta U+W>
1.030

> <U+W>
-2.101

> <U>
0.841

> <W>
-2.942

> <W(PB)>
-4.530

> <W(SA)>
1.587

> <Valence>
6.736

> <Coulomb>
-7.246

> <VdW>
1.352

> <VdW6>
-2.500

> <VdW12>
3.851

> <Bond>
0.063

> <Angle>
0.687

> <Pdih>
5.986

> <Idih>
0.000

> <Tether>
0.000

$$$$
VeraChem MOL file


 13 13  0  0  0  0  0  0  0  0999 V2000     
   20.5703   18.6355   21.2828 C   0  0  0  0  0  0  0  0  0  0  0  0
   21.3579   19.3555   21.0238 H   0  0  0  0  0  0  0  0  0  0  0  0
   20.6793   17.7521   20.6424 H   0  0  0  0  0  0  0  0  0  0  0  0
   19.1322   19.2443   21.3749 C   0  0  0  0  0  0  0  0  0  0  0  0
   18.9176   20.0787   20.6981 H   0  0  0  0  0  0  0  0  0  0  0  0
   18.3194   18.5115   21.2990 H   0  0  0  0  0  0  0  0  0  0  0  0
   19.5250   19.6379   22.8309 C   0  0  0  0  0  0  0  0  0  0  0  0
   20.0946   20.5747   22.8994 H   0  0  0  0  0  0  0  0  0  0  0  0
   20.4153   18.3588   22.8148 C   0  0  0  0  0  0  0  0  0  0  0  0
   19.8894   17.4281   23.0606 H   0  0  0  0  0  0  0  0  0  0  0  0
   21.3339   18.4111   23.4095 H   0  0  0  0  0  0  0  0  0  0  0  0
   18.4713   19.6292   23.7645 O   0  0  0  0  0  0  0  0  0  0  0  0
   18.0023   18.7753   23.6574 H   0  0  0  0  0  0  0  0  0  0  0  0
  1  2  1  0  0  0  0
  1  3  1  0  0  0  0
  1  4  1  0  0  0  0
  4  5  1  0  0  0  0
  4  6  1  0  0  0  0
  4  7  1  0  0  0  0
  7  8  1  0  0  0  0
  1  9  1  0  0  0  0
  7  9  1  0  0  0  0
  9 10  1  0  0  0  0
  9 11  1  0  0  0  0
  7 12  1  0  0  0  0
 12 13  1  0  0  0  0
M  END
> <VConfSearch Rank>
299

> <Conf_Id>
24

> <Delta U+W>
0.356

> <U+W>
-2.775

> <U>
-0.184

> <W>
-2.591

> <W(PB)>
-4.184

> <W(SA)>
1.593

> <Valence>
6.840

> <Coulomb>
-7.916

> <VdW>
0.893

> <VdW6>
-2.167

> <VdW12>
3.060

> <Bond>
0.059

> <Angle>
0.918

> <Pdih>
5.862

> <Idih>
0.000

> <Tether>
0.000

$$$$
VeraChem MOL file


 13 13  0  0  0  0  0  0  0  0999 V2000     
   18.9847   18.9498   21.3354 C   0  0  0  0  0  0  0  0  0  0  0  0
   18.5268   19.5280   20.5240 H   0  0  0  0  0  0  0  0  0  0  0  0
   18.6022   17.9223   21.2873 H   0  0  0  0  0  0  0  0  0  0  0  0
   18.9341   19.6055   22.7558 C   0  0  0  0  0  0  0  0  0  0  0  0
   18.9504   20.7022   22.7497 H   0  0  0  0  0  0  0  0  0  0  0  0
   18.1226   19.2731   23.4129 H   0  0  0  0  0  0  0  0  0  0  0  0
   20.3271   18.9497   23.0075 C   0  0  0  0  0  0  0  0  0  0  0  0
   21.0160   19.5502   23.6152 H   0  0  0  0  0  0  0  0  0  0  0  0
   20.5400   19.0679   21.4665 C   0  0  0  0  0  0  0  0  0  0  0  0
   20.9501   20.0328   21.1443 H   0  0  0  0  0  0  0  0  0  0  0  0
   21.1264   18.2676   21.0013 H   0  0  0  0  0  0  0  0  0  0  0  0
   20.2784   17.6273   23.4982 O   0  0  0  0  0  0  0  0  0  0  0  0
   19.6530   17.1416   22.9218 H   0  0  0  0  0  0  0  0  0  0  0  0
  1  2  1  0  0  0  0
  1  3  1  0  0  0  0
  1  4  1  0  0  0  0
  4  5  1  0  0  0  0
  4  6  1  0  0  0  0
  4  7  1  0  0  0  0
  7  8  1  0  0  0  0
  1  9  1  0  0  0  0
  7  9  1  0  0  0  0
  9 10  1  0  0  0  0
  9 11  1  0  0  0  0
  7 12  1  0  0  0  0
 12 13  1  0  0  0  0
M  END
> <VConfSearch Rank>
300

> <Conf_Id>
44

> <Delta U+W>
0.823

> <U+W>
-2.308

> <U>
0.039

> <W>
-2.348

> <W(PB)>
-3.918

> <W(SA)>
1.571

> <Valence>
7.320

> <Coulomb>
-8.530

> <VdW>
1.249

> <VdW6>
-2.615

> <VdW12>
3.864

> <Bond>
0.056

> <Angle>
0.694

> <Pdih>
6.570

> <Idih>
0.000

> <Tether>
0.000

$$$$
VeraChem MOL file


 13 13  0  0  0  0  0  0  0  0999 V2000     
   18.8511   18.9989   23.2844 C   0  0  0  0  0  0  0  0  0  0  0  0
   18.7392   19.9652   23.7936 H   0  0  0  0  0  0  0  0  0  0  0  0
   18.1926   18.2687   23.7698 H   0  0  0  0  0  0  0  0  0  0  0  0
   20.3312   18.5457   23.0586 C   0  0  0  0  0  0  0  0  0  0  0  0
   21.0527   18.8508   23.8243 H   0  0  0  0  0  0  0  0  0  0  0  0
   20.4589   17.4742   22.8603 H   0  0  0  0  0  0  0  0  0  0  0  0
   20.2813   19.4370   21.7811 C   0  0  0  0  0  0  0  0  0  0  0  0
   20.4737   20.5011   21.9758 H   0  0  0  0  0  0  0  0  0  0  0  0
   18.7682   19.0679   21.7237 C   0  0  0  0  0  0  0  0  0  0  0  0
   18.1045   19.8349   21.3095 H   0  0  0  0  0  0  0  0  0  0  0  0
   18.5508   18.1106   21.2337 H   0  0  0  0  0  0  0  0  0  0  0  0
   21.0551   18.9791   20.6966 O   0  0  0  0  0  0  0  0  0  0  0  0
   20.8135   19.5238   19.9167 H   0  0  0  0  0  0  0  0  0  0  0  0
  1  2  1  0  0  0  0
  1  3  1  0  0  0  0
  1  4  1  0  0  0  0
  4  5  1  0  0  0  0
  4  6  1  0  0  0  0
  4  7  1  0  0  0  0
  7  8  1  0  0  0  0
  1  9  1  0  0  0  0
  7  9  1  0  0  0  0
  9 10  1  0  0  0  0
  9 11  1  0  0  0  0
  7 12  1  0  0  0  0
 12 13  1  0  0  0  0
M  END
> <VConfSearch Rank>
301

> <Conf_Id>
22

> <Delta U+W>
0.000

> <U+W>
-3.131

> <U>
-0.154

> <W>
-2.978

> <W(PB)>
-4.579

> <W(SA)>
1.601

> <Valence>
6.333

> <Coulomb>
-7.439

> <VdW>
0.952

> <VdW6>
-2.120

> <VdW12>
3.072

> <Bond>
0.065

> <Angle>
0.931

> <Pdih>
5.338

> <Idih>
0.000

> <Tether>
0.000

$$$$
VeraChem MOL file


 13 13  0  0  0  0  0  0  0  0999 V2000     
   20.7633   19.5231   21.9318 C   0  0  0  0  0  0  0  0  0  0  0  0
   20.6642   20.6092   21.8049 H   0  0  0  0  0  0  0  0  0  0  0  0
   21.7969   19.2365   21.7040 H   0  0  0  0  0  0  0  0  0  0  0  0
   19.6465   18.6780   21.2348 C   0  0  0  0  0  0  0  0  0  0  0  0
   19.9033   17.6235   21.0737 H   0  0  0  0  0  0  0  0  0  0  0  0
   19.2415   19.0887   20.3034 H   0  0  0  0  0  0  0  0  0  0  0  0
   18.8077   18.9511   22.5197 C   0  0  0  0  0  0  0  0  0  0  0  0
   18.2939   19.9222   22.5188 H   0  0  0  0  0  0  0  0  0  0  0  0
   20.1742   18.9641   23.2689 C   0  0  0  0  0  0  0  0  0  0  0  0
   20.5448   17.9721   23.5554 H   0  0  0  0  0  0  0  0  0  0  0  0
   20.2343   19.6274   24.1386 H   0  0  0  0  0  0  0  0  0  0  0  0
   17.9253   17.9187   22.8943 O   0  0  0  0  0  0  0  0  0  0  0  0
   17.1862   17.9196   22.2487 H   0  0  0  0  0  0  0  0  0  0  0  0
  1  2  1  0  0  0  0
  1  3  1  0  0  0  0
  1  4  1  0  0  0  0
  4  5  1  0  0  0  0
  4  6  1  0  0  0  0
  4  7  1  0  0  0  0
  7  8  1  0  0  0  0
  1  9  1  0  0  0  0
  7  9  1  0  0  0  0
  9 10  1  0  0  0  0
  9 11  1  0  0  0  0
  7 12  1  0  0  0  0
 12 13  1  0  0  0  0
M  END
> <VConfSearch Rank>
302

> <Conf_Id>
19

> <Delta U+W>
-0.011

> <U+W>
-3.142

> <U>
-0.154

> <W>
-2.989

> <W(PB)>
-4.588

> <W(SA)>
1.599

> <Valence>
6.334

> <Coulomb>
-7.439

> <VdW>
0.951

> <VdW6>
-2.120

> <VdW12>
3.072

> <Bond>
0.065

> <Angle>
0.930

> <Pdih>
5.339

> <Idih>
0.000

> <Tether>
0.000

$$$$
VeraChem MOL file


 13 13  0  0  0  0  0  0  0  0999 V2000     
   19.5345   20.1013   21.6394 C   0  0  0  0  0  0  0  0  0  0  0  0
   19.3795   21.1847   21.7045 H   0  0  0  0  0  0  0  0  0  0  0  0
   19.7396   19.8382   20.5935 H   0  0  0  0  0  0  0  0  0  0  0  0
   18.4533   19.2081   22.3337 C   0  0  0  0  0  0  0  0  0  0  0  0
   17.9846   19.6631   23.2146 H   0  0  0  0  0  0  0  0  0  0  0  0
   17.6658   18.8123   21.6828 H   0  0  0  0  0  0  0  0  0  0  0  0
   19.6172   18.2229   22.6658 C   0  0  0  0  0  0  0  0  0  0  0  0
   19.5245   17.7160   23.6349 H   0  0  0  0  0  0  0  0  0  0  0  0
   20.5348   19.4854   22.6732 C   0  0  0  0  0  0  0  0  0  0  0  0
   21.5605   19.3353   22.3184 H   0  0  0  0  0  0  0  0  0  0  0  0
   20.5710   20.0083   23.6366 H   0  0  0  0  0  0  0  0  0  0  0  0
   19.9061   17.2805   21.6526 O   0  0  0  0  0  0  0  0  0  0  0  0
   20.7503   16.8435   21.8942 H   0  0  0  0  0  0  0  0  0  0  0  0
  1  2  1  0  0  0  0
  1  3  1  0  0  0  0
  1  4  1  0  0  0  0
  4  5  1  0  0  0  0
  4  6  1  0  0  0  0
  4  7  1  0  0  0  0
  7  8  1  0  0  0  0
  1  9  1  0  0  0  0
  7  9  1  0  0  0  0
  9 10  1  0  0  0  0
  9 11  1  0  0  0  0
  7 12  1  0  0  0  0
 12 13  1  0  0  0  0
M  END
> <VConfSearch Rank>
303

> <Conf_Id>
20

> <Delta U+W>
1.030

> <U+W>
-2.101

> <U>
0.841

> <W>
-2.942

> <W(PB)>
-4.530

> <W(SA)>
1.587

> <Valence>
6.736

> <Coulomb>
-7.246

> <VdW>
1.352

> <VdW6>
-2.500

> <VdW12>
3.851

> <Bond>
0.063

> <Angle>
0.687

> <Pdih>
5.986

> <Idih>
0.000

> <Tether>
0.000

$$$$
VeraChem MOL file


 13 13  0  0  0  0  0  0  0  0999 V2000     
   20.9388   19.1493   22.6405 C   0  0  0  0  0  0  0  0  0  0  0  0
   21.1753   18.8384   23.6667 H   0  0  0  0  0  0  0  0  0  0  0  0
   21.8390   19.5848   22.1906 H   0  0  0  0  0  0  0  0  0  0  0  0
   19.6250   19.9864   22.4971 C   0  0  0  0  0  0  0  0  0  0  0  0
   19.3714   20.6343   23.3434 H   0  0  0  0  0  0  0  0  0  0  0  0
   19.5542   20.5719   21.5721 H   0  0  0  0  0  0  0  0  0  0  0  0
   18.8971   18.6089   22.4575 C   0  0  0  0  0  0  0  0  0  0  0  0
   18.7010   18.1814   23.4502 H   0  0  0  0  0  0  0  0  0  0  0  0
   20.1960   18.0706   21.7850 C   0  0  0  0  0  0  0  0  0  0  0  0
   20.2529   18.2278   20.7009 H   0  0  0  0  0  0  0  0  0  0  0  0
   20.4466   17.0264   22.0024 H   0  0  0  0  0  0  0  0  0  0  0  0
   17.7385   18.5602   21.6593 O   0  0  0  0  0  0  0  0  0  0  0  0
   17.9728   18.9524   20.7921 H   0  0  0  0  0  0  0  0  0  0  0  0
  1  2  1  0  0  0  0
  1  3  1  0  0  0  0
  1  4  1  0  0  0  0
  4  5  1  0  0  0  0
  4  6  1  0  0  0  0
  4  7  1  0  0  0  0
  7  8  1  0  0  0  0
  1  9  1  0  0  0  0
  7  9  1  0  0  0  0
  9 10  1  0  0  0  0
  9 11  1  0  0  0  0
  7 12  1  0  0  0  0
 12 13  1  0  0  0  0
M  END
> <VConfSearch Rank>
304

> <Conf_Id>
24

> <Delta U+W>
0.356

> <U+W>
-2.775

> <U>
-0.184

> <W>
-2.591

> <W(PB)>
-4.184

> <W(SA)>
1.593

> <Valence>
6.840

> <Coulomb>
-7.916

> <VdW>
0.893

> <VdW6>
-2.167

> <VdW12>
3.060

> <Bond>
0.059

> <Angle>
0.918

> <Pdih>
5.862

> <Idih>
0.000

> <Tether>
0.000

$$$$
VeraChem MOL file


 13 13  0  0  0  0  0  0  0  0999 V2000     
   19.4990   18.0847   21.5433 C   0  0  0  0  0  0  0  0  0  0  0  0
   18.7677   17.3333   21.2224 H   0  0  0  0  0  0  0  0  0  0  0  0
   20.4346   17.9136   20.9959 H   0  0  0  0  0  0  0  0  0  0  0  0
   19.6639   18.2621   23.0898 C   0  0  0  0  0  0  0  0  0  0  0  0
   18.7549   18.0590   23.6689 H   0  0  0  0  0  0  0  0  0  0  0  0
   20.4987   17.7232   23.5517 H   0  0  0  0  0  0  0  0  0  0  0  0
   19.9075   19.7752   22.7977 C   0  0  0  0  0  0  0  0  0  0  0  0
   19.5022   20.4612   23.5524 H   0  0  0  0  0  0  0  0  0  0  0  0
   18.9995   19.5681   21.5460 C   0  0  0  0  0  0  0  0  0  0  0  0
   17.9276   19.6852   21.7466 H   0  0  0  0  0  0  0  0  0  0  0  0
   19.2560   20.1659   20.6642 H   0  0  0  0  0  0  0  0  0  0  0  0
   21.2466   20.1136   22.5077 O   0  0  0  0  0  0  0  0  0  0  0  0
   21.5536   19.4729   21.8335 H   0  0  0  0  0  0  0  0  0  0  0  0
  1  2  1  0  0  0  0
  1  3  1  0  0  0  0
  1  4  1  0  0  0  0
  4  5  1  0  0  0  0
  4  6  1  0  0  0  0
  4  7  1  0  0  0  0
  7  8  1  0  0  0  0
  1  9  1  0  0  0  0
  7  9  1  0  0  0  0
  9 10  1  0  0  0  0
  9 11  1  0  0  0  0
  7 12  1  0  0  0  0
 12 13  1  0  0  0  0
M  END
> <VConfSearch Rank>
305

> <Conf_Id>
44

> <Delta U+W>
0.823

> <U+W>
-2.308

> <U>
0.039

> <W>
-2.348

> <W(PB)>
-3.918

> <W(SA)>
1.571

> <Valence>
7.320

> <Coulomb>
-8.530

> <VdW>
1.249

> <VdW6>
-2.615

> <VdW12>
3.864

> <Bond>
0.056

> <Angle>
0.694

> <Pdih>
6.570

> <Idih>
0.000

> <Tether>
0.000

$$$$
VeraChem MOL file


 13 13  0  0  0  0  0  0  0  0999 V2000     
   19.5525   18.5341   21.0362 C   0  0  0  0  0  0  0  0  0  0  0  0
   20.4379   17.9708   20.7134 H   0  0  0  0  0  0  0  0  0  0  0  0
   18.7883   18.4648   20.2529 H   0  0  0  0  0  0  0  0  0  0  0  0
   19.8525   19.9708   21.5779 C   0  0  0  0  0  0  0  0  0  0  0  0
   20.7003   20.4927   21.1209 H   0  0  0  0  0  0  0  0  0  0  0  0
   18.9883   20.6464   21.5925 H   0  0  0  0  0  0  0  0  0  0  0  0
   20.1437   19.2657   22.9369 C   0  0  0  0  0  0  0  0  0  0  0  0
   21.1602   18.8560   23.0144 H   0  0  0  0  0  0  0  0  0  0  0  0
   19.0737   18.2231   22.4927 C   0  0  0  0  0  0  0  0  0  0  0  0
   19.2315   17.1973   22.8434 H   0  0  0  0  0  0  0  0  0  0  0  0
   18.0376   18.5140   22.7062 H   0  0  0  0  0  0  0  0  0  0  0  0
   19.8166   20.0130   24.0854 O   0  0  0  0  0  0  0  0  0  0  0  0
   19.8896   19.4092   24.8556 H   0  0  0  0  0  0  0  0  0  0  0  0
  1  2  1  0  0  0  0
  1  3  1  0  0  0  0
  1  4  1  0  0  0  0
  4  5  1  0  0  0  0
  4  6  1  0  0  0  0
  4  7  1  0  0  0  0
  7  8  1  0  0  0  0
  1  9  1  0  0  0  0
  7  9  1  0  0  0  0
  9 10  1  0  0  0  0
  9 11  1  0  0  0  0
  7 12  1  0  0  0  0
 12 13  1  0  0  0  0
M  END
> <VConfSearch Rank>
306

> <Conf_Id>
22

> <Delta U+W>
0.000

> <U+W>
-3.131

> <U>
-0.154

> <W>
-2.978

> <W(PB)>
-4.579

> <W(SA)>
1.601

> <Valence>
6.333

> <Coulomb>
-7.439

> <VdW>
0.952

> <VdW6>
-2.120

> <VdW12>
3.072

> <Bond>
0.065

> <Angle>
0.931

> <Pdih>
5.338

> <Idih>
0.000

> <Tether>
0.000

$$$$
VeraChem MOL file


 13 13  0  0  0  0  0  0  0  0999 V2000     
   20.8774   19.0907   21.8503 C   0  0  0  0  0  0  0  0  0  0  0  0
   21.6090   19.0021   22.6642 H   0  0  0  0  0  0  0  0  0  0  0  0
   21.4099   19.3484   20.9270 H   0  0  0  0  0  0  0  0  0  0  0  0
   19.6251   19.9652   22.1881 C   0  0  0  0  0  0  0  0  0  0  0  0
   19.0693   20.3265   21.3138 H   0  0  0  0  0  0  0  0  0  0  0  0
   19.7935   20.8053   22.8707 H   0  0  0  0  0  0  0  0  0  0  0  0
   19.0461   18.6701   22.8335 C   0  0  0  0  0  0  0  0  0  0  0  0
   19.3937   18.4898   23.8600 H   0  0  0  0  0  0  0  0  0  0  0  0
   19.8631   17.9039   21.7499 C   0  0  0  0  0  0  0  0  0  0  0  0
   19.3578   17.8117   20.7806 H   0  0  0  0  0  0  0  0  0  0  0  0
   20.2403   16.9189   22.0458 H   0  0  0  0  0  0  0  0  0  0  0  0
   17.6474   18.5267   22.7465 O   0  0  0  0  0  0  0  0  0  0  0  0
   17.2496   19.1751   23.3666 H   0  0  0  0  0  0  0  0  0  0  0  0
  1  2  1  0  0  0  0
  1  3  1  0  0  0  0
  1  4  1  0  0  0  0
  4  5  1  0  0  0  0
  4  6  1  0  0  0  0
  4  7  1  0  0  0  0
  7  8  1  0  0  0  0
  1  9  1  0  0  0  0
  7  9  1  0  0  0  0
  9 10  1  0  0  0  0
  9 11  1  0  0  0  0
  7 12  1  0  0  0  0
 12 13  1  0  0  0  0
M  END
> <VConfSearch Rank>
307

> <Conf_Id>
19

> <Delta U+W>
-0.011

> <U+W>
-3.142

> <U>
-0.154

> <W>
-2.989

> <W(PB)>
-4.588

> <W(SA)>
1.599

> <Valence>
6.334

> <Coulomb>
-7.439

> <VdW>
0.951

> <VdW6>
-2.120

> <VdW12>
3.072

> <Bond>
0.065

> <Angle>
0.930

> <Pdih>
5.339

> <Idih>
0.000

> <Tether>
0.000

$$$$
VeraChem MOL file


 13 13  0  0  0  0  0  0  0  0999 V2000     
   18.4962   19.4071   22.5993 C   0  0  0  0  0  0  0  0  0  0  0  0
   17.4477   19.4573   22.2831 H   0  0  0  0  0  0  0  0  0  0  0  0
   18.5677   19.7617   23.6359 H   0  0  0  0  0  0  0  0  0  0  0  0
   19.5411   20.0417   21.6223 C   0  0  0  0  0  0  0  0  0  0  0  0
   19.2641   19.9883   20.5625 H   0  0  0  0  0  0  0  0  0  0  0  0
   19.8539   21.0663   21.8516 H   0  0  0  0  0  0  0  0  0  0  0  0
   20.5168   18.9153   22.0857 C   0  0  0  0  0  0  0  0  0  0  0  0
   21.1852   18.5382   21.3009 H   0  0  0  0  0  0  0  0  0  0  0  0
   19.2353   18.0561   22.3216 C   0  0  0  0  0  0  0  0  0  0  0  0
   19.2778   17.3508   23.1590 H   0  0  0  0  0  0  0  0  0  0  0  0
   18.8835   17.5209   21.4312 H   0  0  0  0  0  0  0  0  0  0  0  0
   21.2589   19.2135   23.2512 O   0  0  0  0  0  0  0  0  0  0  0  0
   21.6935   18.3827   23.5396 H   0  0  0  0  0  0  0  0  0  0  0  0
  1  2  1  0  0  0  0
  1  3  1  0  0  0  0
  1  4  1  0  0  0  0
  4  5  1  0  0  0  0
  4  6  1  0  0  0  0
  4  7  1  0  0  0  0
  7  8  1  0  0  0  0
  1  9  1  0  0  0  0
  7  9  1  0  0  0  0
  9 10  1  0  0  0  0
  9 11  1  0  0  0  0
  7 12  1  0  0  0  0
 12 13  1  0  0  0  0
M  END
> <VConfSearch Rank>
308

> <Conf_Id>
20

> <Delta U+W>
1.030

> <U+W>
-2.101

> <U>
0.841

> <W>
-2.942

> <W(PB)>
-4.530

> <W(SA)>
1.587

> <Valence>
6.736

> <Coulomb>
-7.246

> <VdW>
1.352

> <VdW6>
-2.500

> <VdW12>
3.851

> <Bond>
0.063

> <Angle>
0.687

> <Pdih>
5.986

> <Idih>
0.000

> <Tether>
0.000

$$$$
VeraChem MOL file


 13 13  0  0  0  0  0  0  0  0999 V2000     
   19.1586   17.8652   22.5481 C   0  0  0  0  0  0  0  0  0  0  0  0
   19.7823   17.0184   22.8638 H   0  0  0  0  0  0  0  0  0  0  0  0
   18.1059   17.5619   22.5971 H   0  0  0  0  0  0  0  0  0  0  0  0
   19.6143   18.5535   21.2192 C   0  0  0  0  0  0  0  0  0  0  0  0
   20.0784   17.9000   20.4723 H   0  0  0  0  0  0  0  0  0  0  0  0
   18.8407   19.1561   20.7275 H   0  0  0  0  0  0  0  0  0  0  0  0
   20.5993   19.3598   22.1184 C   0  0  0  0  0  0  0  0  0  0  0  0
   21.5325   18.8261   22.3445 H   0  0  0  0  0  0  0  0  0  0  0  0
   19.5134   19.2284   23.2287 C   0  0  0  0  0  0  0  0  0  0  0  0
   18.7173   19.9819   23.1861 H   0  0  0  0  0  0  0  0  0  0  0  0
   19.8884   19.1709   24.2565 H   0  0  0  0  0  0  0  0  0  0  0  0
   20.8708   20.6733   21.6909 O   0  0  0  0  0  0  0  0  0  0  0  0
   20.0067   21.0972   21.5052 H   0  0  0  0  0  0  0  0  0  0  0  0
  1  2  1  0  0  0  0
  1  3  1  0  0  0  0
  1  4  1  0  0  0  0
  4  5  1  0  0  0  0
  4  6  1  0  0  0  0
  4  7  1  0  0  0  0
  7  8  1  0  0  0  0
  1  9  1  0  0  0  0
  7  9  1  0  0  0  0
  9 10  1  0  0  0  0
  9 11  1  0  0  0  0
  7 12  1  0  0  0  0
 12 13  1  0  0  0  0
M  END
> <VConfSearch Rank>
309

> <Conf_Id>
24

> <Delta U+W>
0.356

> <U+W>
-2.775

> <U>
-0.184

> <W>
-2.591

> <W(PB)>
-4.184

> <W(SA)>
1.593

> <Valence>
6.840

> <Coulomb>
-7.916

> <VdW>
0.893

> <VdW6>
-2.167

> <VdW12>
3.060

> <Bond>
0.059

> <Angle>
0.918

> <Pdih>
5.862

> <Idih>
0.000

> <Tether>
0.000

$$$$
VeraChem MOL file


 13 13  0  0  0  0  0  0  0  0999 V2000     
   18.6837   19.1426   21.7431 C   0  0  0  0  0  0  0  0  0  0  0  0
   17.9108   18.7404   21.0774 H   0  0  0  0  0  0  0  0  0  0  0  0
   18.3457   20.1173   22.1175 H   0  0  0  0  0  0  0  0  0  0  0  0
   20.1458   19.1229   21.1844 C   0  0  0  0  0  0  0  0  0  0  0  0
   20.3548   18.2997   20.4904 H   0  0  0  0  0  0  0  0  0  0  0  0
   20.5042   20.0561   20.7358 H   0  0  0  0  0  0  0  0  0  0  0  0
   20.6045   18.8511   22.6506 C   0  0  0  0  0  0  0  0  0  0  0  0
   21.4678   18.1803   22.7464 H   0  0  0  0  0  0  0  0  0  0  0  0
   19.2169   18.1640   22.8422 C   0  0  0  0  0  0  0  0  0  0  0  0
   19.1982   17.1057   22.5546 H   0  0  0  0  0  0  0  0  0  0  0  0
   18.7670   18.2625   23.8365 H   0  0  0  0  0  0  0  0  0  0  0  0
   20.8042   20.0090   23.4323 O   0  0  0  0  0  0  0  0  0  0  0  0
   20.0083   20.5663   23.3088 H   0  0  0  0  0  0  0  0  0  0  0  0
  1  2  1  0  0  0  0
  1  3  1  0  0  0  0
  1  4  1  0  0  0  0
  4  5  1  0  0  0  0
  4  6  1  0  0  0  0
  4  7  1  0  0  0  0
  7  8  1  0  0  0  0
  1  9  1  0  0  0  0
  7  9  1  0  0  0  0
  9 10  1  0  0  0  0
  9 11  1  0  0  0  0
  7 12  1  0  0  0  0
 12 13  1  0  0  0  0
M  END
> <VConfSearch Rank>
310

> <Conf_Id>
44

> <Delta U+W>
0.823

> <U+W>
-2.308

> <U>
0.039

> <W>
-2.348

> <W(PB)>
-3.918

> <W(SA)>
1.571

> <Valence>
7.320

> <Coulomb>
-8.530

> <VdW>
1.249

> <VdW6>
-2.615

> <VdW12>
3.864

> <Bond>
0.056

> <Angle>
0.694

> <Pdih>
6.570

> <Idih>
0.000

> <Tether>
0.000

$$$$
VeraChem MOL file


 13 13  0  0  0  0  0  0  0  0999 V2000     
   19.8537   18.1903   21.2586 C   0  0  0  0  0  0  0  0  0  0  0  0
   18.9195   17.8540   20.7899 H   0  0  0  0  0  0  0  0  0  0  0  0
   20.6972   17.7448   20.7179 H   0  0  0  0  0  0  0  0  0  0  0  0
   19.8891   18.0569   22.8169 C   0  0  0  0  0  0  0  0  0  0  0  0
   19.3314   17.2158   23.2431 H   0  0  0  0  0  0  0  0  0  0  0  0
   20.8938   18.0735   23.2571 H   0  0  0  0  0  0  0  0  0  0  0  0
   19.1559   19.4321   22.8297 C   0  0  0  0  0  0  0  0  0  0  0  0
   18.0685   19.3554   22.6928 H   0  0  0  0  0  0  0  0  0  0  0  0
   19.9393   19.7310   21.5159 C   0  0  0  0  0  0  0  0  0  0  0  0
   19.4268   20.3705   20.7889 H   0  0  0  0  0  0  0  0  0  0  0  0
   20.9560   20.1142   21.6686 H   0  0  0  0  0  0  0  0  0  0  0  0
   19.4651   20.2693   23.9197 O   0  0  0  0  0  0  0  0  0  0  0  0
   19.0764   21.1501   23.7290 H   0  0  0  0  0  0  0  0  0  0  0  0
  1  2  1  0  0  0  0
  1  3  1  0  0  0  0
  1  4  1  0  0  0  0
  4  5  1  0  0  0  0
  4  6  1  0  0  0  0
  4  7  1  0  0  0  0
  7  8  1  0  0  0  0
  1  9  1  0  0  0  0
  7  9  1  0  0  0  0
  9 10  1  0  0  0  0
  9 11  1  0  0  0  0
  7 12  1  0  0  0  0
 12 13  1  0  0  0  0
M  END
> <VConfSearch Rank>
311

> <Conf_Id>
22

> <Delta U+W>
0.000

> <U+W>
-3.131

> <U>
-0.154

> <W>
-2.978

> <W(PB)>
-4.579

> <W(SA)>
1.601

> <Valence>
6.333

> <Coulomb>
-7.439

> <VdW>
0.952

> <VdW6>
-2.120

> <VdW12>
3.072

> <Bond>
0.065

> <Angle>
0.931

> <Pdih>
5.338

> <Idih>
0.000

> <Tether>
0.000

$$$$
VeraChem MOL file


 13 13  0  0  0  0  0  0  0  0999 V2000     
   20.3173   18.4006   21.2498 C   0  0  0  0  0  0  0  0  0  0  0  0
   20.3148   17.3026   21.2482 H   0  0  0  0  0  0  0  0  0  0  0  0
   20.9521   18.7507   20.4271 H   0  0  0  0  0  0  0  0  0  0  0  0
   20.5817   19.0526   22.6470 C   0  0  0  0  0  0  0  0  0  0  0  0
   20.9080   20.0995   22.6097 H   0  0  0  0  0  0  0  0  0  0  0  0
   21.2471   18.4996   23.3191 H   0  0  0  0  0  0  0  0  0  0  0  0
   19.0546   18.8586   22.8909 C   0  0  0  0  0  0  0  0  0  0  0  0
   18.7826   17.8516   23.2360 H   0  0  0  0  0  0  0  0  0  0  0  0
   18.9016   19.0582   21.3529 C   0  0  0  0  0  0  0  0  0  0  0  0
   18.8572   20.1066   21.0329 H   0  0  0  0  0  0  0  0  0  0  0  0
   18.0785   18.5106   20.8811 H   0  0  0  0  0  0  0  0  0  0  0  0
   18.4419   19.8437   23.6900 O   0  0  0  0  0  0  0  0  0  0  0  0
   18.7446   19.6995   24.6124 H   0  0  0  0  0  0  0  0  0  0  0  0
  1  2  1  0  0  0  0
  1  3  1  0  0  0  0
  1  4  1  0  0  0  0
  4  5  1  0  0  0  0
  4  6  1  0  0  0  0
  4  7  1  0  0  0  0
  7  8  1  0  0  0  0
  1  9  1  0  0  0  0
  7  9  1  0  0  0  0
  9 10  1  0  0  0  0
  9 11  1  0  0  0  0
  7 12  1  0  0  0  0
 12 13  1  0  0  0  0
M  END
> <VConfSearch Rank>
312

> <Conf_Id>
19

> <Delta U+W>
-0.011

> <U+W>
-3.142

> <U>
-0.154

> <W>
-2.989

> <W(PB)>
-4.588

> <W(SA)>
1.599

> <Valence>
6.334

> <Coulomb>
-7.439

> <VdW>
0.951

> <VdW6>
-2.120

> <VdW12>
3.072

> <Bond>
0.065

> <Angle>
0.930

> <Pdih>
5.339

> <Idih>
0.000

> <Tether>
0.000

$$$$
VeraChem MOL file


 13 13  0  0  0  0  0  0  0  0999 V2000     
   19.9053   20.1762   21.8522 C   0  0  0  0  0  0  0  0  0  0  0  0
   20.7082   20.9024   21.6792 H   0  0  0  0  0  0  0  0  0  0  0  0
   18.9738   20.5755   21.4299 H   0  0  0  0  0  0  0  0  0  0  0  0
   19.7744   19.6294   23.3126 C   0  0  0  0  0  0  0  0  0  0  0  0
   20.7210   19.5719   23.8634 H   0  0  0  0  0  0  0  0  0  0  0  0
   19.0295   20.1233   23.9464 H   0  0  0  0  0  0  0  0  0  0  0  0
   19.3277   18.2810   22.6664 C   0  0  0  0  0  0  0  0  0  0  0  0
   19.6667   17.3838   23.2002 H   0  0  0  0  0  0  0  0  0  0  0  0
   20.2181   18.6958   21.4534 C   0  0  0  0  0  0  0  0  0  0  0  0
   19.8629   18.3787   20.4667 H   0  0  0  0  0  0  0  0  0  0  0  0
   21.2729   18.4121   21.5532 H   0  0  0  0  0  0  0  0  0  0  0  0
   17.9454   18.1844   22.3871 O   0  0  0  0  0  0  0  0  0  0  0  0
   17.8159   17.3852   21.8334 H   0  0  0  0  0  0  0  0  0  0  0  0
  1  2  1  0  0  0  0
  1  3  1  0  0  0  0
  1  4  1  0  0  0  0
  4  5  1  0  0  0  0
  4  6  1  0  0  0  0
  4  7  1  0  0  0  0
  7  8  1  0  0  0  0
  1  9  1  0  0  0  0
  7  9  1  0  0  0  0
  9 10  1  0  0  0  0
  9 11  1  0  0  0  0
  7 12  1  0  0  0  0
 12 13  1  0  0  0  0
M  END
> <VConfSearch Rank>
313

> <Conf_Id>
20

> <Delta U+W>
1.030

> <U+W>
-2.101

> <U>
0.841

> <W>
-2.942

> <W(PB)>
-4.530

> <W(SA)>
1.587

> <Valence>
6.736

> <Coulomb>
-7.246

> <VdW>
1.352

> <VdW6>
-2.500

> <VdW12>
3.851

> <Bond>
0.063

> <Angle>
0.687

> <Pdih>
5.986

> <Idih>
0.000

> <Tether>
0.000

$$$$
VeraChem MOL file


 13 13  0  0  0  0  0  0  0  0999 V2000     
   19.7268   20.2347   22.1943 C   0  0  0  0  0  0  0  0  0  0  0  0
   18.9606   20.7465   22.7916 H   0  0  0  0  0  0  0  0  0  0  0  0
   20.3380   20.9908   21.6871 H   0  0  0  0  0  0  0  0  0  0  0  0
   19.1879   19.0719   21.2973 C   0  0  0  0  0  0  0  0  0  0  0  0
   18.1728   19.1966   20.9046 H   0  0  0  0  0  0  0  0  0  0  0  0
   19.8517   18.7853   20.4722 H   0  0  0  0  0  0  0  0  0  0  0  0
   19.3152   18.1905   22.5764 C   0  0  0  0  0  0  0  0  0  0  0  0
   18.4575   18.2707   23.2581 H   0  0  0  0  0  0  0  0  0  0  0  0
   20.5106   19.1156   22.9563 C   0  0  0  0  0  0  0  0  0  0  0  0
   21.4700   18.8388   22.5021 H   0  0  0  0  0  0  0  0  0  0  0  0
   20.6636   19.2790   24.0288 H   0  0  0  0  0  0  0  0  0  0  0  0
   19.6438   16.8405   22.3500 O   0  0  0  0  0  0  0  0  0  0  0  0
   20.4103   16.8320   21.7392 H   0  0  0  0  0  0  0  0  0  0  0  0
  1  2  1  0  0  0  0
  1  3  1  0  0  0  0
  1  4  1  0  0  0  0
  4  5  1  0  0  0  0
  4  6  1  0  0  0  0
  4  7  1  0  0  0  0
  7  8  1  0  0  0  0
  1  9  1  0  0  0  0
  7  9  1  0  0  0  0
  9 10  1  0  0  0  0
  9 11  1  0  0  0  0
  7 12  1  0  0  0  0
 12 13  1  0  0  0  0
M  END
> <VConfSearch Rank>
314

> <Conf_Id>
24

> <Delta U+W>
0.356

> <U+W>
-2.775

> <U>
-0.184

> <W>
-2.591

> <W(PB)>
-4.184

> <W(SA)>
1.593

> <Valence>
6.840

> <Coulomb>
-7.916

> <VdW>
0.893

> <VdW6>
-2.167

> <VdW12>
3.060

> <Bond>
0.059

> <Angle>
0.918

> <Pdih>
5.862

> <Idih>
0.000

> <Tether>
0.000

$$$$
VeraChem MOL file


 13 13  0  0  0  0  0  0  0  0999 V2000     
   18.8657   19.5577   22.6956 C   0  0  0  0  0  0  0  0  0  0  0  0
   18.5747   20.5143   23.1458 H   0  0  0  0  0  0  0  0  0  0  0  0
   18.0004   18.8834   22.7250 H   0  0  0  0  0  0  0  0  0  0  0  0
   20.2037   18.9351   23.2173 C   0  0  0  0  0  0  0  0  0  0  0  0
   20.9506   19.6706   23.5401 H   0  0  0  0  0  0  0  0  0  0  0  0
   20.1094   18.1700   23.9961 H   0  0  0  0  0  0  0  0  0  0  0  0
   20.4172   18.4067   21.7650 C   0  0  0  0  0  0  0  0  0  0  0  0
   21.4608   18.4019   21.4252 H   0  0  0  0  0  0  0  0  0  0  0  0
   19.5856   19.6453   21.3084 C   0  0  0  0  0  0  0  0  0  0  0  0
   20.1808   20.5550   21.1632 H   0  0  0  0  0  0  0  0  0  0  0  0
   18.9531   19.4984   20.4257 H   0  0  0  0  0  0  0  0  0  0  0  0
   19.8163   17.1586   21.4952 O   0  0  0  0  0  0  0  0  0  0  0  0
   18.8935   17.2210   21.8173 H   0  0  0  0  0  0  0  0  0  0  0  0
  1  2  1  0  0  0  0
  1  3  1  0  0  0  0
  1  4  1  0  0  0  0
  4  5  1  0  0  0  0
  4  6  1  0  0  0  0
  4  7  1  0  0  0  0
  7  8  1  0  0  0  0
  1  9  1  0  0  0  0
  7  9  1  0  0  0  0
  9 10  1  0  0  0  0
  9 11  1  0  0  0  0
  7 12  1  0  0  0  0
 12 13  1  0  0  0  0
M  END
> <VConfSearch Rank>
315

> <Conf_Id>
44

> <Delta U+W>
0.823

> <U+W>
-2.308

> <U>
0.039

> <W>
-2.348

> <W(PB)>
-3.918

> <W(SA)>
1.571

> <Valence>
7.320

> <Coulomb>
-8.530

> <VdW>
1.249

> <VdW6>
-2.615

> <VdW12>
3.864

> <Bond>
0.056

> <Angle>
0.694

> <Pdih>
6.570

> <Idih>
0.000

> <Tether>
0.000

$$$$
VeraChem MOL file


 13 13  0  0  0  0  0  0  0  0999 V2000     
   19.1100   19.0274   23.4444 C   0  0  0  0  0  0  0  0  0  0  0  0
   19.2482   19.9627   24.0028 H   0  0  0  0  0  0  0  0  0  0  0  0
   18.4871   18.3513   24.0421 H   0  0  0  0  0  0  0  0  0  0  0  0
   20.4250   18.4136   22.8602 C   0  0  0  0  0  0  0  0  0  0  0  0
   21.3361   18.5748   23.4465 H   0  0  0  0  0  0  0  0  0  0  0  0
   20.3586   17.3509   22.5962 H   0  0  0  0  0  0  0  0  0  0  0  0
   20.2062   19.3904   21.6657 C   0  0  0  0  0  0  0  0  0  0  0  0
   20.5794   20.4070   21.8509 H   0  0  0  0  0  0  0  0  0  0  0  0
   18.6842   19.2136   21.9507 C   0  0  0  0  0  0  0  0  0  0  0  0
   18.0532   20.0825   21.7338 H   0  0  0  0  0  0  0  0  0  0  0  0
   18.2340   18.3261   21.4886 H   0  0  0  0  0  0  0  0  0  0  0  0
   20.6439   18.9174   20.4130 O   0  0  0  0  0  0  0  0  0  0  0  0
   20.3068   19.5400   19.7333 H   0  0  0  0  0  0  0  0  0  0  0  0
  1  2  1  0  0  0  0
  1  3  1  0  0  0  0
  1  4  1  0  0  0  0
  4  5  1  0  0  0  0
  4  6  1  0  0  0  0
  4  7  1  0  0  0  0
  7  8  1  0  0  0  0
  1  9  1  0  0  0  0
  7  9  1  0  0  0  0
  9 10  1  0  0  0  0
  9 11  1  0  0  0  0
  7 12  1  0  0  0  0
 12 13  1  0  0  0  0
M  END
> <VConfSearch Rank>
316

> <Conf_Id>
22

> <Delta U+W>
0.000

> <U+W>
-3.131

> <U>
-0.154

> <W>
-2.978

> <W(PB)>
-4.579

> <W(SA)>
1.601

> <Valence>
6.333

> <Coulomb>
-7.439

> <VdW>
0.952

> <VdW6>
-2.120

> <VdW12>
3.072

> <Bond>
0.065

> <Angle>
0.931

> <Pdih>
5.338

> <Idih>
0.000

> <Tether>
0.000

$$$$
VeraChem MOL file


 13 13  0  0  0  0  0  0  0  0999 V2000     
   20.4084   19.7522   22.9177 C   0  0  0  0  0  0  0  0  0  0  0  0
   20.8370   19.3077   23.8256 H   0  0  0  0  0  0  0  0  0  0  0  0
   20.7222   20.8013   22.8595 H   0  0  0  0  0  0  0  0  0  0  0  0
   18.8816   19.4794   22.7132 C   0  0  0  0  0  0  0  0  0  0  0  0
   18.3826   20.1661   22.0181 H   0  0  0  0  0  0  0  0  0  0  0  0
   18.2794   19.4011   23.6249 H   0  0  0  0  0  0  0  0  0  0  0  0
   19.3322   18.1293   22.0780 C   0  0  0  0  0  0  0  0  0  0  0  0
   19.5367   17.3376   22.8117 H   0  0  0  0  0  0  0  0  0  0  0  0
   20.6042   18.9035   21.6183 C   0  0  0  0  0  0  0  0  0  0  0  0
   20.4827   19.4618   20.6817 H   0  0  0  0  0  0  0  0  0  0  0  0
   21.5256   18.3139   21.5599 H   0  0  0  0  0  0  0  0  0  0  0  0
   18.5115   17.6484   21.0389 O   0  0  0  0  0  0  0  0  0  0  0  0
   17.6780   17.3322   21.4494 H   0  0  0  0  0  0  0  0  0  0  0  0
  1  2  1  0  0  0  0
  1  3  1  0  0  0  0
  1  4  1  0  0  0  0
  4  5  1  0  0  0  0
  4  6  1  0  0  0  0
  4  7  1  0  0  0  0
  7  8  1  0  0  0  0
  1  9  1  0  0  0  0
  7  9  1  0  0  0  0
  9 10  1  0  0  0  0
  9 11  1  0  0  0  0
  7 12  1  0  0  0  0
 12 13  1  0  0  0  0
M  END
> <VConfSearch Rank>
317

> <Conf_Id>
19

> <Delta U+W>
-0.011

> <U+W>
-3.142

> <U>
-0.154

> <W>
-2.989

> <W(PB)>
-4.588

> <W(SA)>
1.599

> <Valence>
6.334

> <Coulomb>
-7.439

> <VdW>
0.951

> <VdW6>
-2.120

> <VdW12>
3.072

> <Bond>
0.065

> <Angle>
0.930

> <Pdih>
5.339

> <Idih>
0.000

> <Tether>
0.000

$$$$
VeraChem MOL file


 13 13  0  0  0  0  0  0  0  0999 V2000     
   19.7921   17.8350   22.3619 C   0  0  0  0  0  0  0  0  0  0  0  0
   20.4653   16.9990   22.1388 H   0  0  0  0  0  0  0  0  0  0  0  0
   18.9377   17.4541   22.9365 H   0  0  0  0  0  0  0  0  0  0  0  0
   19.4054   18.7493   21.1521 C   0  0  0  0  0  0  0  0  0  0  0  0
   20.1796   18.8336   20.3798 H   0  0  0  0  0  0  0  0  0  0  0  0
   18.4489   18.5261   20.6667 H   0  0  0  0  0  0  0  0  0  0  0  0
   19.3887   19.9302   22.1722 C   0  0  0  0  0  0  0  0  0  0  0  0
   19.7434   20.8876   21.7691 H   0  0  0  0  0  0  0  0  0  0  0  0
   20.4605   19.1161   22.9625 C   0  0  0  0  0  0  0  0  0  0  0  0
   20.4259   19.2095   24.0535 H   0  0  0  0  0  0  0  0  0  0  0  0
   21.4911   19.2890   22.6292 H   0  0  0  0  0  0  0  0  0  0  0  0
   18.1610   20.1150   22.8481 O   0  0  0  0  0  0  0  0  0  0  0  0
   18.3221   20.7551   23.5736 H   0  0  0  0  0  0  0  0  0  0  0  0
  1  2  1  0  0  0  0
  1  3  1  0  0  0  0
  1  4  1  0  0  0  0
  4  5  1  0  0  0  0
  4  6  1  0  0  0  0
  4  7  1  0  0  0  0
  7  8  1  0  0  0  0
  1  9  1  0  0  0  0
  7  9  1  0  0  0  0
  9 10  1  0  0  0  0
  9 11  1  0  0  0  0
  7 12  1  0  0  0  0
 12 13  1  0  0  0  0
M  END
> <VConfSearch Rank>
318

> <Conf_Id>
20

> <Delta U+W>
1.030

> <U+W>
-2.101

> <U>
0.841

> <W>
-2.942

> <W(PB)>
-4.530

> <W(SA)>
1.587

> <Valence>
6.736

> <Coulomb>
-7.246

> <VdW>
1.352

> <VdW6>
-2.500

> <VdW12>
3.851

> <Bond>
0.063

> <Angle>
0.687

> <Pdih>
5.986

> <Idih>
0.000

> <Tether>
0.000

$$$$
VeraChem MOL file


 13 13  0  0  0  0  0  0  0  0999 V2000     
   20.9528   18.7729   21.8174 C   0  0  0  0  0  0  0  0  0  0  0  0
   21.3247   19.3980   20.9947 H   0  0  0  0  0  0  0  0  0  0  0  0
   21.7545   18.0937   22.1308 H   0  0  0  0  0  0  0  0  0  0  0  0
   19.5568   18.1156   21.5598 C   0  0  0  0  0  0  0  0  0  0  0  0
   19.3323   17.8523   20.5203 H   0  0  0  0  0  0  0  0  0  0  0  0
   19.3331   17.2518   22.1979 H   0  0  0  0  0  0  0  0  0  0  0  0
   18.9647   19.4685   22.0581 C   0  0  0  0  0  0  0  0  0  0  0  0
   18.9162   20.2447   21.2823 H   0  0  0  0  0  0  0  0  0  0  0  0
   20.2315   19.5590   22.9616 C   0  0  0  0  0  0  0  0  0  0  0  0
   20.1587   19.0178   23.9130 H   0  0  0  0  0  0  0  0  0  0  0  0
   20.6030   20.5704   23.1601 H   0  0  0  0  0  0  0  0  0  0  0  0
   17.7387   19.3758   22.7437 O   0  0  0  0  0  0  0  0  0  0  0  0
   17.8417   18.6724   23.4185 H   0  0  0  0  0  0  0  0  0  0  0  0
  1  2  1  0  0  0  0
  1  3  1  0  0  0  0
  1  4  1  0  0  0  0
  4  5  1  0  0  0  0
  4  6  1  0  0  0  0
  4  7  1  0  0  0  0
  7  8  1  0  0  0  0
  1  9  1  0  0  0  0
  7  9  1  0  0  0  0
  9 10  1  0  0  0  0
  9 11  1  0  0  0  0
  7 12  1  0  0  0  0
 12 13  1  0  0  0  0
M  END
> <VConfSearch Rank>
319

> <Conf_Id>
24

> <Delta U+W>
0.356

> <U+W>
-2.775

> <U>
-0.184

> <W>
-2.591

> <W(PB)>
-4.184

> <W(SA)>
1.593

> <Valence>
6.840

> <Coulomb>
-7.916

> <VdW>
0.893

> <VdW6>
-2.167

> <VdW12>
3.060

> <Bond>
0.059

> <Angle>
0.918

> <Pdih>
5.862

> <Idih>
0.000

> <Tether>
0.000

$$$$
VeraChem MOL file


 13 13  0  0  0  0  0  0  0  0999 V2000     
   19.5946   20.0697   22.4292 C   0  0  0  0  0  0  0  0  0  0  0  0
   20.1042   21.0403   22.4512 H   0  0  0  0  0  0  0  0  0  0  0  0
   18.5568   20.2157   22.7545 H   0  0  0  0  0  0  0  0  0  0  0  0
   20.3441   18.8875   23.1299 C   0  0  0  0  0  0  0  0  0  0  0  0
   21.4378   18.9645   23.1028 H   0  0  0  0  0  0  0  0  0  0  0  0
   20.0364   18.6613   24.1570 H   0  0  0  0  0  0  0  0  0  0  0  0
   19.7431   17.9699   22.0204 C   0  0  0  0  0  0  0  0  0  0  0  0
   20.4011   17.1567   21.6886 H   0  0  0  0  0  0  0  0  0  0  0  0
   19.7615   19.2390   21.1131 C   0  0  0  0  0  0  0  0  0  0  0  0
   20.7124   19.4022   20.5915 H   0  0  0  0  0  0  0  0  0  0  0  0
   18.9467   19.3187   20.3847 H   0  0  0  0  0  0  0  0  0  0  0  0
   18.4564   17.4640   22.3039 O   0  0  0  0  0  0  0  0  0  0  0  0
   17.9166   18.2284   22.5931 H   0  0  0  0  0  0  0  0  0  0  0  0
  1  2  1  0  0  0  0
  1  3  1  0  0  0  0
  1  4  1  0  0  0  0
  4  5  1  0  0  0  0
  4  6  1  0  0  0  0
  4  7  1  0  0  0  0
  7  8  1  0  0  0  0
  1  9  1  0  0  0  0
  7  9  1  0  0  0  0
  9 10  1  0  0  0  0
  9 11  1  0  0  0  0
  7 12  1  0  0  0  0
 12 13  1  0  0  0  0
M  END
> <VConfSearch Rank>
320

> <Conf_Id>
44

> <Delta U+W>
0.823

> <U+W>
-2.308

> <U>
0.039

> <W>
-2.348

> <W(PB)>
-3.918

> <W(SA)>
1.571

> <Valence>
7.320

> <Coulomb>
-8.530

> <VdW>
1.249

> <VdW6>
-2.615

> <VdW12>
3.864

> <Bond>
0.056

> <Angle>
0.694

> <Pdih>
6.570

> <Idih>
0.000

> <Tether>
0.000

$$$$
VeraChem MOL file


 13 13  0  0  0  0  0  0  0  0999 V2000     
   20.1213   19.8757   21.3310 C   0  0  0  0  0  0  0  0  0  0  0  0
   20.7798   19.3971   20.5942 H   0  0  0  0  0  0  0  0  0  0  0  0
   19.9889   20.9277   21.0515 H   0  0  0  0  0  0  0  0  0  0  0  0
   20.5030   19.6043   22.8236 C   0  0  0  0  0  0  0  0  0  0  0  0
   21.5710   19.4852   23.0358 H   0  0  0  0  0  0  0  0  0  0  0  0
   20.0772   20.3144   23.5435 H   0  0  0  0  0  0  0  0  0  0  0  0
   19.6923   18.2829   22.6638 C   0  0  0  0  0  0  0  0  0  0  0  0
   20.2652   17.4645   22.2067 H   0  0  0  0  0  0  0  0  0  0  0  0
   18.8132   19.0807   21.6539 C   0  0  0  0  0  0  0  0  0  0  0  0
   18.3860   18.4997   20.8292 H   0  0  0  0  0  0  0  0  0  0  0  0
   18.0165   19.6775   22.1153 H   0  0  0  0  0  0  0  0  0  0  0  0
   19.0267   17.8406   23.8239 O   0  0  0  0  0  0  0  0  0  0  0  0
   18.4315   17.1077   23.5559 H   0  0  0  0  0  0  0  0  0  0  0  0
  1  2  1  0  0  0  0
  1  3  1  0  0  0  0
  1  4  1  0  0  0  0
  4  5  1  0  0  0  0
  4  6  1  0  0  0  0
  4  7  1  0  0  0  0
  7  8  1  0  0  0  0
  1  9  1  0  0  0  0
  7  9  1  0  0  0  0
  9 10  1  0  0  0  0
  9 11  1  0  0  0  0
  7 12  1  0  0  0  0
 12 13  1  0  0  0  0
M  END
> <VConfSearch Rank>
321

> <Conf_Id>
22

> <Delta U+W>
0.000

> <U+W>
-3.131

> <U>
-0.154

> <W>
-2.978

> <W(PB)>
-4.579

> <W(SA)>
1.601

> <Valence>
6.333

> <Coulomb>
-7.439

> <VdW>
0.952

> <VdW6>
-2.120

> <VdW12>
3.072

> <Bond>
0.065

> <Angle>
0.931

> <Pdih>
5.338

> <Idih>
0.000

> <Tether>
0.000

$$$$
VeraChem MOL file


 13 13  0  0  0  0  0  0  0  0999 V2000     
   20.9036   18.9167   22.5888 C   0  0  0  0  0  0  0  0  0  0  0  0
   21.1241   18.2501   23.4329 H   0  0  0  0  0  0  0  0  0  0  0  0
   21.8263   19.4344   22.3008 H   0  0  0  0  0  0  0  0  0  0  0  0
   19.6403   19.8193   22.7800 C   0  0  0  0  0  0  0  0  0  0  0  0
   19.5982   20.6943   22.1194 H   0  0  0  0  0  0  0  0  0  0  0  0
   19.4284   20.1412   23.8056 H   0  0  0  0  0  0  0  0  0  0  0  0
   18.8326   18.5862   22.2738 C   0  0  0  0  0  0  0  0  0  0  0  0
   18.6157   17.8443   23.0545 H   0  0  0  0  0  0  0  0  0  0  0  0
   20.0963   18.2533   21.4246 C   0  0  0  0  0  0  0  0  0  0  0  0
   20.1521   18.7836   20.4658 H   0  0  0  0  0  0  0  0  0  0  0  0
   20.2858   17.1886   21.2499 H   0  0  0  0  0  0  0  0  0  0  0  0
   17.6723   18.8880   21.5342 O   0  0  0  0  0  0  0  0  0  0  0  0
   17.0064   19.2343   22.1666 H   0  0  0  0  0  0  0  0  0  0  0  0
  1  2  1  0  0  0  0
  1  3  1  0  0  0  0
  1  4  1  0  0  0  0
  4  5  1  0  0  0  0
  4  6  1  0  0  0  0
  4  7  1  0  0  0  0
  7  8  1  0  0  0  0
  1  9  1  0  0  0  0
  7  9  1  0  0  0  0
  9 10  1  0  0  0  0
  9 11  1  0  0  0  0
  7 12  1  0  0  0  0
 12 13  1  0  0  0  0
M  END
> <VConfSearch Rank>
322

> <Conf_Id>
19

> <Delta U+W>
-0.011

> <U+W>
-3.142

> <U>
-0.154

> <W>
-2.989

> <W(PB)>
-4.588

> <W(SA)>
1.599

> <Valence>
6.334

> <Coulomb>
-7.439

> <VdW>
0.951

> <VdW6>
-2.120

> <VdW12>
3.072

> <Bond>
0.065

> <Angle>
0.930

> <Pdih>
5.339

> <Idih>
0.000

> <Tether>
0.000

$$$$
VeraChem MOL file


 13 13  0  0  0  0  0  0  0  0999 V2000     
   19.1231   19.0414   21.1587 C   0  0  0  0  0  0  0  0  0  0  0  0
   18.4375   18.5103   20.4879 H   0  0  0  0  0  0  0  0  0  0  0  0
   19.4544   19.9636   20.6639 H   0  0  0  0  0  0  0  0  0  0  0  0
   20.2775   18.1871   21.7805 C   0  0  0  0  0  0  0  0  0  0  0  0
   20.0256   17.1323   21.9442 H   0  0  0  0  0  0  0  0  0  0  0  0
   21.2450   18.2411   21.2693 H   0  0  0  0  0  0  0  0  0  0  0  0
   20.1298   19.0841   23.0490 C   0  0  0  0  0  0  0  0  0  0  0  0
   20.2923   18.5609   24.0002 H   0  0  0  0  0  0  0  0  0  0  0  0
   18.6331   19.2338   22.6324 C   0  0  0  0  0  0  0  0  0  0  0  0
   18.1655   20.1978   22.8611 H   0  0  0  0  0  0  0  0  0  0  0  0
   17.9819   18.4326   23.0025 H   0  0  0  0  0  0  0  0  0  0  0  0
   20.8802   20.2817   23.0212 O   0  0  0  0  0  0  0  0  0  0  0  0
   20.5758   20.8329   23.7733 H   0  0  0  0  0  0  0  0  0  0  0  0
  1  2  1  0  0  0  0
  1  3  1  0  0  0  0
  1  4  1  0  0  0  0
  4  5  1  0  0  0  0
  4  6  1  0  0  0  0
  4  7  1  0  0  0  0
  7  8  1  0  0  0  0
  1  9  1  0  0  0  0
  7  9  1  0  0  0  0
  9 10  1  0  0  0  0
  9 11  1  0  0  0  0
  7 12  1  0  0  0  0
 12 13  1  0  0  0  0
M  END
> <VConfSearch Rank>
323

> <Conf_Id>
20

> <Delta U+W>
1.030

> <U+W>
-2.101

> <U>
0.841

> <W>
-2.942

> <W(PB)>
-4.530

> <W(SA)>
1.587

> <Valence>
6.736

> <Coulomb>
-7.246

> <VdW>
1.352

> <VdW6>
-2.500

> <VdW12>
3.851

> <Bond>
0.063

> <Angle>
0.687

> <Pdih>
5.986

> <Idih>
0.000

> <Tether>
0.000

$$$$
VeraChem MOL file


 13 13  0  0  0  0  0  0  0  0999 V2000     
   18.6141   18.4701   21.8567 C   0  0  0  0  0  0  0  0  0  0  0  0
   18.5034   18.1250   20.8202 H   0  0  0  0  0  0  0  0  0  0  0  0
   17.6650   18.3101   22.3821 H   0  0  0  0  0  0  0  0  0  0  0  0
   19.2526   19.8902   22.0086 C   0  0  0  0  0  0  0  0  0  0  0  0
   19.0335   20.6055   21.2082 H   0  0  0  0  0  0  0  0  0  0  0  0
   19.0657   20.3749   22.9747 H   0  0  0  0  0  0  0  0  0  0  0  0
   20.6210   19.1519   21.9003 C   0  0  0  0  0  0  0  0  0  0  0  0
   20.9361   18.9498   20.8676 H   0  0  0  0  0  0  0  0  0  0  0  0
   19.8984   17.9525   22.5848 C   0  0  0  0  0  0  0  0  0  0  0  0
   19.8558   18.0041   23.6797 H   0  0  0  0  0  0  0  0  0  0  0  0
   20.2495   16.9565   22.2932 H   0  0  0  0  0  0  0  0  0  0  0  0
   21.6757   19.7226   22.6376 O   0  0  0  0  0  0  0  0  0  0  0  0
   21.3378   19.8796   23.5442 H   0  0  0  0  0  0  0  0  0  0  0  0
  1  2  1  0  0  0  0
  1  3  1  0  0  0  0
  1  4  1  0  0  0  0
  4  5  1  0  0  0  0
  4  6  1  0  0  0  0
  4  7  1  0  0  0  0
  7  8  1  0  0  0  0
  1  9  1  0  0  0  0
  7  9  1  0  0  0  0
  9 10  1  0  0  0  0
  9 11  1  0  0  0  0
  7 12  1  0  0  0  0
 12 13  1  0  0  0  0
M  END
> <VConfSearch Rank>
324

> <Conf_Id>
24

> <Delta U+W>
0.356

> <U+W>
-2.775

> <U>
-0.184

> <W>
-2.591

> <W(PB)>
-4.184

> <W(SA)>
1.593

> <Valence>
6.840

> <Coulomb>
-7.916

> <VdW>
0.893

> <VdW6>
-2.167

> <VdW12>
3.060

> <Bond>
0.059

> <Angle>
0.918

> <Pdih>
5.862

> <Idih>
0.000

> <Tether>
0.000

$$$$
VeraChem MOL file


 13 13  0  0  0  0  0  0  0  0999 V2000     
   19.1499   18.6374   21.2820 C   0  0  0  0  0  0  0  0  0  0  0  0
   18.1852   18.3438   20.8512 H   0  0  0  0  0  0  0  0  0  0  0  0
   19.9103   18.5921   20.4921 H   0  0  0  0  0  0  0  0  0  0  0  0
   19.5465   17.9273   22.6193 C   0  0  0  0  0  0  0  0  0  0  0  0
   18.6962   17.6430   23.2511 H   0  0  0  0  0  0  0  0  0  0  0  0
   20.2164   17.0649   22.5283 H   0  0  0  0  0  0  0  0  0  0  0  0
   20.2204   19.2739   23.0275 C   0  0  0  0  0  0  0  0  0  0  0  0
   20.1470   19.5211   24.0943 H   0  0  0  0  0  0  0  0  0  0  0  0
   19.1506   19.9585   22.1215 C   0  0  0  0  0  0  0  0  0  0  0  0
   18.2032   20.1722   22.6313 H   0  0  0  0  0  0  0  0  0  0  0  0
   19.4757   20.8641   21.5972 H   0  0  0  0  0  0  0  0  0  0  0  0
   21.5528   19.4259   22.5878 O   0  0  0  0  0  0  0  0  0  0  0  0
   21.5577   19.1936   21.6363 H   0  0  0  0  0  0  0  0  0  0  0  0
  1  2  1  0  0  0  0
  1  3  1  0  0  0  0
  1  4  1  0  0  0  0
  4  5  1  0  0  0  0
  4  6  1  0  0  0  0
  4  7  1  0  0  0  0
  7  8  1  0  0  0  0
  1  9  1  0  0  0  0
  7  9  1  0  0  0  0
  9 10  1  0  0  0  0
  9 11  1  0  0  0  0
  7 12  1  0  0  0  0
 12 13  1  0  0  0  0
M  END
> <VConfSearch Rank>
325

> <Conf_Id>
44

> <Delta U+W>
0.823

> <U+W>
-2.308

> <U>
0.039

> <W>
-2.348

> <W(PB)>
-3.918

> <W(SA)>
1.571

> <Valence>
7.320

> <Coulomb>
-8.530

> <VdW>
1.249

> <VdW6>
-2.615

> <VdW12>
3.864

> <Bond>
0.056

> <Angle>
0.694

> <Pdih>
6.570

> <Idih>
0.000

> <Tether>
0.000

$$$$
VeraChem MOL file


 13 13  0  0  0  0  0  0  0  0999 V2000     
   19.7277   17.7259   22.3045 C   0  0  0  0  0  0  0  0  0  0  0  0
   18.7501   17.2386   22.1936 H   0  0  0  0  0  0  0  0  0  0  0  0
   20.4991   16.9504   22.3814 H   0  0  0  0  0  0  0  0  0  0  0  0
   19.7775   18.8541   23.3871 C   0  0  0  0  0  0  0  0  0  0  0  0
   19.1294   18.7163   24.2594 H   0  0  0  0  0  0  0  0  0  0  0  0
   20.7853   19.1144   23.7339 H   0  0  0  0  0  0  0  0  0  0  0  0
   19.2193   19.7845   22.2684 C   0  0  0  0  0  0  0  0  0  0  0  0
   18.1282   19.7309   22.1513 H   0  0  0  0  0  0  0  0  0  0  0  0
   20.0071   18.8737   21.2789 C   0  0  0  0  0  0  0  0  0  0  0  0
   19.5627   18.7511   20.2851 H   0  0  0  0  0  0  0  0  0  0  0  0
   21.0660   19.1362   21.1624 H   0  0  0  0  0  0  0  0  0  0  0  0
   19.6508   21.1242   22.3282 O   0  0  0  0  0  0  0  0  0  0  0  0
   19.3696   21.5576   21.4938 H   0  0  0  0  0  0  0  0  0  0  0  0
  1  2  1  0  0  0  0
  1  3  1  0  0  0  0
  1  4  1  0  0  0  0
  4  5  1  0  0  0  0
  4  6  1  0  0  0  0
  4  7  1  0  0  0  0
  7  8  1  0  0  0  0
  1  9  1  0  0  0  0
  7  9  1  0  0  0  0
  9 10  1  0  0  0  0
  9 11  1  0  0  0  0
  7 12  1  0  0  0  0
 12 13  1  0  0  0  0
M  END
> <VConfSearch Rank>
326

> <Conf_Id>
22

> <Delta U+W>
0.000

> <U+W>
-3.131

> <U>
-0.154

> <W>
-2.978

> <W(PB)>
-4.579

> <W(SA)>
1.601

> <Valence>
6.333

> <Coulomb>
-7.439

> <VdW>
0.952

> <VdW6>
-2.120

> <VdW12>
3.072

> <Bond>
0.065

> <Angle>
0.931

> <Pdih>
5.338

> <Idih>
0.000

> <Tether>
0.000

$$$$
VeraChem MOL file


 13 13  0  0  0  0  0  0  0  0999 V2000     
   19.3916   18.0965   23.2445 C   0  0  0  0  0  0  0  0  0  0  0  0
   18.7732   17.2353   22.9593 H   0  0  0  0  0  0  0  0  0  0  0  0
   19.5950   18.0408   24.3205 H   0  0  0  0  0  0  0  0  0  0  0  0
   18.8786   19.4755   22.7128 C   0  0  0  0  0  0  0  0  0  0  0  0
   19.2776   20.3485   23.2443 H   0  0  0  0  0  0  0  0  0  0  0  0
   17.7921   19.5836   22.6227 H   0  0  0  0  0  0  0  0  0  0  0  0
   19.6372   19.1141   21.4002 C   0  0  0  0  0  0  0  0  0  0  0  0
   19.0692   18.4627   20.7219 H   0  0  0  0  0  0  0  0  0  0  0  0
   20.6309   18.3462   22.3231 C   0  0  0  0  0  0  0  0  0  0  0  0
   21.4151   18.9720   22.7668 H   0  0  0  0  0  0  0  0  0  0  0  0
   21.0957   17.4558   21.8859 H   0  0  0  0  0  0  0  0  0  0  0  0
   20.1864   20.2069   20.7010 O   0  0  0  0  0  0  0  0  0  0  0  0
   19.4396   20.6966   20.2941 H   0  0  0  0  0  0  0  0  0  0  0  0
  1  2  1  0  0  0  0
  1  3  1  0  0  0  0
  1  4  1  0  0  0  0
  4  5  1  0  0  0  0
  4  6  1  0  0  0  0
  4  7  1  0  0  0  0
  7  8  1  0  0  0  0
  1  9  1  0  0  0  0
  7  9  1  0  0  0  0
  9 10  1  0  0  0  0
  9 11  1  0  0  0  0
  7 12  1  0  0  0  0
 12 13  1  0  0  0  0
M  END
> <VConfSearch Rank>
327

> <Conf_Id>
19

> <Delta U+W>
-0.011

> <U+W>
-3.142

> <U>
-0.154

> <W>
-2.989

> <W(PB)>
-4.588

> <W(SA)>
1.599

> <Valence>
6.334

> <Coulomb>
-7.439

> <VdW>
0.951

> <VdW6>
-2.120

> <VdW12>
3.072

> <Bond>
0.065

> <Angle>
0.930

> <Pdih>
5.339

> <Idih>
0.000

> <Tether>
0.000

$$$$
VeraChem MOL file


 13 13  0  0  0  0  0  0  0  0999 V2000     
   18.6601   18.3370   22.0390 C   0  0  0  0  0  0  0  0  0  0  0  0
   17.8132   17.7933   22.4739 H   0  0  0  0  0  0  0  0  0  0  0  0
   18.5974   18.2675   20.9451 H   0  0  0  0  0  0  0  0  0  0  0  0
   20.0697   18.0037   22.6313 C   0  0  0  0  0  0  0  0  0  0  0  0
   20.0622   17.7164   23.6896 H   0  0  0  0  0  0  0  0  0  0  0  0
   20.6652   17.2723   22.0738 H   0  0  0  0  0  0  0  0  0  0  0  0
   20.4254   19.5020   22.3780 C   0  0  0  0  0  0  0  0  0  0  0  0
   21.0832   19.9497   23.1341 H   0  0  0  0  0  0  0  0  0  0  0  0
   18.9042   19.7827   22.5859 C   0  0  0  0  0  0  0  0  0  0  0  0
   18.4811   20.5993   21.9906 H   0  0  0  0  0  0  0  0  0  0  0  0
   18.6135   19.9267   23.6336 H   0  0  0  0  0  0  0  0  0  0  0  0
   20.9136   19.7866   21.0823 O   0  0  0  0  0  0  0  0  0  0  0  0
   20.9329   20.7626   20.9869 H   0  0  0  0  0  0  0  0  0  0  0  0
  1  2  1  0  0  0  0
  1  3  1  0  0  0  0
  1  4  1  0  0  0  0
  4  5  1  0  0  0  0
  4  6  1  0  0  0  0
  4  7  1  0  0  0  0
  7  8  1  0  0  0  0
  1  9  1  0  0  0  0
  7  9  1  0  0  0  0
  9 10  1  0  0  0  0
  9 11  1  0  0  0  0
  7 12  1  0  0  0  0
 12 13  1  0  0  0  0
M  END
> <VConfSearch Rank>
328

> <Conf_Id>
20

> <Delta U+W>
1.030

> <U+W>
-2.101

> <U>
0.841

> <W>
-2.942

> <W(PB)>
-4.530

> <W(SA)>
1.587

> <Valence>
6.736

> <Coulomb>
-7.246

> <VdW>
1.352

> <VdW6>
-2.500

> <VdW12>
3.851

> <Bond>
0.063

> <Angle>
0.687

> <Pdih>
5.986

> <Idih>
0.000

> <Tether>
0.000

$$$$
VeraChem MOL file


 13 13  0  0  0  0  0  0  0  0999 V2000     
   18.5602   19.2216   21.8089 C   0  0  0  0  0  0  0  0  0  0  0  0
   17.8555   19.6535   22.5318 H   0  0  0  0  0  0  0  0  0  0  0  0
   18.0496   19.1132   20.8445 H   0  0  0  0  0  0  0  0  0  0  0  0
   19.3343   17.9627   22.3220 C   0  0  0  0  0  0  0  0  0  0  0  0
   18.7928   17.3153   23.0205 H   0  0  0  0  0  0  0  0  0  0  0  0
   19.7706   17.3401   21.5312 H   0  0  0  0  0  0  0  0  0  0  0  0
   20.3182   18.9835   22.9694 C   0  0  0  0  0  0  0  0  0  0  0  0
   19.9833   19.3670   23.9428 H   0  0  0  0  0  0  0  0  0  0  0  0
   19.9629   19.9130   21.7699 C   0  0  0  0  0  0  0  0  0  0  0  0
   20.5397   19.7264   20.8556 H   0  0  0  0  0  0  0  0  0  0  0  0
   19.9767   20.9880   21.9808 H   0  0  0  0  0  0  0  0  0  0  0  0
   21.6619   18.5691   23.0357 O   0  0  0  0  0  0  0  0  0  0  0  0
   21.9030   18.2392   22.1448 H   0  0  0  0  0  0  0  0  0  0  0  0
  1  2  1  0  0  0  0
  1  3  1  0  0  0  0
  1  4  1  0  0  0  0
  4  5  1  0  0  0  0
  4  6  1  0  0  0  0
  4  7  1  0  0  0  0
  7  8  1  0  0  0  0
  1  9  1  0  0  0  0
  7  9  1  0  0  0  0
  9 10  1  0  0  0  0
  9 11  1  0  0  0  0
  7 12  1  0  0  0  0
 12 13  1  0  0  0  0
M  END
> <VConfSearch Rank>
329

> <Conf_Id>
24

> <Delta U+W>
0.356

> <U+W>
-2.775

> <U>
-0.184

> <W>
-2.591

> <W(PB)>
-4.184

> <W(SA)>
1.593

> <Valence>
6.840

> <Coulomb>
-7.916

> <VdW>
0.893

> <VdW6>
-2.167

> <VdW12>
3.060

> <Bond>
0.059

> <Angle>
0.918

> <Pdih>
5.862

> <Idih>
0.000

> <Tether>
0.000

$$$$
VeraChem MOL file


 13 13  0  0  0  0  0  0  0  0999 V2000     
   18.6975   18.5483   22.5193 C   0  0  0  0  0  0  0  0  0  0  0  0
   17.9368   18.5022   23.3078 H   0  0  0  0  0  0  0  0  0  0  0  0
   18.3612   17.9307   21.6768 H   0  0  0  0  0  0  0  0  0  0  0  0
   20.1726   18.2921   22.9760 C   0  0  0  0  0  0  0  0  0  0  0  0
   20.3895   18.6049   24.0047 H   0  0  0  0  0  0  0  0  0  0  0  0
   20.5524   17.2741   22.8343 H   0  0  0  0  0  0  0  0  0  0  0  0
   20.5919   19.3333   21.8924 C   0  0  0  0  0  0  0  0  0  0  0  0
   21.4451   19.9663   22.1676 H   0  0  0  0  0  0  0  0  0  0  0  0
   19.1925   19.9811   22.1292 C   0  0  0  0  0  0  0  0  0  0  0  0
   19.1691   20.7080   22.9502 H   0  0  0  0  0  0  0  0  0  0  0  0
   18.7192   20.4332   21.2504 H   0  0  0  0  0  0  0  0  0  0  0  0
   20.7851   18.7979   20.6010 O   0  0  0  0  0  0  0  0  0  0  0  0
   19.9988   18.2460   20.4103 H   0  0  0  0  0  0  0  0  0  0  0  0
  1  2  1  0  0  0  0
  1  3  1  0  0  0  0
  1  4  1  0  0  0  0
  4  5  1  0  0  0  0
  4  6  1  0  0  0  0
  4  7  1  0  0  0  0
  7  8  1  0  0  0  0
  1  9  1  0  0  0  0
  7  9  1  0  0  0  0
  9 10  1  0  0  0  0
  9 11  1  0  0  0  0
  7 12  1  0  0  0  0
 12 13  1  0  0  0  0
M  END
> <VConfSearch Rank>
330

> <Conf_Id>
44

> <Delta U+W>
0.823

> <U+W>
-2.308

> <U>
0.039

> <W>
-2.348

> <W(PB)>
-3.918

> <W(SA)>
1.571

> <Valence>
7.320

> <Coulomb>
-8.530

> <VdW>
1.249

> <VdW6>
-2.615

> <VdW12>
3.864

> <Bond>
0.056

> <Angle>
0.694

> <Pdih>
6.570

> <Idih>
0.000

> <Tether>
0.000

$$$$
VeraChem MOL file


 13 13  0  0  0  0  0  0  0  0999 V2000     
   20.6031   19.4110   23.1026 C   0  0  0  0  0  0  0  0  0  0  0  0
   21.3116   18.6085   23.3468 H   0  0  0  0  0  0  0  0  0  0  0  0
   20.9197   20.3263   23.6167 H   0  0  0  0  0  0  0  0  0  0  0  0
   19.0956   19.0226   23.2571 C   0  0  0  0  0  0  0  0  0  0  0  0
   18.8603   18.3030   24.0489 H   0  0  0  0  0  0  0  0  0  0  0  0
   18.4075   19.8732   23.3374 H   0  0  0  0  0  0  0  0  0  0  0  0
   19.2264   18.4313   21.8211 C   0  0  0  0  0  0  0  0  0  0  0  0
   19.6457   17.4161   21.7967 H   0  0  0  0  0  0  0  0  0  0  0  0
   20.2779   19.5560   21.5792 C   0  0  0  0  0  0  0  0  0  0  0  0
   21.0906   19.3096   20.8871 H   0  0  0  0  0  0  0  0  0  0  0  0
   19.8510   20.5251   21.2922 H   0  0  0  0  0  0  0  0  0  0  0  0
   18.0645   18.5119   21.0285 O   0  0  0  0  0  0  0  0  0  0  0  0
   18.3189   18.2634   20.1138 H   0  0  0  0  0  0  0  0  0  0  0  0
  1  2  1  0  0  0  0
  1  3  1  0  0  0  0
  1  4  1  0  0  0  0
  4  5  1  0  0  0  0
  4  6  1  0  0  0  0
  4  7  1  0  0  0  0
  7  8  1  0  0  0  0
  1  9  1  0  0  0  0
  7  9  1  0  0  0  0
  9 10  1  0  0  0  0
  9 11  1  0  0  0  0
  7 12  1  0  0  0  0
 12 13  1  0  0  0  0
M  END
> <VConfSearch Rank>
331

> <Conf_Id>
22

> <Delta U+W>
0.000

> <U+W>
-3.131

> <U>
-0.154

> <W>
-2.978

> <W(PB)>
-4.579

> <W(SA)>
1.601

> <Valence>
6.333

> <Coulomb>
-7.439

> <VdW>
0.952

> <VdW6>
-2.120

> <VdW12>
3.072

> <Bond>
0.065

> <Angle>
0.931

> <Pdih>
5.338

> <Idih>
0.000

> <Tether>
0.000

$$$$
VeraChem MOL file


 13 13  0  0  0  0  0  0  0  0999 V2000     
   19.6365   20.2369   22.3941 C   0  0  0  0  0  0  0  0  0  0  0  0
   18.6648   20.7050   22.1883 H   0  0  0  0  0  0  0  0  0  0  0  0
   20.3642   21.0253   22.6206 H   0  0  0  0  0  0  0  0  0  0  0  0
   20.0849   19.1695   21.3420 C   0  0  0  0  0  0  0  0  0  0  0  0
   21.1584   18.9433   21.3479 H   0  0  0  0  0  0  0  0  0  0  0  0
   19.7677   19.3480   20.3087 H   0  0  0  0  0  0  0  0  0  0  0  0
   19.2087   18.1731   22.1597 C   0  0  0  0  0  0  0  0  0  0  0  0
   18.1405   18.2060   21.9051 H   0  0  0  0  0  0  0  0  0  0  0  0
   19.5861   19.0392   23.3992 C   0  0  0  0  0  0  0  0  0  0  0  0
   20.5494   18.7822   23.8569 H   0  0  0  0  0  0  0  0  0  0  0  0
   18.8270   19.1002   24.1866 H   0  0  0  0  0  0  0  0  0  0  0  0
   19.6752   16.8442   22.1891 O   0  0  0  0  0  0  0  0  0  0  0  0
   19.5187   16.4614   21.2990 H   0  0  0  0  0  0  0  0  0  0  0  0
  1  2  1  0  0  0  0
  1  3  1  0  0  0  0
  1  4  1  0  0  0  0
  4  5  1  0  0  0  0
  4  6  1  0  0  0  0
  4  7  1  0  0  0  0
  7  8  1  0  0  0  0
  1  9  1  0  0  0  0
  7  9  1  0  0  0  0
  9 10  1  0  0  0  0
  9 11  1  0  0  0  0
  7 12  1  0  0  0  0
 12 13  1  0  0  0  0
M  END
> <VConfSearch Rank>
332

> <Conf_Id>
19

> <Delta U+W>
-0.011

> <U+W>
-3.142

> <U>
-0.154

> <W>
-2.989

> <W(PB)>
-4.588

> <W(SA)>
1.599

> <Valence>
6.334

> <Coulomb>
-7.439

> <VdW>
0.951

> <VdW6>
-2.120

> <VdW12>
3.072

> <Bond>
0.065

> <Angle>
0.930

> <Pdih>
5.339

> <Idih>
0.000

> <Tether>
0.000

$$$$
VeraChem MOL file


 13 13  0  0  0  0  0  0  0  0999 V2000     
   20.6891   19.3581   21.7250 C   0  0  0  0  0  0  0  0  0  0  0  0
   21.7144   19.0382   21.5049 H   0  0  0  0  0  0  0  0  0  0  0  0
   20.4961   20.3032   21.2008 H   0  0  0  0  0  0  0  0  0  0  0  0
   20.2765   19.3567   23.2346 C   0  0  0  0  0  0  0  0  0  0  0  0
   20.7760   18.5923   23.8420 H   0  0  0  0  0  0  0  0  0  0  0  0
   20.3478   20.3188   23.7538 H   0  0  0  0  0  0  0  0  0  0  0  0
   18.8501   18.9539   22.7462 C   0  0  0  0  0  0  0  0  0  0  0  0
   18.3172   18.2627   23.4119 H   0  0  0  0  0  0  0  0  0  0  0  0
   19.5754   18.2741   21.5429 C   0  0  0  0  0  0  0  0  0  0  0  0
   19.0395   18.2918   20.5874 H   0  0  0  0  0  0  0  0  0  0  0  0
   19.9053   17.2469   21.7399 H   0  0  0  0  0  0  0  0  0  0  0  0
   18.0108   20.0382   22.4026 O   0  0  0  0  0  0  0  0  0  0  0  0
   17.2235   19.6649   21.9520 H   0  0  0  0  0  0  0  0  0  0  0  0
  1  2  1  0  0  0  0
  1  3  1  0  0  0  0
  1  4  1  0  0  0  0
  4  5  1  0  0  0  0
  4  6  1  0  0  0  0
  4  7  1  0  0  0  0
  7  8  1  0  0  0  0
  1  9  1  0  0  0  0
  7  9  1  0  0  0  0
  9 10  1  0  0  0  0
  9 11  1  0  0  0  0
  7 12  1  0  0  0  0
 12 13  1  0  0  0  0
M  END
> <VConfSearch Rank>
333

> <Conf_Id>
20

> <Delta U+W>
1.030

> <U+W>
-2.101

> <U>
0.841

> <W>
-2.942

> <W(PB)>
-4.530

> <W(SA)>
1.587

> <Valence>
6.736

> <Coulomb>
-7.246

> <VdW>
1.352

> <VdW6>
-2.500

> <VdW12>
3.851

> <Bond>
0.063

> <Angle>
0.687

> <Pdih>
5.986

> <Idih>
0.000

> <Tether>
0.000

$$$$
VeraChem MOL file


 13 13  0  0  0  0  0  0  0  0999 V2000     
   19.0010   19.4292   23.1396 C   0  0  0  0  0  0  0  0  0  0  0  0
   17.9789   19.7308   22.8750 H   0  0  0  0  0  0  0  0  0  0  0  0
   19.1561   19.6183   24.2085 H   0  0  0  0  0  0  0  0  0  0  0  0
   20.1113   19.9679   22.1782 C   0  0  0  0  0  0  0  0  0  0  0  0
   19.9237   20.9481   21.7261 H   0  0  0  0  0  0  0  0  0  0  0  0
   21.1238   19.9631   22.6003 H   0  0  0  0  0  0  0  0  0  0  0  0
   19.7670   18.7353   21.2886 C   0  0  0  0  0  0  0  0  0  0  0  0
   18.9022   18.8910   20.6294 H   0  0  0  0  0  0  0  0  0  0  0  0
   19.4187   18.0122   22.6247 C   0  0  0  0  0  0  0  0  0  0  0  0
   20.2764   17.5703   23.1467 H   0  0  0  0  0  0  0  0  0  0  0  0
   18.6194   17.2652   22.5670 H   0  0  0  0  0  0  0  0  0  0  0  0
   20.8465   18.1887   20.5691 O   0  0  0  0  0  0  0  0  0  0  0  0
   21.5836   18.0728   21.2048 H   0  0  0  0  0  0  0  0  0  0  0  0
  1  2  1  0  0  0  0
  1  3  1  0  0  0  0
  1  4  1  0  0  0  0
  4  5  1  0  0  0  0
  4  6  1  0  0  0  0
  4  7  1  0  0  0  0
  7  8  1  0  0  0  0
  1  9  1  0  0  0  0
  7  9  1  0  0  0  0
  9 10  1  0  0  0  0
  9 11  1  0  0  0  0
  7 12  1  0  0  0  0
 12 13  1  0  0  0  0
M  END
> <VConfSearch Rank>
334

> <Conf_Id>
24

> <Delta U+W>
0.356

> <U+W>
-2.775

> <U>
-0.184

> <W>
-2.591

> <W(PB)>
-4.184

> <W(SA)>
1.593

> <Valence>
6.840

> <Coulomb>
-7.916

> <VdW>
0.893

> <VdW6>
-2.167

> <VdW12>
3.060

> <Bond>
0.059

> <Angle>
0.918

> <Pdih>
5.862

> <Idih>
0.000

> <Tether>
0.000

$$$$
VeraChem MOL file


 13 13  0  0  0  0  0  0  0  0999 V2000     
   20.0425   20.0059   21.9405 C   0  0  0  0  0  0  0  0  0  0  0  0
   20.8836   20.7094   21.9433 H   0  0  0  0  0  0  0  0  0  0  0  0
   19.1742   20.5056   21.4926 H   0  0  0  0  0  0  0  0  0  0  0  0
   19.7560   19.2768   23.2957 C   0  0  0  0  0  0  0  0  0  0  0  0
   20.6440   19.1105   23.9176 H   0  0  0  0  0  0  0  0  0  0  0  0
   18.9691   19.7123   23.9218 H   0  0  0  0  0  0  0  0  0  0  0  0
   19.3395   18.0421   22.4378 C   0  0  0  0  0  0  0  0  0  0  0  0
   19.6034   17.0693   22.8720 H   0  0  0  0  0  0  0  0  0  0  0  0
   20.3460   18.5789   21.3735 C   0  0  0  0  0  0  0  0  0  0  0  0
   21.3787   18.2414   21.5241 H   0  0  0  0  0  0  0  0  0  0  0  0
   20.0728   18.4068   20.3264 H   0  0  0  0  0  0  0  0  0  0  0  0
   17.9898   18.0362   22.0256 O   0  0  0  0  0  0  0  0  0  0  0  0
   17.8121   18.9228   21.6492 H   0  0  0  0  0  0  0  0  0  0  0  0
  1  2  1  0  0  0  0
  1  3  1  0  0  0  0
  1  4  1  0  0  0  0
  4  5  1  0  0  0  0
  4  6  1  0  0  0  0
  4  7  1  0  0  0  0
  7  8  1  0  0  0  0
  1  9  1  0  0  0  0
  7  9  1  0  0  0  0
  9 10  1  0  0  0  0
  9 11  1  0  0  0  0
  7 12  1  0  0  0  0
 12 13  1  0  0  0  0
M  END
> <VConfSearch Rank>
335

> <Conf_Id>
44

> <Delta U+W>
0.823

> <U+W>
-2.308

> <U>
0.039

> <W>
-2.348

> <W(PB)>
-3.918

> <W(SA)>
1.571

> <Valence>
7.320

> <Coulomb>
-8.530

> <VdW>
1.249

> <VdW6>
-2.615

> <VdW12>
3.864

> <Bond>
0.056

> <Angle>
0.694

> <Pdih>
6.570

> <Idih>
0.000

> <Tether>
0.000

$$$$
VeraChem MOL file


 13 13  0  0  0  0  0  0  0  0999 V2000     
   19.8186   17.8830   21.6377 C   0  0  0  0  0  0  0  0  0  0  0  0
   20.8409   17.7096   21.2767 H   0  0  0  0  0  0  0  0  0  0  0  0
   19.2156   16.9926   21.4233 H   0  0  0  0  0  0  0  0  0  0  0  0
   19.1969   19.2532   21.2093 C   0  0  0  0  0  0  0  0  0  0  0  0
   19.5096   19.6424   20.2343 H   0  0  0  0  0  0  0  0  0  0  0  0
   18.1029   19.3022   21.2746 H   0  0  0  0  0  0  0  0  0  0  0  0
   19.9442   19.8401   22.4446 C   0  0  0  0  0  0  0  0  0  0  0  0
   20.9984   20.0815   22.2509 H   0  0  0  0  0  0  0  0  0  0  0  0
   19.7251   18.4413   23.0960 C   0  0  0  0  0  0  0  0  0  0  0  0
   20.5051   18.1099   23.7902 H   0  0  0  0  0  0  0  0  0  0  0  0
   18.7468   18.3098   23.5751 H   0  0  0  0  0  0  0  0  0  0  0  0
   19.2953   20.9127   23.0873 O   0  0  0  0  0  0  0  0  0  0  0  0
   19.7733   21.0798   23.9281 H   0  0  0  0  0  0  0  0  0  0  0  0
  1  2  1  0  0  0  0
  1  3  1  0  0  0  0
  1  4  1  0  0  0  0
  4  5  1  0  0  0  0
  4  6  1  0  0  0  0
  4  7  1  0  0  0  0
  7  8  1  0  0  0  0
  1  9  1  0  0  0  0
  7  9  1  0  0  0  0
  9 10  1  0  0  0  0
  9 11  1  0  0  0  0
  7 12  1  0  0  0  0
 12 13  1  0  0  0  0
M  END
> <VConfSearch Rank>
336

> <Conf_Id>
22

> <Delta U+W>
0.000

> <U+W>
-3.131

> <U>
-0.154

> <W>
-2.978

> <W(PB)>
-4.579

> <W(SA)>
1.601

> <Valence>
6.333

> <Coulomb>
-7.439

> <VdW>
0.952

> <VdW6>
-2.120

> <VdW12>
3.072

> <Bond>
0.065

> <Angle>
0.931

> <Pdih>
5.338

> <Idih>
0.000

> <Tether>
0.000

$$$$
VeraChem MOL file


 13 13  0  0  0  0  0  0  0  0999 V2000     
   20.6160   19.0724   23.1098 C   0  0  0  0  0  0  0  0  0  0  0  0
   21.4946   19.5780   22.6878 H   0  0  0  0  0  0  0  0  0  0  0  0
   20.8410   18.7831   24.1433 H   0  0  0  0  0  0  0  0  0  0  0  0
   20.0043   17.9554   22.2013 C   0  0  0  0  0  0  0  0  0  0  0  0
   19.3588   17.2403   22.7264 H   0  0  0  0  0  0  0  0  0  0  0  0
   20.7128   17.3993   21.5777 H   0  0  0  0  0  0  0  0  0  0  0  0
   19.2427   19.1172   21.4945 C   0  0  0  0  0  0  0  0  0  0  0  0
   19.8342   19.6369   20.7283 H   0  0  0  0  0  0  0  0  0  0  0  0
   19.2602   19.8199   22.8854 C   0  0  0  0  0  0  0  0  0  0  0  0
   18.4499   19.5145   23.5590 H   0  0  0  0  0  0  0  0  0  0  0  0
   19.3086   20.9140   22.8657 H   0  0  0  0  0  0  0  0  0  0  0  0
   17.9645   18.7883   21.0019 O   0  0  0  0  0  0  0  0  0  0  0  0
   18.0945   18.2151   20.2159 H   0  0  0  0  0  0  0  0  0  0  0  0
  1  2  1  0  0  0  0
  1  3  1  0  0  0  0
  1  4  1  0  0  0  0
  4  5  1  0  0  0  0
  4  6  1  0  0  0  0
  4  7  1  0  0  0  0
  7  8  1  0  0  0  0
  1  9  1  0  0  0  0
  7  9  1  0  0  0  0
  9 10  1  0  0  0  0
  9 11  1  0  0  0  0
  7 12  1  0  0  0  0
 12 13  1  0  0  0  0
M  END
> <VConfSearch Rank>
337

> <Conf_Id>
19

> <Delta U+W>
-0.011

> <U+W>
-3.142

> <U>
-0.154

> <W>
-2.989

> <W(PB)>
-4.588

> <W(SA)>
1.599

> <Valence>
6.334

> <Coulomb>
-7.439

> <VdW>
0.951

> <VdW6>
-2.120

> <VdW12>
3.072

> <Bond>
0.065

> <Angle>
0.930

> <Pdih>
5.339

> <Idih>
0.000

> <Tether>
0.000

$$$$
VeraChem MOL file


 13 13  0  0  0  0  0  0  0  0999 V2000     
   20.5318   19.7320   22.7791 C   0  0  0  0  0  0  0  0  0  0  0  0
   21.4070   20.3586   22.5709 H   0  0  0  0  0  0  0  0  0  0  0  0
   20.3342   19.7524   23.8588 H   0  0  0  0  0  0  0  0  0  0  0  0
   20.5443   18.3001   22.1480 C   0  0  0  0  0  0  0  0  0  0  0  0
   21.0809   18.2278   21.1943 H   0  0  0  0  0  0  0  0  0  0  0  0
   20.8819   17.4888   22.8024 H   0  0  0  0  0  0  0  0  0  0  0  0
   18.9982   18.4543   22.0018 C   0  0  0  0  0  0  0  0  0  0  0  0
   18.5760   17.9919   21.1003 H   0  0  0  0  0  0  0  0  0  0  0  0
   19.2743   19.9859   21.8829 C   0  0  0  0  0  0  0  0  0  0  0  0
   18.5086   20.6458   22.3055 H   0  0  0  0  0  0  0  0  0  0  0  0
   19.5033   20.3230   20.8647 H   0  0  0  0  0  0  0  0  0  0  0  0
   18.2518   18.0684   23.1385 O   0  0  0  0  0  0  0  0  0  0  0  0
   17.3294   18.3705   22.9968 H   0  0  0  0  0  0  0  0  0  0  0  0
  1  2  1  0  0  0  0
  1  3  1  0  0  0  0
  1  4  1  0  0  0  0
  4  5  1  0  0  0  0
  4  6  1  0  0  0  0
  4  7  1  0  0  0  0
  7  8  1  0  0  0  0
  1  9  1  0  0  0  0
  7  9  1  0  0  0  0
  9 10  1  0  0  0  0
  9 11  1  0  0  0  0
  7 12  1  0  0  0  0
 12 13  1  0  0  0  0
M  END
> <VConfSearch Rank>
338

> <Conf_Id>
20

> <Delta U+W>
1.030

> <U+W>
-2.101

> <U>
0.841

> <W>
-2.942

> <W(PB)>
-4.530

> <W(SA)>
1.587

> <Valence>
6.736

> <Coulomb>
-7.246

> <VdW>
1.352

> <VdW6>
-2.500

> <VdW12>
3.851

> <Bond>
0.063

> <Angle>
0.687

> <Pdih>
5.986

> <Idih>
0.000

> <Tether>
0.000

$$$$
VeraChem MOL file


 13 13  0  0  0  0  0  0  0  0999 V2000     
   20.9597   18.6159   22.4526 C   0  0  0  0  0  0  0  0  0  0  0  0
   21.7598   19.2699   22.0814 H   0  0  0  0  0  0  0  0  0  0  0  0
   21.4159   17.7687   22.9784 H   0  0  0  0  0  0  0  0  0  0  0  0
   19.8635   18.2587   21.3952 C   0  0  0  0  0  0  0  0  0  0  0  0
   20.2026   18.1824   20.3562 H   0  0  0  0  0  0  0  0  0  0  0  0
   19.2669   17.3705   21.6369 H   0  0  0  0  0  0  0  0  0  0  0  0
   19.2095   19.6156   21.7956 C   0  0  0  0  0  0  0  0  0  0  0  0
   19.6420   20.4855   21.2829 H   0  0  0  0  0  0  0  0  0  0  0  0
   19.8088   19.3562   23.2108 C   0  0  0  0  0  0  0  0  0  0  0  0
   19.2000   18.7132   23.8583 H   0  0  0  0  0  0  0  0  0  0  0  0
   20.0996   20.2490   23.7753 H   0  0  0  0  0  0  0  0  0  0  0  0
   17.8037   19.6511   21.7318 O   0  0  0  0  0  0  0  0  0  0  0  0
   17.4765   18.8561   22.2026 H   0  0  0  0  0  0  0  0  0  0  0  0
  1  2  1  0  0  0  0
  1  3  1  0  0  0  0
  1  4  1  0  0  0  0
  4  5  1  0  0  0  0
  4  6  1  0  0  0  0
  4  7  1  0  0  0  0
  7  8  1  0  0  0  0
  1  9  1  0  0  0  0
  7  9  1  0  0  0  0
  9 10  1  0  0  0  0
  9 11  1  0  0  0  0
  7 12  1  0  0  0  0
 12 13  1  0  0  0  0
M  END
> <VConfSearch Rank>
339

> <Conf_Id>
24

> <Delta U+W>
0.356

> <U+W>
-2.775

> <U>
-0.184

> <W>
-2.591

> <W(PB)>
-4.184

> <W(SA)>
1.593

> <Valence>
6.840

> <Coulomb>
-7.916

> <VdW>
0.893

> <VdW6>
-2.167

> <VdW12>
3.060

> <Bond>
0.059

> <Angle>
0.918

> <Pdih>
5.862

> <Idih>
0.000

> <Tether>
0.000

$$$$
VeraChem MOL file


 13 13  0  0  0  0  0  0  0  0999 V2000     
   18.7332   19.5032   21.9627 C   0  0  0  0  0  0  0  0  0  0  0  0
   17.6761   19.3912   21.6941 H   0  0  0  0  0  0  0  0  0  0  0  0
   18.9652   20.5745   22.0174 H   0  0  0  0  0  0  0  0  0  0  0  0
   19.7458   18.6521   21.1257 C   0  0  0  0  0  0  0  0  0  0  0  0
   19.3427   17.7007   20.7578 H   0  0  0  0  0  0  0  0  0  0  0  0
   20.2374   19.1673   20.2929 H   0  0  0  0  0  0  0  0  0  0  0  0
   20.5813   18.5246   22.4371 C   0  0  0  0  0  0  0  0  0  0  0  0
   21.0863   17.5593   22.5696 H   0  0  0  0  0  0  0  0  0  0  0  0
   19.2208   18.6606   23.1884 C   0  0  0  0  0  0  0  0  0  0  0  0
   18.6890   17.7112   23.3262 H   0  0  0  0  0  0  0  0  0  0  0  0
   19.2554   19.1831   24.1510 H   0  0  0  0  0  0  0  0  0  0  0  0
   21.4905   19.5798   22.6642 O   0  0  0  0  0  0  0  0  0  0  0  0
   20.9882   20.4103   22.5329 H   0  0  0  0  0  0  0  0  0  0  0  0
  1  2  1  0  0  0  0
  1  3  1  0  0  0  0
  1  4  1  0  0  0  0
  4  5  1  0  0  0  0
  4  6  1  0  0  0  0
  4  7  1  0  0  0  0
  7  8  1  0  0  0  0
  1  9  1  0  0  0  0
  7  9  1  0  0  0  0
  9 10  1  0  0  0  0
  9 11  1  0  0  0  0
  7 12  1  0  0  0  0
 12 13  1  0  0  0  0
M  END
> <VConfSearch Rank>
340

> <Conf_Id>
44

> <Delta U+W>
0.823

> <U+W>
-2.308

> <U>
0.039

> <W>
-2.348

> <W(PB)>
-3.918

> <W(SA)>
1.571

> <Valence>
7.320

> <Coulomb>
-8.530

> <VdW>
1.249

> <VdW6>
-2.615

> <VdW12>
3.864

> <Bond>
0.056

> <Angle>
0.694

> <Pdih>
6.570

> <Idih>
0.000

> <Tether>
0.000

$$$$
VeraChem MOL file


 13 13  0  0  0  0  0  0  0  0999 V2000     
   19.7136   17.9187   22.9378 C   0  0  0  0  0  0  0  0  0  0  0  0
   20.7295   17.6354   23.2433 H   0  0  0  0  0  0  0  0  0  0  0  0
   19.0071   17.1889   23.3508 H   0  0  0  0  0  0  0  0  0  0  0  0
   19.5546   18.2436   21.4158 C   0  0  0  0  0  0  0  0  0  0  0  0
   20.1980   17.6802   20.7312 H   0  0  0  0  0  0  0  0  0  0  0  0
   18.5236   18.2056   21.0428 H   0  0  0  0  0  0  0  0  0  0  0  0
   20.0524   19.6714   21.7929 C   0  0  0  0  0  0  0  0  0  0  0  0
   21.1460   19.7569   21.8556 H   0  0  0  0  0  0  0  0  0  0  0  0
   19.3575   19.4249   23.1660 C   0  0  0  0  0  0  0  0  0  0  0  0
   19.8261   19.9053   24.0319 H   0  0  0  0  0  0  0  0  0  0  0  0
   18.2826   19.6446   23.1789 H   0  0  0  0  0  0  0  0  0  0  0  0
   19.5119   20.7204   21.0236 O   0  0  0  0  0  0  0  0  0  0  0  0
   19.7699   21.5620   21.4576 H   0  0  0  0  0  0  0  0  0  0  0  0
  1  2  1  0  0  0  0
  1  3  1  0  0  0  0
  1  4  1  0  0  0  0
  4  5  1  0  0  0  0
  4  6  1  0  0  0  0
  4  7  1  0  0  0  0
  7  8  1  0  0  0  0
  1  9  1  0  0  0  0
  7  9  1  0  0  0  0
  9 10  1  0  0  0  0
  9 11  1  0  0  0  0
  7 12  1  0  0  0  0
 12 13  1  0  0  0  0
M  END
> <VConfSearch Rank>
341

> <Conf_Id>
22

> <Delta U+W>
0.000

> <U+W>
-3.131

> <U>
-0.154

> <W>
-2.978

> <W(PB)>
-4.579

> <W(SA)>
1.601

> <Valence>
6.333

> <Coulomb>
-7.439

> <VdW>
0.952

> <VdW6>
-2.120

> <VdW12>
3.072

> <Bond>
0.065

> <Angle>
0.931

> <Pdih>
5.338

> <Idih>
0.000

> <Tether>
0.000

$$$$
VeraChem MOL file


 13 13  0  0  0  0  0  0  0  0999 V2000     
   19.6251   17.8358   22.9898 C   0  0  0  0  0  0  0  0  0  0  0  0
   20.1581   17.9550   23.9424 H   0  0  0  0  0  0  0  0  0  0  0  0
   19.2776   16.7989   22.9101 H   0  0  0  0  0  0  0  0  0  0  0  0
   20.3781   18.4059   21.7427 C   0  0  0  0  0  0  0  0  0  0  0  0
   20.0302   18.0138   20.7788 H   0  0  0  0  0  0  0  0  0  0  0  0
   21.4717   18.3497   21.7723 H   0  0  0  0  0  0  0  0  0  0  0  0
   19.7565   19.7770   22.1462 C   0  0  0  0  0  0  0  0  0  0  0  0
   20.3184   20.3091   22.9261 H   0  0  0  0  0  0  0  0  0  0  0  0
   18.5596   18.9421   22.6932 C   0  0  0  0  0  0  0  0  0  0  0  0
   17.8124   18.6699   21.9374 H   0  0  0  0  0  0  0  0  0  0  0  0
   18.0438   19.3626   23.5633 H   0  0  0  0  0  0  0  0  0  0  0  0
   19.4499   20.6386   21.0746 O   0  0  0  0  0  0  0  0  0  0  0  0
   20.3007   20.9759   20.7203 H   0  0  0  0  0  0  0  0  0  0  0  0
  1  2  1  0  0  0  0
  1  3  1  0  0  0  0
  1  4  1  0  0  0  0
  4  5  1  0  0  0  0
  4  6  1  0  0  0  0
  4  7  1  0  0  0  0
  7  8  1  0  0  0  0
  1  9  1  0  0  0  0
  7  9  1  0  0  0  0
  9 10  1  0  0  0  0
  9 11  1  0  0  0  0
  7 12  1  0  0  0  0
 12 13  1  0  0  0  0
M  END
> <VConfSearch Rank>
342

> <Conf_Id>
19

> <Delta U+W>
-0.011

> <U+W>
-3.142

> <U>
-0.154

> <W>
-2.989

> <W(PB)>
-4.588

> <W(SA)>
1.599

> <Valence>
6.334

> <Coulomb>
-7.439

> <VdW>
0.951

> <VdW6>
-2.120

> <VdW12>
3.072

> <Bond>
0.065

> <Angle>
0.930

> <Pdih>
5.339

> <Idih>
0.000

> <Tether>
0.000

$$$$
VeraChem MOL file


 13 13  0  0  0  0  0  0  0  0999 V2000     
   19.7101   20.2586   22.0351 C   0  0  0  0  0  0  0  0  0  0  0  0
   20.3409   21.1524   22.1069 H   0  0  0  0  0  0  0  0  0  0  0  0
   18.8023   20.5137   21.4729 H   0  0  0  0  0  0  0  0  0  0  0  0
   19.4508   19.4895   23.3731 C   0  0  0  0  0  0  0  0  0  0  0  0
   20.2711   19.5493   24.0986 H   0  0  0  0  0  0  0  0  0  0  0  0
   18.5111   19.7209   23.8868 H   0  0  0  0  0  0  0  0  0  0  0  0
   19.4509   18.1868   22.5139 C   0  0  0  0  0  0  0  0  0  0  0  0
   19.8874   17.3111   23.0113 H   0  0  0  0  0  0  0  0  0  0  0  0
   20.4229   18.9491   21.5598 C   0  0  0  0  0  0  0  0  0  0  0  0
   20.3326   18.7128   20.4938 H   0  0  0  0  0  0  0  0  0  0  0  0
   21.4795   18.8782   21.8455 H   0  0  0  0  0  0  0  0  0  0  0  0
   18.2010   17.8482   21.9469 O   0  0  0  0  0  0  0  0  0  0  0  0
   18.3609   17.1290   21.2994 H   0  0  0  0  0  0  0  0  0  0  0  0
  1  2  1  0  0  0  0
  1  3  1  0  0  0  0
  1  4  1  0  0  0  0
  4  5  1  0  0  0  0
  4  6  1  0  0  0  0
  4  7  1  0  0  0  0
  7  8  1  0  0  0  0
  1  9  1  0  0  0  0
  7  9  1  0  0  0  0
  9 10  1  0  0  0  0
  9 11  1  0  0  0  0
  7 12  1  0  0  0  0
 12 13  1  0  0  0  0
M  END
> <VConfSearch Rank>
343

> <Conf_Id>
20

> <Delta U+W>
1.030

> <U+W>
-2.101

> <U>
0.841

> <W>
-2.942

> <W(PB)>
-4.530

> <W(SA)>
1.587

> <Valence>
6.736

> <Coulomb>
-7.246

> <VdW>
1.352

> <VdW6>
-2.500

> <VdW12>
3.851

> <Bond>
0.063

> <Angle>
0.687

> <Pdih>
5.986

> <Idih>
0.000

> <Tether>
0.000

$$$$
VeraChem MOL file


 13 13  0  0  0  0  0  0  0  0999 V2000     
   20.6402   19.1940   21.3252 C   0  0  0  0  0  0  0  0  0  0  0  0
   21.1803   20.1482   21.3835 H   0  0  0  0  0  0  0  0  0  0  0  0
   21.0167   18.6308   20.4629 H   0  0  0  0  0  0  0  0  0  0  0  0
   19.0848   19.3148   21.4411 C   0  0  0  0  0  0  0  0  0  0  0  0
   18.6401   20.2277   21.0299 H   0  0  0  0  0  0  0  0  0  0  0  0
   18.5290   18.4496   21.0590 H   0  0  0  0  0  0  0  0  0  0  0  0
   19.3223   19.3121   22.9815 C   0  0  0  0  0  0  0  0  0  0  0  0
   19.5853   20.2965   23.3920 H   0  0  0  0  0  0  0  0  0  0  0  0
   20.5541   18.4077   22.6749 C   0  0  0  0  0  0  0  0  0  0  0  0
   20.3267   17.3398   22.5686 H   0  0  0  0  0  0  0  0  0  0  0  0
   21.4070   18.5197   23.3534 H   0  0  0  0  0  0  0  0  0  0  0  0
   18.3067   18.7105   23.7486 O   0  0  0  0  0  0  0  0  0  0  0  0
   18.1155   17.8415   23.3375 H   0  0  0  0  0  0  0  0  0  0  0  0
  1  2  1  0  0  0  0
  1  3  1  0  0  0  0
  1  4  1  0  0  0  0
  4  5  1  0  0  0  0
  4  6  1  0  0  0  0
  4  7  1  0  0  0  0
  7  8  1  0  0  0  0
  1  9  1  0  0  0  0
  7  9  1  0  0  0  0
  9 10  1  0  0  0  0
  9 11  1  0  0  0  0
  7 12  1  0  0  0  0
 12 13  1  0  0  0  0
M  END
> <VConfSearch Rank>
344

> <Conf_Id>
24

> <Delta U+W>
0.356

> <U+W>
-2.775

> <U>
-0.184

> <W>
-2.591

> <W(PB)>
-4.184

> <W(SA)>
1.593

> <Valence>
6.840

> <Coulomb>
-7.916

> <VdW>
0.893

> <VdW6>
-2.167

> <VdW12>
3.060

> <Bond>
0.059

> <Angle>
0.918

> <Pdih>
5.862

> <Idih>
0.000

> <Tether>
0.000

$$$$
VeraChem MOL file


 13 13  0  0  0  0  0  0  0  0999 V2000     
   18.7453   18.6997   21.6670 C   0  0  0  0  0  0  0  0  0  0  0  0
   18.1956   17.9124   21.1376 H   0  0  0  0  0  0  0  0  0  0  0  0
   18.1253   19.6052   21.6818 H   0  0  0  0  0  0  0  0  0  0  0  0
   20.2266   18.9233   21.2136 C   0  0  0  0  0  0  0  0  0  0  0  0
   20.7279   18.0215   20.8415 H   0  0  0  0  0  0  0  0  0  0  0  0
   20.3956   19.7358   20.4980 H   0  0  0  0  0  0  0  0  0  0  0  0
   20.5371   19.2539   22.7063 C   0  0  0  0  0  0  0  0  0  0  0  0
   21.5206   18.9168   23.0579 H   0  0  0  0  0  0  0  0  0  0  0  0
   19.3547   18.2964   23.0512 C   0  0  0  0  0  0  0  0  0  0  0  0
   19.6421   17.2408   23.1297 H   0  0  0  0  0  0  0  0  0  0  0  0
   18.7646   18.5631   23.9352 H   0  0  0  0  0  0  0  0  0  0  0  0
   20.3315   20.6023   23.0687 O   0  0  0  0  0  0  0  0  0  0  0  0
   19.4450   20.8468   22.7315 H   0  0  0  0  0  0  0  0  0  0  0  0
  1  2  1  0  0  0  0
  1  3  1  0  0  0  0
  1  4  1  0  0  0  0
  4  5  1  0  0  0  0
  4  6  1  0  0  0  0
  4  7  1  0  0  0  0
  7  8  1  0  0  0  0
  1  9  1  0  0  0  0
  7  9  1  0  0  0  0
  9 10  1  0  0  0  0
  9 11  1  0  0  0  0
  7 12  1  0  0  0  0
 12 13  1  0  0  0  0
M  END
> <VConfSearch Rank>
345

> <Conf_Id>
44

> <Delta U+W>
0.823

> <U+W>
-2.308

> <U>
0.039

> <W>
-2.348

> <W(PB)>
-3.918

> <W(SA)>
1.571

> <Valence>
7.320

> <Coulomb>
-8.530

> <VdW>
1.249

> <VdW6>
-2.615

> <VdW12>
3.864

> <Bond>
0.056

> <Angle>
0.694

> <Pdih>
6.570

> <Idih>
0.000

> <Tether>
0.000

$$$$
VeraChem MOL file


 13 13  0  0  0  0  0  0  0  0999 V2000     
   19.4833   20.0148   21.3748 C   0  0  0  0  0  0  0  0  0  0  0  0
   20.1227   19.9301   20.4862 H   0  0  0  0  0  0  0  0  0  0  0  0
   18.8225   20.8808   21.2498 H   0  0  0  0  0  0  0  0  0  0  0  0
   20.2431   19.9216   22.7391 C   0  0  0  0  0  0  0  0  0  0  0  0
   21.2617   20.3244   22.7539 H   0  0  0  0  0  0  0  0  0  0  0  0
   19.6930   20.3214   23.6000 H   0  0  0  0  0  0  0  0  0  0  0  0
   20.1274   18.3779   22.5593 C   0  0  0  0  0  0  0  0  0  0  0  0
   20.9084   17.9470   21.9179 H   0  0  0  0  0  0  0  0  0  0  0  0
   18.7928   18.6814   21.8138 C   0  0  0  0  0  0  0  0  0  0  0  0
   18.5269   17.9881   21.0083 H   0  0  0  0  0  0  0  0  0  0  0  0
   17.9231   18.8104   22.4702 H   0  0  0  0  0  0  0  0  0  0  0  0
   19.9971   17.6407   23.7527 O   0  0  0  0  0  0  0  0  0  0  0  0
   19.7708   16.7192   23.5019 H   0  0  0  0  0  0  0  0  0  0  0  0
  1  2  1  0  0  0  0
  1  3  1  0  0  0  0
  1  4  1  0  0  0  0
  4  5  1  0  0  0  0
  4  6  1  0  0  0  0
  4  7  1  0  0  0  0
  7  8  1  0  0  0  0
  1  9  1  0  0  0  0
  7  9  1  0  0  0  0
  9 10  1  0  0  0  0
  9 11  1  0  0  0  0
  7 12  1  0  0  0  0
 12 13  1  0  0  0  0
M  END
> <VConfSearch Rank>
346

> <Conf_Id>
22

> <Delta U+W>
0.000

> <U+W>
-3.131

> <U>
-0.154

> <W>
-2.978

> <W(PB)>
-4.579

> <W(SA)>
1.601

> <Valence>
6.333

> <Coulomb>
-7.439

> <VdW>
0.952

> <VdW6>
-2.120

> <VdW12>
3.072

> <Bond>
0.065

> <Angle>
0.931

> <Pdih>
5.338

> <Idih>
0.000

> <Tether>
0.000

$$$$
VeraChem MOL file


 13 13  0  0  0  0  0  0  0  0999 V2000     
   19.0957   17.8250   21.7509 C   0  0  0  0  0  0  0  0  0  0  0  0
   19.8404   17.0917   21.4143 H   0  0  0  0  0  0  0  0  0  0  0  0
   18.0952   17.4379   21.5241 H   0  0  0  0  0  0  0  0  0  0  0  0
   19.3797   19.2977   21.3061 C   0  0  0  0  0  0  0  0  0  0  0  0
   18.5089   19.9641   21.3453 H   0  0  0  0  0  0  0  0  0  0  0  0
   19.8754   19.4217   20.3371 H   0  0  0  0  0  0  0  0  0  0  0  0
   20.3059   19.3684   22.5576 C   0  0  0  0  0  0  0  0  0  0  0  0
   21.3113   18.9574   22.3921 H   0  0  0  0  0  0  0  0  0  0  0  0
   19.3128   18.3574   23.2059 C   0  0  0  0  0  0  0  0  0  0  0  0
   18.4287   18.8186   23.6634 H   0  0  0  0  0  0  0  0  0  0  0  0
   19.7505   17.6506   23.9192 H   0  0  0  0  0  0  0  0  0  0  0  0
   20.3775   20.6282   23.1841 O   0  0  0  0  0  0  0  0  0  0  0  0
   20.9002   21.2156   22.5969 H   0  0  0  0  0  0  0  0  0  0  0  0
  1  2  1  0  0  0  0
  1  3  1  0  0  0  0
  1  4  1  0  0  0  0
  4  5  1  0  0  0  0
  4  6  1  0  0  0  0
  4  7  1  0  0  0  0
  7  8  1  0  0  0  0
  1  9  1  0  0  0  0
  7  9  1  0  0  0  0
  9 10  1  0  0  0  0
  9 11  1  0  0  0  0
  7 12  1  0  0  0  0
 12 13  1  0  0  0  0
M  END
> <VConfSearch Rank>
347

> <Conf_Id>
19

> <Delta U+W>
-0.011

> <U+W>
-3.142

> <U>
-0.154

> <W>
-2.989

> <W(PB)>
-4.588

> <W(SA)>
1.599

> <Valence>
6.334

> <Coulomb>
-7.439

> <VdW>
0.951

> <VdW6>
-2.120

> <VdW12>
3.072

> <Bond>
0.065

> <Angle>
0.930

> <Pdih>
5.339

> <Idih>
0.000

> <Tether>
0.000

$$$$
VeraChem MOL file


 13 13  0  0  0  0  0  0  0  0999 V2000     
   20.4257   19.0743   23.2226 C   0  0  0  0  0  0  0  0  0  0  0  0
   21.1824   18.5040   23.7741 H   0  0  0  0  0  0  0  0  0  0  0  0
   20.3881   20.0931   23.6298 H   0  0  0  0  0  0  0  0  0  0  0  0
   19.0288   18.3876   23.0606 C   0  0  0  0  0  0  0  0  0  0  0  0
   19.0631   17.2926   23.0108 H   0  0  0  0  0  0  0  0  0  0  0  0
   18.2612   18.6816   23.7850 H   0  0  0  0  0  0  0  0  0  0  0  0
   18.9514   19.0889   21.6686 C   0  0  0  0  0  0  0  0  0  0  0  0
   18.4539   18.5002   20.8872 H   0  0  0  0  0  0  0  0  0  0  0  0
   20.5097   19.0003   21.6618 C   0  0  0  0  0  0  0  0  0  0  0  0
   21.0352   19.8260   21.1694 H   0  0  0  0  0  0  0  0  0  0  0  0
   20.9037   18.0535   21.2729 H   0  0  0  0  0  0  0  0  0  0  0  0
   18.4279   20.4018   21.6923 O   0  0  0  0  0  0  0  0  0  0  0  0
   18.5907   20.7956   20.8089 H   0  0  0  0  0  0  0  0  0  0  0  0
  1  2  1  0  0  0  0
  1  3  1  0  0  0  0
  1  4  1  0  0  0  0
  4  5  1  0  0  0  0
  4  6  1  0  0  0  0
  4  7  1  0  0  0  0
  7  8  1  0  0  0  0
  1  9  1  0  0  0  0
  7  9  1  0  0  0  0
  9 10  1  0  0  0  0
  9 11  1  0  0  0  0
  7 12  1  0  0  0  0
 12 13  1  0  0  0  0
M  END
> <VConfSearch Rank>
348

> <Conf_Id>
20

> <Delta U+W>
1.030

> <U+W>
-2.101

> <U>
0.841

> <W>
-2.942

> <W(PB)>
-4.530

> <W(SA)>
1.587

> <Valence>
6.736

> <Coulomb>
-7.246

> <VdW>
1.352

> <VdW6>
-2.500

> <VdW12>
3.851

> <Bond>
0.063

> <Angle>
0.687

> <Pdih>
5.986

> <Idih>
0.000

> <Tether>
0.000

$$$$
VeraChem MOL file


 13 13  0  0  0  0  0  0  0  0999 V2000     
   19.3299   19.7938   21.3390 C   0  0  0  0  0  0  0  0  0  0  0  0
   20.0535   20.1805   20.6092 H   0  0  0  0  0  0  0  0  0  0  0  0
   18.3525   20.2479   21.1369 H   0  0  0  0  0  0  0  0  0  0  0  0
   19.8138   19.8377   22.8260 C   0  0  0  0  0  0  0  0  0  0  0  0
   20.4783   20.6669   23.0925 H   0  0  0  0  0  0  0  0  0  0  0  0
   19.0103   19.7773   23.5705 H   0  0  0  0  0  0  0  0  0  0  0  0
   20.5158   18.4828   22.5090 C   0  0  0  0  0  0  0  0  0  0  0  0
   21.4952   18.5929   22.0239 H   0  0  0  0  0  0  0  0  0  0  0  0
   19.3428   18.2391   21.5121 C   0  0  0  0  0  0  0  0  0  0  0  0
   18.4341   17.8214   21.9629 H   0  0  0  0  0  0  0  0  0  0  0  0
   19.5915   17.6565   20.6182 H   0  0  0  0  0  0  0  0  0  0  0  0
   20.5940   17.5766   23.5835 O   0  0  0  0  0  0  0  0  0  0  0  0
   19.6970   17.5195   23.9744 H   0  0  0  0  0  0  0  0  0  0  0  0
  1  2  1  0  0  0  0
  1  3  1  0  0  0  0
  1  4  1  0  0  0  0
  4  5  1  0  0  0  0
  4  6  1  0  0  0  0
  4  7  1  0  0  0  0
  7  8  1  0  0  0  0
  1  9  1  0  0  0  0
  7  9  1  0  0  0  0
  9 10  1  0  0  0  0
  9 11  1  0  0  0  0
  7 12  1  0  0  0  0
 12 13  1  0  0  0  0
M  END
> <VConfSearch Rank>
349

> <Conf_Id>
24

> <Delta U+W>
0.356

> <U+W>
-2.775

> <U>
-0.184

> <W>
-2.591

> <W(PB)>
-4.184

> <W(SA)>
1.593

> <Valence>
6.840

> <Coulomb>
-7.916

> <VdW>
0.893

> <VdW6>
-2.167

> <VdW12>
3.060

> <Bond>
0.059

> <Angle>
0.918

> <Pdih>
5.862

> <Idih>
0.000

> <Tether>
0.000

$$$$
VeraChem MOL file


 13 13  0  0  0  0  0  0  0  0999 V2000     
   18.8398   19.5898   21.8164 C   0  0  0  0  0  0  0  0  0  0  0  0
   17.8876   19.5820   21.2726 H   0  0  0  0  0  0  0  0  0  0  0  0
   19.0672   20.6246   22.1021 H   0  0  0  0  0  0  0  0  0  0  0  0
   20.0214   18.8192   21.1380 C   0  0  0  0  0  0  0  0  0  0  0  0
   19.7126   17.9605   20.5295 H   0  0  0  0  0  0  0  0  0  0  0  0
   20.7218   19.4262   20.5534 H   0  0  0  0  0  0  0  0  0  0  0  0
   20.4835   18.4440   22.5801 C   0  0  0  0  0  0  0  0  0  0  0  0
   20.9204   17.4419   22.6778 H   0  0  0  0  0  0  0  0  0  0  0  0
   18.9765   18.5425   22.9716 C   0  0  0  0  0  0  0  0  0  0  0  0
   18.4115   17.6159   22.8127 H   0  0  0  0  0  0  0  0  0  0  0  0
   18.7675   18.9086   23.9830 H   0  0  0  0  0  0  0  0  0  0  0  0
   21.3194   19.3971   23.2003 O   0  0  0  0  0  0  0  0  0  0  0  0
   20.8826   20.2658   23.0824 H   0  0  0  0  0  0  0  0  0  0  0  0
  1  2  1  0  0  0  0
  1  3  1  0  0  0  0
  1  4  1  0  0  0  0
  4  5  1  0  0  0  0
  4  6  1  0  0  0  0
  4  7  1  0  0  0  0
  7  8  1  0  0  0  0
  1  9  1  0  0  0  0
  7  9  1  0  0  0  0
  9 10  1  0  0  0  0
  9 11  1  0  0  0  0
  7 12  1  0  0  0  0
 12 13  1  0  0  0  0
M  END
> <VConfSearch Rank>
350

> <Conf_Id>
44

> <Delta U+W>
0.823

> <U+W>
-2.308

> <U>
0.039

> <W>
-2.348

> <W(PB)>
-3.918

> <W(SA)>
1.571

> <Valence>
7.320

> <Coulomb>
-8.530

> <VdW>
1.249

> <VdW6>
-2.615

> <VdW12>
3.864

> <Bond>
0.056

> <Angle>
0.694

> <Pdih>
6.570

> <Idih>
0.000

> <Tether>
0.000

$$$$
VeraChem MOL file


 13 13  0  0  0  0  0  0  0  0999 V2000     
   18.4832   18.4736   22.3727 C   0  0  0  0  0  0  0  0  0  0  0  0
   17.6617   19.1937   22.4828 H   0  0  0  0  0  0  0  0  0  0  0  0
   18.0612   17.4618   22.3467 H   0  0  0  0  0  0  0  0  0  0  0  0
   19.6817   18.6931   23.3538 C   0  0  0  0  0  0  0  0  0  0  0  0
   19.4309   19.0946   24.3416 H   0  0  0  0  0  0  0  0  0  0  0  0
   20.3359   17.8218   23.4828 H   0  0  0  0  0  0  0  0  0  0  0  0
   20.1889   19.7321   22.3088 C   0  0  0  0  0  0  0  0  0  0  0  0
   19.7247   20.7228   22.4081 H   0  0  0  0  0  0  0  0  0  0  0  0
   19.5096   18.8191   21.2438 C   0  0  0  0  0  0  0  0  0  0  0  0
   19.1046   19.3309   20.3639 H   0  0  0  0  0  0  0  0  0  0  0  0
   20.1242   17.9741   20.9091 H   0  0  0  0  0  0  0  0  0  0  0  0
   21.5891   19.8442   22.2017 O   0  0  0  0  0  0  0  0  0  0  0  0
   21.7770   20.3962   21.4122 H   0  0  0  0  0  0  0  0  0  0  0  0
  1  2  1  0  0  0  0
  1  3  1  0  0  0  0
  1  4  1  0  0  0  0
  4  5  1  0  0  0  0
  4  6  1  0  0  0  0
  4  7  1  0  0  0  0
  7  8  1  0  0  0  0
  1  9  1  0  0  0  0
  7  9  1  0  0  0  0
  9 10  1  0  0  0  0
  9 11  1  0  0  0  0
  7 12  1  0  0  0  0
 12 13  1  0  0  0  0
M  END
> <VConfSearch Rank>
351

> <Conf_Id>
22

> <Delta U+W>
0.000

> <U+W>
-3.131

> <U>
-0.154

> <W>
-2.978

> <W(PB)>
-4.579

> <W(SA)>
1.601

> <Valence>
6.333

> <Coulomb>
-7.439

> <VdW>
0.952

> <VdW6>
-2.120

> <VdW12>
3.072

> <Bond>
0.065

> <Angle>
0.931

> <Pdih>
5.338

> <Idih>
0.000

> <Tether>
0.000

$$$$
VeraChem MOL file


 13 13  0  0  0  0  0  0  0  0999 V2000     
   18.8030   19.9491   22.1400 C   0  0  0  0  0  0  0  0  0  0  0  0
   17.8841   19.7130   21.5874 H   0  0  0  0  0  0  0  0  0  0  0  0
   18.7880   21.0125   22.4070 H   0  0  0  0  0  0  0  0  0  0  0  0
   20.1192   19.4261   21.4754 C   0  0  0  0  0  0  0  0  0  0  0  0
   21.0353   19.9202   21.8224 H   0  0  0  0  0  0  0  0  0  0  0  0
   20.1276   19.3964   20.3803 H   0  0  0  0  0  0  0  0  0  0  0  0
   19.8002   18.0781   22.1897 C   0  0  0  0  0  0  0  0  0  0  0  0
   19.0866   17.4435   21.6464 H   0  0  0  0  0  0  0  0  0  0  0  0
   19.1437   18.9546   23.2985 C   0  0  0  0  0  0  0  0  0  0  0  0
   19.8463   19.3430   24.0462 H   0  0  0  0  0  0  0  0  0  0  0  0
   18.2897   18.5056   23.8173 H   0  0  0  0  0  0  0  0  0  0  0  0
   20.9231   17.3318   22.5980 O   0  0  0  0  0  0  0  0  0  0  0  0
   21.3354   16.9605   21.7884 H   0  0  0  0  0  0  0  0  0  0  0  0
  1  2  1  0  0  0  0
  1  3  1  0  0  0  0
  1  4  1  0  0  0  0
  4  5  1  0  0  0  0
  4  6  1  0  0  0  0
  4  7  1  0  0  0  0
  7  8  1  0  0  0  0
  1  9  1  0  0  0  0
  7  9  1  0  0  0  0
  9 10  1  0  0  0  0
  9 11  1  0  0  0  0
  7 12  1  0  0  0  0
 12 13  1  0  0  0  0
M  END
> <VConfSearch Rank>
352

> <Conf_Id>
19

> <Delta U+W>
-0.011

> <U+W>
-3.142

> <U>
-0.154

> <W>
-2.989

> <W(PB)>
-4.588

> <W(SA)>
1.599

> <Valence>
6.334

> <Coulomb>
-7.439

> <VdW>
0.951

> <VdW6>
-2.120

> <VdW12>
3.072

> <Bond>
0.065

> <Angle>
0.930

> <Pdih>
5.339

> <Idih>
0.000

> <Tether>
0.000

$$$$
VeraChem MOL file


 13 13  0  0  0  0  0  0  0  0999 V2000     
   19.7148   17.8275   22.3639 C   0  0  0  0  0  0  0  0  0  0  0  0
   19.1581   16.8977   22.5298 H   0  0  0  0  0  0  0  0  0  0  0  0
   20.7550   17.5752   22.1199 H   0  0  0  0  0  0  0  0  0  0  0  0
   19.5546   18.9311   23.4618 C   0  0  0  0  0  0  0  0  0  0  0  0
   18.5802   18.9343   23.9650 H   0  0  0  0  0  0  0  0  0  0  0  0
   20.3420   18.9708   24.2226 H   0  0  0  0  0  0  0  0  0  0  0  0
   19.6791   19.9684   22.3025 C   0  0  0  0  0  0  0  0  0  0  0  0
   19.0614   20.8674   22.4253 H   0  0  0  0  0  0  0  0  0  0  0  0
   19.0525   18.8633   21.3958 C   0  0  0  0  0  0  0  0  0  0  0  0
   19.4003   18.8405   20.3571 H   0  0  0  0  0  0  0  0  0  0  0  0
   17.9558   18.8496   21.3978 H   0  0  0  0  0  0  0  0  0  0  0  0
   21.0038   20.3333   21.9705 O   0  0  0  0  0  0  0  0  0  0  0  0
   20.9641   20.8404   21.1319 H   0  0  0  0  0  0  0  0  0  0  0  0
  1  2  1  0  0  0  0
  1  3  1  0  0  0  0
  1  4  1  0  0  0  0
  4  5  1  0  0  0  0
  4  6  1  0  0  0  0
  4  7  1  0  0  0  0
  7  8  1  0  0  0  0
  1  9  1  0  0  0  0
  7  9  1  0  0  0  0
  9 10  1  0  0  0  0
  9 11  1  0  0  0  0
  7 12  1  0  0  0  0
 12 13  1  0  0  0  0
M  END
> <VConfSearch Rank>
353

> <Conf_Id>
20

> <Delta U+W>
1.030

> <U+W>
-2.101

> <U>
0.841

> <W>
-2.942

> <W(PB)>
-4.530

> <W(SA)>
1.587

> <Valence>
6.736

> <Coulomb>
-7.246

> <VdW>
1.352

> <VdW6>
-2.500

> <VdW12>
3.851

> <Bond>
0.063

> <Angle>
0.687

> <Pdih>
5.986

> <Idih>
0.000

> <Tether>
0.000

$$$$
VeraChem MOL file


 13 13  0  0  0  0  0  0  0  0999 V2000     
   19.4806   18.3279   21.1255 C   0  0  0  0  0  0  0  0  0  0  0  0
   19.6365   17.2412   21.1049 H   0  0  0  0  0  0  0  0  0  0  0  0
   19.1082   18.6466   20.1446 H   0  0  0  0  0  0  0  0  0  0  0  0
   20.6788   19.1495   21.7058 C   0  0  0  0  0  0  0  0  0  0  0  0
   21.6779   18.7376   21.5259 H   0  0  0  0  0  0  0  0  0  0  0  0
   20.6811   20.2115   21.4307 H   0  0  0  0  0  0  0  0  0  0  0  0
   20.0586   18.8359   23.1009 C   0  0  0  0  0  0  0  0  0  0  0  0
   20.3381   17.8513   23.4999 H   0  0  0  0  0  0  0  0  0  0  0  0
   18.6842   18.8510   22.3662 C   0  0  0  0  0  0  0  0  0  0  0  0
   18.2407   19.8462   22.2387 H   0  0  0  0  0  0  0  0  0  0  0  0
   17.9217   18.1755   22.7695 H   0  0  0  0  0  0  0  0  0  0  0  0
   20.2327   19.8342   24.0780 O   0  0  0  0  0  0  0  0  0  0  0  0
   19.9695   20.6844   23.6673 H   0  0  0  0  0  0  0  0  0  0  0  0
  1  2  1  0  0  0  0
  1  3  1  0  0  0  0
  1  4  1  0  0  0  0
  4  5  1  0  0  0  0
  4  6  1  0  0  0  0
  4  7  1  0  0  0  0
  7  8  1  0  0  0  0
  1  9  1  0  0  0  0
  7  9  1  0  0  0  0
  9 10  1  0  0  0  0
  9 11  1  0  0  0  0
  7 12  1  0  0  0  0
 12 13  1  0  0  0  0
M  END
> <VConfSearch Rank>
354

> <Conf_Id>
24

> <Delta U+W>
0.356

> <U+W>
-2.775

> <U>
-0.184

> <W>
-2.591

> <W(PB)>
-4.184

> <W(SA)>
1.593

> <Valence>
6.840

> <Coulomb>
-7.916

> <VdW>
0.893

> <VdW6>
-2.167

> <VdW12>
3.060

> <Bond>
0.059

> <Angle>
0.918

> <Pdih>
5.862

> <Idih>
0.000

> <Tether>
0.000

$$$$
VeraChem MOL file


 13 13  0  0  0  0  0  0  0  0999 V2000     
   19.2010   17.9716   22.3699 C   0  0  0  0  0  0  0  0  0  0  0  0
   18.8919   17.2198   23.1058 H   0  0  0  0  0  0  0  0  0  0  0  0
   18.9199   17.6148   21.3709 H   0  0  0  0  0  0  0  0  0  0  0  0
   20.6740   18.4863   22.4949 C   0  0  0  0  0  0  0  0  0  0  0  0
   21.0693   18.4851   23.5180 H   0  0  0  0  0  0  0  0  0  0  0  0
   21.4097   18.0102   21.8369 H   0  0  0  0  0  0  0  0  0  0  0  0
   20.1329   19.8715   22.0232 C   0  0  0  0  0  0  0  0  0  0  0  0
   20.6203   20.7386   22.4870 H   0  0  0  0  0  0  0  0  0  0  0  0
   18.7844   19.4475   22.6832 C   0  0  0  0  0  0  0  0  0  0  0  0
   18.7164   19.6821   23.7525 H   0  0  0  0  0  0  0  0  0  0  0  0
   17.8752   19.8082   22.1892 H   0  0  0  0  0  0  0  0  0  0  0  0
   20.0791   20.0400   20.6231 O   0  0  0  0  0  0  0  0  0  0  0  0
   19.6376   19.2421   20.2656 H   0  0  0  0  0  0  0  0  0  0  0  0
  1  2  1  0  0  0  0
  1  3  1  0  0  0  0
  1  4  1  0  0  0  0
  4  5  1  0  0  0  0
  4  6  1  0  0  0  0
  4  7  1  0  0  0  0
  7  8  1  0  0  0  0
  1  9  1  0  0  0  0
  7  9  1  0  0  0  0
  9 10  1  0  0  0  0
  9 11  1  0  0  0  0
  7 12  1  0  0  0  0
 12 13  1  0  0  0  0
M  END
> <VConfSearch Rank>
355

> <Conf_Id>
44

> <Delta U+W>
0.823

> <U+W>
-2.308

> <U>
0.039

> <W>
-2.348

> <W(PB)>
-3.918

> <W(SA)>
1.571

> <Valence>
7.320

> <Coulomb>
-8.530

> <VdW>
1.249

> <VdW6>
-2.615

> <VdW12>
3.864

> <Bond>
0.056

> <Angle>
0.694

> <Pdih>
6.570

> <Idih>
0.000

> <Tether>
0.000

$$$$
VeraChem MOL file


 13 13  0  0  0  0  0  0  0  0999 V2000     
   18.9135   19.5175   21.2746 C   0  0  0  0  0  0  0  0  0  0  0  0
   18.5474   20.5355   21.4622 H   0  0  0  0  0  0  0  0  0  0  0  0
   18.5771   19.2020   20.2798 H   0  0  0  0  0  0  0  0  0  0  0  0
   18.6577   18.5051   22.4395 C   0  0  0  0  0  0  0  0  0  0  0  0
   17.7458   18.6625   23.0257 H   0  0  0  0  0  0  0  0  0  0  0  0
   18.7135   17.4482   22.1506 H   0  0  0  0  0  0  0  0  0  0  0  0
   19.9689   19.0748   23.0600 C   0  0  0  0  0  0  0  0  0  0  0  0
   19.8228   20.0038   23.6280 H   0  0  0  0  0  0  0  0  0  0  0  0
   20.4305   19.2991   21.5883 C   0  0  0  0  0  0  0  0  0  0  0  0
   21.0866   20.1600   21.4192 H   0  0  0  0  0  0  0  0  0  0  0  0
   20.8747   18.4171   21.1104 H   0  0  0  0  0  0  0  0  0  0  0  0
   20.7361   18.1524   23.7983 O   0  0  0  0  0  0  0  0  0  0  0  0
   21.5980   18.5801   23.9916 H   0  0  0  0  0  0  0  0  0  0  0  0
  1  2  1  0  0  0  0
  1  3  1  0  0  0  0
  1  4  1  0  0  0  0
  4  5  1  0  0  0  0
  4  6  1  0  0  0  0
  4  7  1  0  0  0  0
  7  8  1  0  0  0  0
  1  9  1  0  0  0  0
  7  9  1  0  0  0  0
  9 10  1  0  0  0  0
  9 11  1  0  0  0  0
  7 12  1  0  0  0  0
 12 13  1  0  0  0  0
M  END
> <VConfSearch Rank>
356

> <Conf_Id>
22

> <Delta U+W>
0.000

> <U+W>
-3.131

> <U>
-0.154

> <W>
-2.978

> <W(PB)>
-4.579

> <W(SA)>
1.601

> <Valence>
6.333

> <Coulomb>
-7.439

> <VdW>
0.952

> <VdW6>
-2.120

> <VdW12>
3.072

> <Bond>
0.065

> <Angle>
0.931

> <Pdih>
5.338

> <Idih>
0.000

> <Tether>
0.000

$$$$
VeraChem MOL file


 13 13  0  0  0  0  0  0  0  0999 V2000     
   18.6906   19.6778   21.7033 C   0  0  0  0  0  0  0  0  0  0  0  0
   18.0053   20.1194   22.4388 H   0  0  0  0  0  0  0  0  0  0  0  0
   18.3541   19.9584   20.6982 H   0  0  0  0  0  0  0  0  0  0  0  0
   19.0002   18.1605   21.9256 C   0  0  0  0  0  0  0  0  0  0  0  0
   19.3993   17.6407   21.0457 H   0  0  0  0  0  0  0  0  0  0  0  0
   18.1891   17.5602   22.3521 H   0  0  0  0  0  0  0  0  0  0  0  0
   20.0828   18.6539   22.9325 C   0  0  0  0  0  0  0  0  0  0  0  0
   19.6902   18.8826   23.9328 H   0  0  0  0  0  0  0  0  0  0  0  0
   20.2089   19.9013   22.0068 C   0  0  0  0  0  0  0  0  0  0  0  0
   20.8750   19.7630   21.1461 H   0  0  0  0  0  0  0  0  0  0  0  0
   20.4691   20.8408   22.5064 H   0  0  0  0  0  0  0  0  0  0  0  0
   21.2361   17.8496   23.0197 O   0  0  0  0  0  0  0  0  0  0  0  0
   20.9814   17.0262   23.4891 H   0  0  0  0  0  0  0  0  0  0  0  0
  1  2  1  0  0  0  0
  1  3  1  0  0  0  0
  1  4  1  0  0  0  0
  4  5  1  0  0  0  0
  4  6  1  0  0  0  0
  4  7  1  0  0  0  0
  7  8  1  0  0  0  0
  1  9  1  0  0  0  0
  7  9  1  0  0  0  0
  9 10  1  0  0  0  0
  9 11  1  0  0  0  0
  7 12  1  0  0  0  0
 12 13  1  0  0  0  0
M  END
> <VConfSearch Rank>
357

> <Conf_Id>
19

> <Delta U+W>
-0.011

> <U+W>
-3.142

> <U>
-0.154

> <W>
-2.989

> <W(PB)>
-4.588

> <W(SA)>
1.599

> <Valence>
6.334

> <Coulomb>
-7.439

> <VdW>
0.951

> <VdW6>
-2.120

> <VdW12>
3.072

> <Bond>
0.065

> <Angle>
0.930

> <Pdih>
5.339

> <Idih>
0.000

> <Tether>
0.000

$$$$
VeraChem MOL file


 13 13  0  0  0  0  0  0  0  0999 V2000     
   20.7251   18.5133   22.4576 C   0  0  0  0  0  0  0  0  0  0  0  0
   21.3814   18.0303   23.1911 H   0  0  0  0  0  0  0  0  0  0  0  0
   21.1961   18.4475   21.4681 H   0  0  0  0  0  0  0  0  0  0  0  0
   20.2028   19.9394   22.8348 C   0  0  0  0  0  0  0  0  0  0  0  0
   20.0722   20.1062   23.9108 H   0  0  0  0  0  0  0  0  0  0  0  0
   20.7614   20.7831   22.4146 H   0  0  0  0  0  0  0  0  0  0  0  0
   18.8904   19.5537   22.0836 C   0  0  0  0  0  0  0  0  0  0  0  0
   17.9728   19.9595   22.5288 H   0  0  0  0  0  0  0  0  0  0  0  0
   19.2207   18.0839   22.4918 C   0  0  0  0  0  0  0  0  0  0  0  0
   18.9259   17.3091   21.7754 H   0  0  0  0  0  0  0  0  0  0  0  0
   18.8521   17.8003   23.4851 H   0  0  0  0  0  0  0  0  0  0  0  0
   18.9055   19.8051   20.6927 O   0  0  0  0  0  0  0  0  0  0  0  0
   18.1151   19.3682   20.3098 H   0  0  0  0  0  0  0  0  0  0  0  0
  1  2  1  0  0  0  0
  1  3  1  0  0  0  0
  1  4  1  0  0  0  0
  4  5  1  0  0  0  0
  4  6  1  0  0  0  0
  4  7  1  0  0  0  0
  7  8  1  0  0  0  0
  1  9  1  0  0  0  0
  7  9  1  0  0  0  0
  9 10  1  0  0  0  0
  9 11  1  0  0  0  0
  7 12  1  0  0  0  0
 12 13  1  0  0  0  0
M  END
> <VConfSearch Rank>
358

> <Conf_Id>
20

> <Delta U+W>
1.030

> <U+W>
-2.101

> <U>
0.841

> <W>
-2.942

> <W(PB)>
-4.530

> <W(SA)>
1.587

> <Valence>
6.736

> <Coulomb>
-7.246

> <VdW>
1.352

> <VdW6>
-2.500

> <VdW12>
3.851

> <Bond>
0.063

> <Angle>
0.687

> <Pdih>
5.986

> <Idih>
0.000

> <Tether>
0.000

$$$$
VeraChem MOL file


 13 13  0  0  0  0  0  0  0  0999 V2000     
   19.8846   19.7746   21.2378 C   0  0  0  0  0  0  0  0  0  0  0  0
   19.9489   20.8455   21.4717 H   0  0  0  0  0  0  0  0  0  0  0  0
   19.9583   19.6486   20.1510 H   0  0  0  0  0  0  0  0  0  0  0  0
   18.7057   19.0218   21.9385 C   0  0  0  0  0  0  0  0  0  0  0  0
   17.7948   19.6058   22.1099 H   0  0  0  0  0  0  0  0  0  0  0  0
   18.4298   18.0683   21.4713 H   0  0  0  0  0  0  0  0  0  0  0  0
   19.6702   18.8991   23.1566 C   0  0  0  0  0  0  0  0  0  0  0  0
   19.6893   19.7897   23.7994 H   0  0  0  0  0  0  0  0  0  0  0  0
   20.8155   18.8598   22.1003 C   0  0  0  0  0  0  0  0  0  0  0  0
   21.0112   17.8701   21.6693 H   0  0  0  0  0  0  0  0  0  0  0  0
   21.7679   19.3008   22.4146 H   0  0  0  0  0  0  0  0  0  0  0  0
   19.5213   17.7326   23.9304 O   0  0  0  0  0  0  0  0  0  0  0  0
   19.5111   16.9762   23.3072 H   0  0  0  0  0  0  0  0  0  0  0  0
  1  2  1  0  0  0  0
  1  3  1  0  0  0  0
  1  4  1  0  0  0  0
  4  5  1  0  0  0  0
  4  6  1  0  0  0  0
  4  7  1  0  0  0  0
  7  8  1  0  0  0  0
  1  9  1  0  0  0  0
  7  9  1  0  0  0  0
  9 10  1  0  0  0  0
  9 11  1  0  0  0  0
  7 12  1  0  0  0  0
 12 13  1  0  0  0  0
M  END
> <VConfSearch Rank>
359

> <Conf_Id>
24

> <Delta U+W>
0.356

> <U+W>
-2.775

> <U>
-0.184

> <W>
-2.591

> <W(PB)>
-4.184

> <W(SA)>
1.593

> <Valence>
6.840

> <Coulomb>
-7.916

> <VdW>
0.893

> <VdW6>
-2.167

> <VdW12>
3.060

> <Bond>
0.059

> <Angle>
0.918

> <Pdih>
5.862

> <Idih>
0.000

> <Tether>
0.000

$$$$
VeraChem MOL file


 13 13  0  0  0  0  0  0  0  0999 V2000     
   19.7474   18.8212   21.0953 C   0  0  0  0  0  0  0  0  0  0  0  0
   19.4243   18.2092   20.2448 H   0  0  0  0  0  0  0  0  0  0  0  0
   20.3915   19.6258   20.7185 H   0  0  0  0  0  0  0  0  0  0  0  0
   20.3220   18.0379   22.3227 C   0  0  0  0  0  0  0  0  0  0  0  0
   19.8948   17.0374   22.4623 H   0  0  0  0  0  0  0  0  0  0  0  0
   21.4136   17.9613   22.3790 H   0  0  0  0  0  0  0  0  0  0  0  0
   19.6687   19.1388   23.2145 C   0  0  0  0  0  0  0  0  0  0  0  0
   19.2650   18.7786   24.1694 H   0  0  0  0  0  0  0  0  0  0  0  0
   18.6163   19.2863   22.0723 C   0  0  0  0  0  0  0  0  0  0  0  0
   17.7709   18.5918   22.1505 H   0  0  0  0  0  0  0  0  0  0  0  0
   18.2233   20.2963   21.9108 H   0  0  0  0  0  0  0  0  0  0  0  0
   20.4718   20.2792   23.4299 O   0  0  0  0  0  0  0  0  0  0  0  0
   20.8024   20.5543   22.5499 H   0  0  0  0  0  0  0  0  0  0  0  0
  1  2  1  0  0  0  0
  1  3  1  0  0  0  0
  1  4  1  0  0  0  0
  4  5  1  0  0  0  0
  4  6  1  0  0  0  0
  4  7  1  0  0  0  0
  7  8  1  0  0  0  0
  1  9  1  0  0  0  0
  7  9  1  0  0  0  0
  9 10  1  0  0  0  0
  9 11  1  0  0  0  0
  7 12  1  0  0  0  0
 12 13  1  0  0  0  0
M  END
> <VConfSearch Rank>
360

> <Conf_Id>
44

> <Delta U+W>
0.823

> <U+W>
-2.308

> <U>
0.039

> <W>
-2.348

> <W(PB)>
-3.918

> <W(SA)>
1.571

> <Valence>
7.320

> <Coulomb>
-8.530

> <VdW>
1.249

> <VdW6>
-2.615

> <VdW12>
3.864

> <Bond>
0.056

> <Angle>
0.694

> <Pdih>
6.570

> <Idih>
0.000

> <Tether>
0.000

$$$$
VeraChem MOL file


 13 13  0  0  0  0  0  0  0  0999 V2000     
   20.7724   19.7638   22.2438 C   0  0  0  0  0  0  0  0  0  0  0  0
   21.5876   19.3097   21.6651 H   0  0  0  0  0  0  0  0  0  0  0  0
   21.1090   20.7377   22.6186 H   0  0  0  0  0  0  0  0  0  0  0  0
   20.1092   18.8147   23.2958 C   0  0  0  0  0  0  0  0  0  0  0  0
   20.7677   18.0732   23.7612 H   0  0  0  0  0  0  0  0  0  0  0  0
   19.5416   19.3261   24.0831 H   0  0  0  0  0  0  0  0  0  0  0  0
   19.2437   18.3004   22.1062 C   0  0  0  0  0  0  0  0  0  0  0  0
   19.7400   17.5327   21.4968 H   0  0  0  0  0  0  0  0  0  0  0  0
   19.3775   19.7447   21.5359 C   0  0  0  0  0  0  0  0  0  0  0  0
   19.3899   19.8280   20.4436 H   0  0  0  0  0  0  0  0  0  0  0  0
   18.6506   20.4622   21.9366 H   0  0  0  0  0  0  0  0  0  0  0  0
   17.9342   17.9036   22.4414 O   0  0  0  0  0  0  0  0  0  0  0  0
   17.4493   17.7612   21.6001 H   0  0  0  0  0  0  0  0  0  0  0  0
  1  2  1  0  0  0  0
  1  3  1  0  0  0  0
  1  4  1  0  0  0  0
  4  5  1  0  0  0  0
  4  6  1  0  0  0  0
  4  7  1  0  0  0  0
  7  8  1  0  0  0  0
  1  9  1  0  0  0  0
  7  9  1  0  0  0  0
  9 10  1  0  0  0  0
  9 11  1  0  0  0  0
  7 12  1  0  0  0  0
 12 13  1  0  0  0  0
M  END
> <VConfSearch Rank>
361

> <Conf_Id>
22

> <Delta U+W>
0.000

> <U+W>
-3.131

> <U>
-0.154

> <W>
-2.978

> <W(PB)>
-4.579

> <W(SA)>
1.601

> <Valence>
6.333

> <Coulomb>
-7.439

> <VdW>
0.952

> <VdW6>
-2.120

> <VdW12>
3.072

> <Bond>
0.065

> <Angle>
0.931

> <Pdih>
5.338

> <Idih>
0.000

> <Tether>
0.000

$$$$
VeraChem MOL file


 13 13  0  0  0  0  0  0  0  0999 V2000     
   19.7519   18.8187   20.9364 C   0  0  0  0  0  0  0  0  0  0  0  0
   18.9360   18.2542   20.4661 H   0  0  0  0  0  0  0  0  0  0  0  0
   20.4788   19.0939   20.1630 H   0  0  0  0  0  0  0  0  0  0  0  0
   20.3396   18.1646   22.2302 C   0  0  0  0  0  0  0  0  0  0  0  0
   21.3361   18.5255   22.5140 H   0  0  0  0  0  0  0  0  0  0  0  0
   20.3396   17.0695   22.2596 H   0  0  0  0  0  0  0  0  0  0  0  0
   19.1616   18.8647   22.9728 C   0  0  0  0  0  0  0  0  0  0  0  0
   18.2150   18.3086   22.9313 H   0  0  0  0  0  0  0  0  0  0  0  0
   19.2873   19.9731   21.8845 C   0  0  0  0  0  0  0  0  0  0  0  0
   20.0517   20.7315   22.0943 H   0  0  0  0  0  0  0  0  0  0  0  0
   18.3552   20.4789   21.6099 H   0  0  0  0  0  0  0  0  0  0  0  0
   19.4409   19.2795   24.2898 O   0  0  0  0  0  0  0  0  0  0  0  0
   19.4884   18.4716   24.8451 H   0  0  0  0  0  0  0  0  0  0  0  0
  1  2  1  0  0  0  0
  1  3  1  0  0  0  0
  1  4  1  0  0  0  0
  4  5  1  0  0  0  0
  4  6  1  0  0  0  0
  4  7  1  0  0  0  0
  7  8  1  0  0  0  0
  1  9  1  0  0  0  0
  7  9  1  0  0  0  0
  9 10  1  0  0  0  0
  9 11  1  0  0  0  0
  7 12  1  0  0  0  0
 12 13  1  0  0  0  0
M  END
> <VConfSearch Rank>
362

> <Conf_Id>
19

> <Delta U+W>
-0.011

> <U+W>
-3.142

> <U>
-0.154

> <W>
-2.989

> <W(PB)>
-4.588

> <W(SA)>
1.599

> <Valence>
6.334

> <Coulomb>
-7.439

> <VdW>
0.951

> <VdW6>
-2.120

> <VdW12>
3.072

> <Bond>
0.065

> <Angle>
0.930

> <Pdih>
5.339

> <Idih>
0.000

> <Tether>
0.000

$$$$
VeraChem MOL file


 13 13  0  0  0  0  0  0  0  0999 V2000     
   19.5954   18.1277   23.0917 C   0  0  0  0  0  0  0  0  0  0  0  0
   20.1163   17.2390   23.4670 H   0  0  0  0  0  0  0  0  0  0  0  0
   18.7108   18.3062   23.7169 H   0  0  0  0  0  0  0  0  0  0  0  0
   19.3206   18.1657   21.5516 C   0  0  0  0  0  0  0  0  0  0  0  0
   20.0712   17.6476   20.9426 H   0  0  0  0  0  0  0  0  0  0  0  0
   18.3245   17.8397   21.2323 H   0  0  0  0  0  0  0  0  0  0  0  0
   19.5302   19.7091   21.6484 C   0  0  0  0  0  0  0  0  0  0  0  0
   20.0212   20.1593   20.7760 H   0  0  0  0  0  0  0  0  0  0  0  0
   20.4826   19.3926   22.8437 C   0  0  0  0  0  0  0  0  0  0  0  0
   20.5009   20.1324   23.6517 H   0  0  0  0  0  0  0  0  0  0  0  0
   21.5155   19.1716   22.5483 H   0  0  0  0  0  0  0  0  0  0  0  0
   18.3725   20.4465   21.9861 O   0  0  0  0  0  0  0  0  0  0  0  0
   18.6599   21.3625   22.1878 H   0  0  0  0  0  0  0  0  0  0  0  0
  1  2  1  0  0  0  0
  1  3  1  0  0  0  0
  1  4  1  0  0  0  0
  4  5  1  0  0  0  0
  4  6  1  0  0  0  0
  4  7  1  0  0  0  0
  7  8  1  0  0  0  0
  1  9  1  0  0  0  0
  7  9  1  0  0  0  0
  9 10  1  0  0  0  0
  9 11  1  0  0  0  0
  7 12  1  0  0  0  0
 12 13  1  0  0  0  0
M  END
> <VConfSearch Rank>
363

> <Conf_Id>
20

> <Delta U+W>
1.030

> <U+W>
-2.101

> <U>
0.841

> <W>
-2.942

> <W(PB)>
-4.530

> <W(SA)>
1.587

> <Valence>
6.736

> <Coulomb>
-7.246

> <VdW>
1.352

> <VdW6>
-2.500

> <VdW12>
3.851

> <Bond>
0.063

> <Angle>
0.687

> <Pdih>
5.986

> <Idih>
0.000

> <Tether>
0.000

$$$$
VeraChem MOL file


 13 13  0  0  0  0  0  0  0  0999 V2000     
   20.9120   18.9708   21.6784 C   0  0  0  0  0  0  0  0  0  0  0  0
   21.5927   19.7873   21.9536 H   0  0  0  0  0  0  0  0  0  0  0  0
   21.4225   18.3160   20.9621 H   0  0  0  0  0  0  0  0  0  0  0  0
   19.4686   19.4276   21.2842 C   0  0  0  0  0  0  0  0  0  0  0  0
   19.3891   20.4032   20.7922 H   0  0  0  0  0  0  0  0  0  0  0  0
   18.8990   18.6925   20.7023 H   0  0  0  0  0  0  0  0  0  0  0  0
   19.1793   19.4164   22.8157 C   0  0  0  0  0  0  0  0  0  0  0  0
   19.4954   20.3319   23.3340 H   0  0  0  0  0  0  0  0  0  0  0  0
   20.2210   18.2594   22.8883 C   0  0  0  0  0  0  0  0  0  0  0  0
   19.8196   17.2633   22.6649 H   0  0  0  0  0  0  0  0  0  0  0  0
   20.8060   18.2034   23.8129 H   0  0  0  0  0  0  0  0  0  0  0  0
   17.8644   19.0697   23.1799 O   0  0  0  0  0  0  0  0  0  0  0  0
   17.6390   18.2513   22.6897 H   0  0  0  0  0  0  0  0  0  0  0  0
  1  2  1  0  0  0  0
  1  3  1  0  0  0  0
  1  4  1  0  0  0  0
  4  5  1  0  0  0  0
  4  6  1  0  0  0  0
  4  7  1  0  0  0  0
  7  8  1  0  0  0  0
  1  9  1  0  0  0  0
  7  9  1  0  0  0  0
  9 10  1  0  0  0  0
  9 11  1  0  0  0  0
  7 12  1  0  0  0  0
 12 13  1  0  0  0  0
M  END
> <VConfSearch Rank>
364

> <Conf_Id>
24

> <Delta U+W>
0.356

> <U+W>
-2.775

> <U>
-0.184

> <W>
-2.591

> <W(PB)>
-4.184

> <W(SA)>
1.593

> <Valence>
6.840

> <Coulomb>
-7.916

> <VdW>
0.893

> <VdW6>
-2.167

> <VdW12>
3.060

> <Bond>
0.059

> <Angle>
0.918

> <Pdih>
5.862

> <Idih>
0.000

> <Tether>
0.000

$$$$
VeraChem MOL file


 13 13  0  0  0  0  0  0  0  0999 V2000     
   20.7445   19.0596   22.6004 C   0  0  0  0  0  0  0  0  0  0  0  0
   21.8116   19.0320   22.3499 H   0  0  0  0  0  0  0  0  0  0  0  0
   20.6459   19.2536   23.6760 H   0  0  0  0  0  0  0  0  0  0  0  0
   19.8850   17.8658   22.0652 C   0  0  0  0  0  0  0  0  0  0  0  0
   20.2445   17.4351   21.1227 H   0  0  0  0  0  0  0  0  0  0  0  0
   19.6984   17.0496   22.7721 H   0  0  0  0  0  0  0  0  0  0  0  0
   18.7268   18.8967   21.8930 C   0  0  0  0  0  0  0  0  0  0  0  0
   18.0850   18.7269   21.0190 H   0  0  0  0  0  0  0  0  0  0  0  0
   19.8496   19.9596   21.6843 C   0  0  0  0  0  0  0  0  0  0  0  0
   20.2004   20.0423   20.6483 H   0  0  0  0  0  0  0  0  0  0  0  0
   19.6322   20.9659   22.0596 H   0  0  0  0  0  0  0  0  0  0  0  0
   17.9332   19.0926   23.0434 O   0  0  0  0  0  0  0  0  0  0  0  0
   18.5548   19.2382   23.7862 H   0  0  0  0  0  0  0  0  0  0  0  0
  1  2  1  0  0  0  0
  1  3  1  0  0  0  0
  1  4  1  0  0  0  0
  4  5  1  0  0  0  0
  4  6  1  0  0  0  0
  4  7  1  0  0  0  0
  7  8  1  0  0  0  0
  1  9  1  0  0  0  0
  7  9  1  0  0  0  0
  9 10  1  0  0  0  0
  9 11  1  0  0  0  0
  7 12  1  0  0  0  0
 12 13  1  0  0  0  0
M  END
> <VConfSearch Rank>
365

> <Conf_Id>
44

> <Delta U+W>
0.823

> <U+W>
-2.308

> <U>
0.039

> <W>
-2.348

> <W(PB)>
-3.918

> <W(SA)>
1.571

> <Valence>
7.320

> <Coulomb>
-8.530

> <VdW>
1.249

> <VdW6>
-2.615

> <VdW12>
3.864

> <Bond>
0.056

> <Angle>
0.694

> <Pdih>
6.570

> <Idih>
0.000

> <Tether>
0.000

$$$$
VeraChem MOL file


 13 13  0  0  0  0  0  0  0  0999 V2000     
   19.6567   19.3987   20.9777 C   0  0  0  0  0  0  0  0  0  0  0  0
   20.6536   19.6336   20.5817 H   0  0  0  0  0  0  0  0  0  0  0  0
   18.9275   19.4823   20.1631 H   0  0  0  0  0  0  0  0  0  0  0  0
   19.2898   20.1379   22.3067 C   0  0  0  0  0  0  0  0  0  0  0  0
   19.7098   21.1415   22.4338 H   0  0  0  0  0  0  0  0  0  0  0  0
   18.2166   20.1733   22.5318 H   0  0  0  0  0  0  0  0  0  0  0  0
   20.0609   18.9854   23.0181 C   0  0  0  0  0  0  0  0  0  0  0  0
   21.1486   19.1360   23.0530 H   0  0  0  0  0  0  0  0  0  0  0  0
   19.5837   18.0915   21.8338 C   0  0  0  0  0  0  0  0  0  0  0  0
   20.2636   17.2842   21.5403 H   0  0  0  0  0  0  0  0  0  0  0  0
   18.5746   17.6776   21.9529 H   0  0  0  0  0  0  0  0  0  0  0  0
   19.5653   18.6218   24.2856 O   0  0  0  0  0  0  0  0  0  0  0  0
   20.0219   17.7941   24.5497 H   0  0  0  0  0  0  0  0  0  0  0  0
  1  2  1  0  0  0  0
  1  3  1  0  0  0  0
  1  4  1  0  0  0  0
  4  5  1  0  0  0  0
  4  6  1  0  0  0  0
  4  7  1  0  0  0  0
  7  8  1  0  0  0  0
  1  9  1  0  0  0  0
  7  9  1  0  0  0  0
  9 10  1  0  0  0  0
  9 11  1  0  0  0  0
  7 12  1  0  0  0  0
 12 13  1  0  0  0  0
M  END
> <VConfSearch Rank>
366

> <Conf_Id>
22

> <Delta U+W>
0.000

> <U+W>
-3.131

> <U>
-0.154

> <W>
-2.978

> <W(PB)>
-4.579

> <W(SA)>
1.601

> <Valence>
6.333

> <Coulomb>
-7.439

> <VdW>
0.952

> <VdW6>
-2.120

> <VdW12>
3.072

> <Bond>
0.065

> <Angle>
0.931

> <Pdih>
5.338

> <Idih>
0.000

> <Tether>
0.000

$$$$
VeraChem MOL file


 13 13  0  0  0  0  0  0  0  0999 V2000     
   20.8707   18.4842   22.3202 C   0  0  0  0  0  0  0  0  0  0  0  0
   21.4933   19.0480   23.0274 H   0  0  0  0  0  0  0  0  0  0  0  0
   21.4948   17.7276   21.8299 H   0  0  0  0  0  0  0  0  0  0  0  0
   19.9907   19.3668   21.3748 C   0  0  0  0  0  0  0  0  0  0  0  0
   19.6302   18.8545   20.4740 H   0  0  0  0  0  0  0  0  0  0  0  0
   20.4155   20.3339   21.0843 H   0  0  0  0  0  0  0  0  0  0  0  0
   18.9714   19.3983   22.5534 C   0  0  0  0  0  0  0  0  0  0  0  0
   19.1942   20.1577   23.3154 H   0  0  0  0  0  0  0  0  0  0  0  0
   19.5104   17.9788   22.9047 C   0  0  0  0  0  0  0  0  0  0  0  0
   19.0425   17.1626   22.3405 H   0  0  0  0  0  0  0  0  0  0  0  0
   19.5081   17.7183   23.9687 H   0  0  0  0  0  0  0  0  0  0  0  0
   17.6151   19.4511   22.1761 O   0  0  0  0  0  0  0  0  0  0  0  0
   17.4452   20.3526   21.8275 H   0  0  0  0  0  0  0  0  0  0  0  0
  1  2  1  0  0  0  0
  1  3  1  0  0  0  0
  1  4  1  0  0  0  0
  4  5  1  0  0  0  0
  4  6  1  0  0  0  0
  4  7  1  0  0  0  0
  7  8  1  0  0  0  0
  1  9  1  0  0  0  0
  7  9  1  0  0  0  0
  9 10  1  0  0  0  0
  9 11  1  0  0  0  0
  7 12  1  0  0  0  0
 12 13  1  0  0  0  0
M  END
> <VConfSearch Rank>
367

> <Conf_Id>
19

> <Delta U+W>
-0.011

> <U+W>
-3.142

> <U>
-0.154

> <W>
-2.989

> <W(PB)>
-4.588

> <W(SA)>
1.599

> <Valence>
6.334

> <Coulomb>
-7.439

> <VdW>
0.951

> <VdW6>
-2.120

> <VdW12>
3.072

> <Bond>
0.065

> <Angle>
0.930

> <Pdih>
5.339

> <Idih>
0.000

> <Tether>
0.000

$$$$
VeraChem MOL file


 13 13  0  0  0  0  0  0  0  0999 V2000     
   20.1508   19.5509   21.2794 C   0  0  0  0  0  0  0  0  0  0  0  0
   20.8473   20.3134   20.9116 H   0  0  0  0  0  0  0  0  0  0  0  0
   19.8133   18.9441   20.4290 H   0  0  0  0  0  0  0  0  0  0  0  0
   19.0009   20.0605   22.2105 C   0  0  0  0  0  0  0  0  0  0  0  0
   19.2630   20.9327   22.8215 H   0  0  0  0  0  0  0  0  0  0  0  0
   18.0368   20.2493   21.7254 H   0  0  0  0  0  0  0  0  0  0  0  0
   19.1287   18.6957   22.9564 C   0  0  0  0  0  0  0  0  0  0  0  0
   18.9645   18.7500   24.0404 H   0  0  0  0  0  0  0  0  0  0  0  0
   20.6269   18.7242   22.5198 C   0  0  0  0  0  0  0  0  0  0  0  0
   21.0822   17.7516   22.3029 H   0  0  0  0  0  0  0  0  0  0  0  0
   21.2839   19.2728   23.2057 H   0  0  0  0  0  0  0  0  0  0  0  0
   18.3655   17.6420   22.4037 O   0  0  0  0  0  0  0  0  0  0  0  0
   18.6580   16.8125   22.8379 H   0  0  0  0  0  0  0  0  0  0  0  0
  1  2  1  0  0  0  0
  1  3  1  0  0  0  0
  1  4  1  0  0  0  0
  4  5  1  0  0  0  0
  4  6  1  0  0  0  0
  4  7  1  0  0  0  0
  7  8  1  0  0  0  0
  1  9  1  0  0  0  0
  7  9  1  0  0  0  0
  9 10  1  0  0  0  0
  9 11  1  0  0  0  0
  7 12  1  0  0  0  0
 12 13  1  0  0  0  0
M  END
> <VConfSearch Rank>
368

> <Conf_Id>
20

> <Delta U+W>
1.030

> <U+W>
-2.101

> <U>
0.841

> <W>
-2.942

> <W(PB)>
-4.530

> <W(SA)>
1.587

> <Valence>
6.736

> <Coulomb>
-7.246

> <VdW>
1.352

> <VdW6>
-2.500

> <VdW12>
3.851

> <Bond>
0.063

> <Angle>
0.687

> <Pdih>
5.986

> <Idih>
0.000

> <Tether>
0.000

$$$$
VeraChem MOL file


 13 13  0  0  0  0  0  0  0  0999 V2000     
   20.8141   18.9868   22.9210 C   0  0  0  0  0  0  0  0  0  0  0  0
   21.3597   19.9374   22.9865 H   0  0  0  0  0  0  0  0  0  0  0  0
   21.3458   18.2363   23.5181 H   0  0  0  0  0  0  0  0  0  0  0  0
   20.4209   18.5571   21.4691 C   0  0  0  0  0  0  0  0  0  0  0  0
   21.1148   18.8521   20.6743 H   0  0  0  0  0  0  0  0  0  0  0  0
   20.1874   17.4913   21.3548 H   0  0  0  0  0  0  0  0  0  0  0  0
   19.1813   19.4818   21.6629 C   0  0  0  0  0  0  0  0  0  0  0  0
   19.3828   20.5427   21.4614 H   0  0  0  0  0  0  0  0  0  0  0  0
   19.2738   19.0981   23.1707 C   0  0  0  0  0  0  0  0  0  0  0  0
   18.7839   18.1533   23.4367 H   0  0  0  0  0  0  0  0  0  0  0  0
   18.9547   19.8710   23.8786 H   0  0  0  0  0  0  0  0  0  0  0  0
   18.0085   19.0663   21.0043 O   0  0  0  0  0  0  0  0  0  0  0  0
   17.8808   18.1187   21.2196 H   0  0  0  0  0  0  0  0  0  0  0  0
  1  2  1  0  0  0  0
  1  3  1  0  0  0  0
  1  4  1  0  0  0  0
  4  5  1  0  0  0  0
  4  6  1  0  0  0  0
  4  7  1  0  0  0  0
  7  8  1  0  0  0  0
  1  9  1  0  0  0  0
  7  9  1  0  0  0  0
  9 10  1  0  0  0  0
  9 11  1  0  0  0  0
  7 12  1  0  0  0  0
 12 13  1  0  0  0  0
M  END
> <VConfSearch Rank>
369

> <Conf_Id>
24

> <Delta U+W>
0.356

> <U+W>
-2.775

> <U>
-0.184

> <W>
-2.591

> <W(PB)>
-4.184

> <W(SA)>
1.593

> <Valence>
6.840

> <Coulomb>
-7.916

> <VdW>
0.893

> <VdW6>
-2.167

> <VdW12>
3.060

> <Bond>
0.059

> <Angle>
0.918

> <Pdih>
5.862

> <Idih>
0.000

> <Tether>
0.000

$$$$
VeraChem MOL file


 13 13  0  0  0  0  0  0  0  0999 V2000     
   20.3485   19.2759   21.3470 C   0  0  0  0  0  0  0  0  0  0  0  0
   20.6561   20.0951   20.6862 H   0  0  0  0  0  0  0  0  0  0  0  0
   20.9011   18.3725   21.0593 H   0  0  0  0  0  0  0  0  0  0  0  0
   18.8052   19.0773   21.5177 C   0  0  0  0  0  0  0  0  0  0  0  0
   18.2172   19.9991   21.4309 H   0  0  0  0  0  0  0  0  0  0  0  0
   18.3441   18.3095   20.8864 H   0  0  0  0  0  0  0  0  0  0  0  0
   19.1148   18.6559   22.9876 C   0  0  0  0  0  0  0  0  0  0  0  0
   18.3641   18.9690   23.7244 H   0  0  0  0  0  0  0  0  0  0  0  0
   20.3573   19.5931   22.8798 C   0  0  0  0  0  0  0  0  0  0  0  0
   20.1498   20.6414   23.1270 H   0  0  0  0  0  0  0  0  0  0  0  0
   21.2472   19.2743   23.4341 H   0  0  0  0  0  0  0  0  0  0  0  0
   19.4183   17.2884   23.1595 O   0  0  0  0  0  0  0  0  0  0  0  0
   20.0882   17.0666   22.4802 H   0  0  0  0  0  0  0  0  0  0  0  0
  1  2  1  0  0  0  0
  1  3  1  0  0  0  0
  1  4  1  0  0  0  0
  4  5  1  0  0  0  0
  4  6  1  0  0  0  0
  4  7  1  0  0  0  0
  7  8  1  0  0  0  0
  1  9  1  0  0  0  0
  7  9  1  0  0  0  0
  9 10  1  0  0  0  0
  9 11  1  0  0  0  0
  7 12  1  0  0  0  0
 12 13  1  0  0  0  0
M  END
> <VConfSearch Rank>
370

> <Conf_Id>
44

> <Delta U+W>
0.823

> <U+W>
-2.308

> <U>
0.039

> <W>
-2.348

> <W(PB)>
-3.918

> <W(SA)>
1.571

> <Valence>
7.320

> <Coulomb>
-8.530

> <VdW>
1.249

> <VdW6>
-2.615

> <VdW12>
3.864

> <Bond>
0.056

> <Angle>
0.694

> <Pdih>
6.570

> <Idih>
0.000

> <Tether>
0.000

$$$$
VeraChem MOL file


 13 13  0  0  0  0  0  0  0  0999 V2000     
   20.5634   20.0039   22.3689 C   0  0  0  0  0  0  0  0  0  0  0  0
   20.3642   20.8703   21.7245 H   0  0  0  0  0  0  0  0  0  0  0  0
   21.4481   20.2180   22.9803 H   0  0  0  0  0  0  0  0  0  0  0  0
   20.5554   18.6242   21.6315 C   0  0  0  0  0  0  0  0  0  0  0  0
   20.9034   18.6289   20.5928 H   0  0  0  0  0  0  0  0  0  0  0  0
   21.0607   17.8125   22.1693 H   0  0  0  0  0  0  0  0  0  0  0  0
   19.0099   18.6652   21.8285 C   0  0  0  0  0  0  0  0  0  0  0  0
   18.4815   19.2517   21.0644 H   0  0  0  0  0  0  0  0  0  0  0  0
   19.3141   19.4574   23.1357 C   0  0  0  0  0  0  0  0  0  0  0  0
   18.5651   20.2011   23.4292 H   0  0  0  0  0  0  0  0  0  0  0  0
   19.5484   18.8301   24.0049 H   0  0  0  0  0  0  0  0  0  0  0  0
   18.3929   17.4123   22.0127 O   0  0  0  0  0  0  0  0  0  0  0  0
   17.4656   17.5823   22.2855 H   0  0  0  0  0  0  0  0  0  0  0  0
  1  2  1  0  0  0  0
  1  3  1  0  0  0  0
  1  4  1  0  0  0  0
  4  5  1  0  0  0  0
  4  6  1  0  0  0  0
  4  7  1  0  0  0  0
  7  8  1  0  0  0  0
  1  9  1  0  0  0  0
  7  9  1  0  0  0  0
  9 10  1  0  0  0  0
  9 11  1  0  0  0  0
  7 12  1  0  0  0  0
 12 13  1  0  0  0  0
M  END
> <VConfSearch Rank>
371

> <Conf_Id>
22

> <Delta U+W>
0.000

> <U+W>
-3.131

> <U>
-0.154

> <W>
-2.978

> <W(PB)>
-4.579

> <W(SA)>
1.601

> <Valence>
6.333

> <Coulomb>
-7.439

> <VdW>
0.952

> <VdW6>
-2.120

> <VdW12>
3.072

> <Bond>
0.065

> <Angle>
0.931

> <Pdih>
5.338

> <Idih>
0.000

> <Tether>
0.000

$$$$
VeraChem MOL file


 13 13  0  0  0  0  0  0  0  0999 V2000     
   20.7128   18.1823   22.1234 C   0  0  0  0  0  0  0  0  0  0  0  0
   21.6341   18.7685   22.0089 H   0  0  0  0  0  0  0  0  0  0  0  0
   20.9635   17.1174   22.0497 H   0  0  0  0  0  0  0  0  0  0  0  0
   19.5140   18.6684   21.2437 C   0  0  0  0  0  0  0  0  0  0  0  0
   18.7209   17.9242   21.0985 H   0  0  0  0  0  0  0  0  0  0  0  0
   19.7737   19.1013   20.2714 H   0  0  0  0  0  0  0  0  0  0  0  0
   19.2432   19.6877   22.3913 C   0  0  0  0  0  0  0  0  0  0  0  0
   19.8583   20.5962   22.3350 H   0  0  0  0  0  0  0  0  0  0  0  0
   19.8214   18.5954   23.3408 C   0  0  0  0  0  0  0  0  0  0  0  0
   19.0944   17.8369   23.6568 H   0  0  0  0  0  0  0  0  0  0  0  0
   20.3516   18.9653   24.2251 H   0  0  0  0  0  0  0  0  0  0  0  0
   17.8887   20.0128   22.6016 O   0  0  0  0  0  0  0  0  0  0  0  0
   17.6054   20.5777   21.8507 H   0  0  0  0  0  0  0  0  0  0  0  0
  1  2  1  0  0  0  0
  1  3  1  0  0  0  0
  1  4  1  0  0  0  0
  4  5  1  0  0  0  0
  4  6  1  0  0  0  0
  4  7  1  0  0  0  0
  7  8  1  0  0  0  0
  1  9  1  0  0  0  0
  7  9  1  0  0  0  0
  9 10  1  0  0  0  0
  9 11  1  0  0  0  0
  7 12  1  0  0  0  0
 12 13  1  0  0  0  0
M  END
> <VConfSearch Rank>
372

> <Conf_Id>
19

> <Delta U+W>
-0.011

> <U+W>
-3.142

> <U>
-0.154

> <W>
-2.989

> <W(PB)>
-4.588

> <W(SA)>
1.599

> <Valence>
6.334

> <Coulomb>
-7.439

> <VdW>
0.951

> <VdW6>
-2.120

> <VdW12>
3.072

> <Bond>
0.065

> <Angle>
0.930

> <Pdih>
5.339

> <Idih>
0.000

> <Tether>
0.000

$$$$
VeraChem MOL file


 13 13  0  0  0  0  0  0  0  0999 V2000     
   20.0426   20.2035   22.4463 C   0  0  0  0  0  0  0  0  0  0  0  0
   20.9293   20.8279   22.6074 H   0  0  0  0  0  0  0  0  0  0  0  0
   19.1687   20.8579   22.3312 H   0  0  0  0  0  0  0  0  0  0  0  0
   19.8410   19.0215   23.4519 C   0  0  0  0  0  0  0  0  0  0  0  0
   20.7716   18.5958   23.8462 H   0  0  0  0  0  0  0  0  0  0  0  0
   19.1606   19.2127   24.2891 H   0  0  0  0  0  0  0  0  0  0  0  0
   19.2337   18.2295   22.2521 C   0  0  0  0  0  0  0  0  0  0  0  0
   19.4582   17.1551   22.2531 H   0  0  0  0  0  0  0  0  0  0  0  0
   20.1721   19.0927   21.3518 C   0  0  0  0  0  0  0  0  0  0  0  0
   19.7836   19.3482   20.3598 H   0  0  0  0  0  0  0  0  0  0  0  0
   21.1837   18.6846   21.2367 H   0  0  0  0  0  0  0  0  0  0  0  0
   17.8509   18.4347   22.0429 O   0  0  0  0  0  0  0  0  0  0  0  0
   17.6257   18.0355   21.1756 H   0  0  0  0  0  0  0  0  0  0  0  0
  1  2  1  0  0  0  0
  1  3  1  0  0  0  0
  1  4  1  0  0  0  0
  4  5  1  0  0  0  0
  4  6  1  0  0  0  0
  4  7  1  0  0  0  0
  7  8  1  0  0  0  0
  1  9  1  0  0  0  0
  7  9  1  0  0  0  0
  9 10  1  0  0  0  0
  9 11  1  0  0  0  0
  7 12  1  0  0  0  0
 12 13  1  0  0  0  0
M  END
> <VConfSearch Rank>
373

> <Conf_Id>
20

> <Delta U+W>
1.030

> <U+W>
-2.101

> <U>
0.841

> <W>
-2.942

> <W(PB)>
-4.530

> <W(SA)>
1.587

> <Valence>
6.736

> <Coulomb>
-7.246

> <VdW>
1.352

> <VdW6>
-2.500

> <VdW12>
3.851

> <Bond>
0.063

> <Angle>
0.687

> <Pdih>
5.986

> <Idih>
0.000

> <Tether>
0.000

$$$$
VeraChem MOL file


 13 13  0  0  0  0  0  0  0  0999 V2000     
   19.8514   19.4268   21.0257 C   0  0  0  0  0  0  0  0  0  0  0  0
   20.8573   19.5229   20.5961 H   0  0  0  0  0  0  0  0  0  0  0  0
   19.1209   19.7827   20.2894 H   0  0  0  0  0  0  0  0  0  0  0  0
   19.7016   19.9986   22.4742 C   0  0  0  0  0  0  0  0  0  0  0  0
   20.3261   20.8653   22.7174 H   0  0  0  0  0  0  0  0  0  0  0  0
   18.6692   20.2128   22.7770 H   0  0  0  0  0  0  0  0  0  0  0  0
   20.2486   18.6170   22.9442 C   0  0  0  0  0  0  0  0  0  0  0  0
   21.3443   18.5415   22.9199 H   0  0  0  0  0  0  0  0  0  0  0  0
   19.5488   18.0374   21.6779 C   0  0  0  0  0  0  0  0  0  0  0  0
   18.4823   17.8132   21.8027 H   0  0  0  0  0  0  0  0  0  0  0  0
   20.0385   17.1720   21.2179 H   0  0  0  0  0  0  0  0  0  0  0  0
   19.7474   18.1558   24.1762 O   0  0  0  0  0  0  0  0  0  0  0  0
   18.7721   18.2467   24.1394 H   0  0  0  0  0  0  0  0  0  0  0  0
  1  2  1  0  0  0  0
  1  3  1  0  0  0  0
  1  4  1  0  0  0  0
  4  5  1  0  0  0  0
  4  6  1  0  0  0  0
  4  7  1  0  0  0  0
  7  8  1  0  0  0  0
  1  9  1  0  0  0  0
  7  9  1  0  0  0  0
  9 10  1  0  0  0  0
  9 11  1  0  0  0  0
  7 12  1  0  0  0  0
 12 13  1  0  0  0  0
M  END
> <VConfSearch Rank>
374

> <Conf_Id>
24

> <Delta U+W>
0.356

> <U+W>
-2.775

> <U>
-0.184

> <W>
-2.591

> <W(PB)>
-4.184

> <W(SA)>
1.593

> <Valence>
6.840

> <Coulomb>
-7.916

> <VdW>
0.893

> <VdW6>
-2.167

> <VdW12>
3.060

> <Bond>
0.059

> <Angle>
0.918

> <Pdih>
5.862

> <Idih>
0.000

> <Tether>
0.000

$$$$
VeraChem MOL file


 13 13  0  0  0  0  0  0  0  0999 V2000     
   20.2811   18.8308   21.2601 C   0  0  0  0  0  0  0  0  0  0  0  0
   20.9079   19.3138   20.5011 H   0  0  0  0  0  0  0  0  0  0  0  0
   20.1742   17.7706   20.9977 H   0  0  0  0  0  0  0  0  0  0  0  0
   18.9410   19.5617   21.6068 C   0  0  0  0  0  0  0  0  0  0  0  0
   18.9789   20.6527   21.5003 H   0  0  0  0  0  0  0  0  0  0  0  0
   18.0437   19.1931   21.0972 H   0  0  0  0  0  0  0  0  0  0  0  0
   19.1508   19.0573   23.0681 C   0  0  0  0  0  0  0  0  0  0  0  0
   18.8215   19.7555   23.8482 H   0  0  0  0  0  0  0  0  0  0  0  0
   20.6773   19.1038   22.7495 C   0  0  0  0  0  0  0  0  0  0  0  0
   21.1410   20.0826   22.9232 H   0  0  0  0  0  0  0  0  0  0  0  0
   21.2913   18.3368   23.2346 H   0  0  0  0  0  0  0  0  0  0  0  0
   18.6397   17.7677   23.3280 O   0  0  0  0  0  0  0  0  0  0  0  0
   18.9635   17.1915   22.6052 H   0  0  0  0  0  0  0  0  0  0  0  0
  1  2  1  0  0  0  0
  1  3  1  0  0  0  0
  1  4  1  0  0  0  0
  4  5  1  0  0  0  0
  4  6  1  0  0  0  0
  4  7  1  0  0  0  0
  7  8  1  0  0  0  0
  1  9  1  0  0  0  0
  7  9  1  0  0  0  0
  9 10  1  0  0  0  0
  9 11  1  0  0  0  0
  7 12  1  0  0  0  0
 12 13  1  0  0  0  0
M  END
> <VConfSearch Rank>
375

> <Conf_Id>
44

> <Delta U+W>
0.823

> <U+W>
-2.308

> <U>
0.039

> <W>
-2.348

> <W(PB)>
-3.918

> <W(SA)>
1.571

> <Valence>
7.320

> <Coulomb>
-8.530

> <VdW>
1.249

> <VdW6>
-2.615

> <VdW12>
3.864

> <Bond>
0.056

> <Angle>
0.694

> <Pdih>
6.570

> <Idih>
0.000

> <Tether>
0.000

$$$$
VeraChem MOL file


 13 13  0  0  0  0  0  0  0  0999 V2000     
   19.9145   20.1615   21.5934 C   0  0  0  0  0  0  0  0  0  0  0  0
   19.0112   20.7416   21.3630 H   0  0  0  0  0  0  0  0  0  0  0  0
   20.7898   20.7230   21.2456 H   0  0  0  0  0  0  0  0  0  0  0  0
   19.8513   18.6566   21.1705 C   0  0  0  0  0  0  0  0  0  0  0  0
   19.2667   18.4308   20.2721 H   0  0  0  0  0  0  0  0  0  0  0  0
   20.8263   18.1600   21.0912 H   0  0  0  0  0  0  0  0  0  0  0  0
   19.1208   18.4315   22.5287 C   0  0  0  0  0  0  0  0  0  0  0  0
   18.0441   18.6472   22.4934 H   0  0  0  0  0  0  0  0  0  0  0  0
   19.9860   19.6152   23.0575 C   0  0  0  0  0  0  0  0  0  0  0  0
   19.5213   20.2397   23.8285 H   0  0  0  0  0  0  0  0  0  0  0  0
   20.9916   19.3310   23.3919 H   0  0  0  0  0  0  0  0  0  0  0  0
   19.3619   17.1870   23.1432 O   0  0  0  0  0  0  0  0  0  0  0  0
   18.9873   17.2328   24.0492 H   0  0  0  0  0  0  0  0  0  0  0  0
  1  2  1  0  0  0  0
  1  3  1  0  0  0  0
  1  4  1  0  0  0  0
  4  5  1  0  0  0  0
  4  6  1  0  0  0  0
  4  7  1  0  0  0  0
  7  8  1  0  0  0  0
  1  9  1  0  0  0  0
  7  9  1  0  0  0  0
  9 10  1  0  0  0  0
  9 11  1  0  0  0  0
  7 12  1  0  0  0  0
 12 13  1  0  0  0  0
M  END
> <VConfSearch Rank>
376

> <Conf_Id>
22

> <Delta U+W>
0.000

> <U+W>
-3.131

> <U>
-0.154

> <W>
-2.978

> <W(PB)>
-4.579

> <W(SA)>
1.601

> <Valence>
6.333

> <Coulomb>
-7.439

> <VdW>
0.952

> <VdW6>
-2.120

> <VdW12>
3.072

> <Bond>
0.065

> <Angle>
0.931

> <Pdih>
5.338

> <Idih>
0.000

> <Tether>
0.000

$$$$
VeraChem MOL file


 13 13  0  0  0  0  0  0  0  0999 V2000     
   19.6195   19.5227   23.4227 C   0  0  0  0  0  0  0  0  0  0  0  0
   19.0831   18.9562   24.1954 H   0  0  0  0  0  0  0  0  0  0  0  0
   19.9573   20.4720   23.8553 H   0  0  0  0  0  0  0  0  0  0  0  0
   18.8782   19.6190   22.0485 C   0  0  0  0  0  0  0  0  0  0  0  0
   19.2269   20.4290   21.3957 H   0  0  0  0  0  0  0  0  0  0  0  0
   17.7839   19.6473   22.0918 H   0  0  0  0  0  0  0  0  0  0  0  0
   19.5110   18.2269   21.7474 C   0  0  0  0  0  0  0  0  0  0  0  0
   18.9505   17.3816   22.1698 H   0  0  0  0  0  0  0  0  0  0  0  0
   20.6971   18.7026   22.6395 C   0  0  0  0  0  0  0  0  0  0  0  0
   21.4453   19.3096   22.1149 H   0  0  0  0  0  0  0  0  0  0  0  0
   21.2127   17.9182   23.2042 H   0  0  0  0  0  0  0  0  0  0  0  0
   19.8311   17.9898   20.3962 O   0  0  0  0  0  0  0  0  0  0  0  0
   18.9853   17.8596   19.9157 H   0  0  0  0  0  0  0  0  0  0  0  0
  1  2  1  0  0  0  0
  1  3  1  0  0  0  0
  1  4  1  0  0  0  0
  4  5  1  0  0  0  0
  4  6  1  0  0  0  0
  4  7  1  0  0  0  0
  7  8  1  0  0  0  0
  1  9  1  0  0  0  0
  7  9  1  0  0  0  0
  9 10  1  0  0  0  0
  9 11  1  0  0  0  0
  7 12  1  0  0  0  0
 12 13  1  0  0  0  0
M  END
> <VConfSearch Rank>
377

> <Conf_Id>
19

> <Delta U+W>
-0.011

> <U+W>
-3.142

> <U>
-0.154

> <W>
-2.989

> <W(PB)>
-4.588

> <W(SA)>
1.599

> <Valence>
6.334

> <Coulomb>
-7.439

> <VdW>
0.951

> <VdW6>
-2.120

> <VdW12>
3.072

> <Bond>
0.065

> <Angle>
0.930

> <Pdih>
5.339

> <Idih>
0.000

> <Tether>
0.000

$$$$
VeraChem MOL file


 13 13  0  0  0  0  0  0  0  0999 V2000     
   19.2608   17.9125   22.0032 C   0  0  0  0  0  0  0  0  0  0  0  0
   19.5638   16.9430   21.5907 H   0  0  0  0  0  0  0  0  0  0  0  0
   18.2293   17.8310   22.3701 H   0  0  0  0  0  0  0  0  0  0  0  0
   19.5318   19.1606   21.0990 C   0  0  0  0  0  0  0  0  0  0  0  0
   20.4103   19.0693   20.4488 H   0  0  0  0  0  0  0  0  0  0  0  0
   18.6859   19.5121   20.4979 H   0  0  0  0  0  0  0  0  0  0  0  0
   19.7947   19.9441   22.4228 C   0  0  0  0  0  0  0  0  0  0  0  0
   20.5821   20.7057   22.3545 H   0  0  0  0  0  0  0  0  0  0  0  0
   20.2589   18.5746   23.0103 C   0  0  0  0  0  0  0  0  0  0  0  0
   20.0477   18.4119   24.0730 H   0  0  0  0  0  0  0  0  0  0  0  0
   21.3140   18.3406   22.8236 H   0  0  0  0  0  0  0  0  0  0  0  0
   18.6414   20.4935   23.0279 O   0  0  0  0  0  0  0  0  0  0  0  0
   18.9010   20.8010   23.9224 H   0  0  0  0  0  0  0  0  0  0  0  0
  1  2  1  0  0  0  0
  1  3  1  0  0  0  0
  1  4  1  0  0  0  0
  4  5  1  0  0  0  0
  4  6  1  0  0  0  0
  4  7  1  0  0  0  0
  7  8  1  0  0  0  0
  1  9  1  0  0  0  0
  7  9  1  0  0  0  0
  9 10  1  0  0  0  0
  9 11  1  0  0  0  0
  7 12  1  0  0  0  0
 12 13  1  0  0  0  0
M  END
> <VConfSearch Rank>
378

> <Conf_Id>
20

> <Delta U+W>
1.030

> <U+W>
-2.101

> <U>
0.841

> <W>
-2.942

> <W(PB)>
-4.530

> <W(SA)>
1.587

> <Valence>
6.736

> <Coulomb>
-7.246

> <VdW>
1.352

> <VdW6>
-2.500

> <VdW12>
3.851

> <Bond>
0.063

> <Angle>
0.687

> <Pdih>
5.986

> <Idih>
0.000

> <Tether>
0.000

$$$$
VeraChem MOL file


 13 13  0  0  0  0  0  0  0  0999 V2000     
   18.8495   18.2028   22.7359 C   0  0  0  0  0  0  0  0  0  0  0  0
   18.9374   17.1177   22.5928 H   0  0  0  0  0  0  0  0  0  0  0  0
   17.9533   18.4054   23.3344 H   0  0  0  0  0  0  0  0  0  0  0  0
   19.0099   19.0498   21.4304 C   0  0  0  0  0  0  0  0  0  0  0  0
   18.6519   18.5833   20.5060 H   0  0  0  0  0  0  0  0  0  0  0  0
   18.6031   20.0667   21.4920 H   0  0  0  0  0  0  0  0  0  0  0  0
   20.5421   18.9405   21.6943 C   0  0  0  0  0  0  0  0  0  0  0  0
   20.9901   18.0064   21.3291 H   0  0  0  0  0  0  0  0  0  0  0  0
   20.1638   18.9091   23.2059 C   0  0  0  0  0  0  0  0  0  0  0  0
   20.0149   19.8945   23.6643 H   0  0  0  0  0  0  0  0  0  0  0  0
   20.8250   18.3184   23.8495 H   0  0  0  0  0  0  0  0  0  0  0  0
   21.3065   20.0497   21.2854 O   0  0  0  0  0  0  0  0  0  0  0  0
   20.8613   20.8486   21.6380 H   0  0  0  0  0  0  0  0  0  0  0  0
  1  2  1  0  0  0  0
  1  3  1  0  0  0  0
  1  4  1  0  0  0  0
  4  5  1  0  0  0  0
  4  6  1  0  0  0  0
  4  7  1  0  0  0  0
  7  8  1  0  0  0  0
  1  9  1  0  0  0  0
  7  9  1  0  0  0  0
  9 10  1  0  0  0  0
  9 11  1  0  0  0  0
  7 12  1  0  0  0  0
 12 13  1  0  0  0  0
M  END
> <VConfSearch Rank>
379

> <Conf_Id>
24

> <Delta U+W>
0.356

> <U+W>
-2.775

> <U>
-0.184

> <W>
-2.591

> <W(PB)>
-4.184

> <W(SA)>
1.593

> <Valence>
6.840

> <Coulomb>
-7.916

> <VdW>
0.893

> <VdW6>
-2.167

> <VdW12>
3.060

> <Bond>
0.059

> <Angle>
0.918

> <Pdih>
5.862

> <Idih>
0.000

> <Tether>
0.000

$$$$
VeraChem MOL file


 13 13  0  0  0  0  0  0  0  0999 V2000     
   20.6680   19.2353   21.7135 C   0  0  0  0  0  0  0  0  0  0  0  0
   21.5042   18.8727   21.1038 H   0  0  0  0  0  0  0  0  0  0  0  0
   20.8399   20.2947   21.9426 H   0  0  0  0  0  0  0  0  0  0  0  0
   20.2847   18.3490   22.9454 C   0  0  0  0  0  0  0  0  0  0  0  0
   20.4771   17.2776   22.8105 H   0  0  0  0  0  0  0  0  0  0  0  0
   20.6998   18.6583   23.9111 H   0  0  0  0  0  0  0  0  0  0  0  0
   18.8073   18.7695   22.6721 C   0  0  0  0  0  0  0  0  0  0  0  0
   18.0619   17.9889   22.8705 H   0  0  0  0  0  0  0  0  0  0  0  0
   19.2356   18.9015   21.1777 C   0  0  0  0  0  0  0  0  0  0  0  0
   19.1708   17.9657   20.6094 H   0  0  0  0  0  0  0  0  0  0  0  0
   18.7376   19.6919   20.6049 H   0  0  0  0  0  0  0  0  0  0  0  0
   18.4138   19.9789   23.2838 O   0  0  0  0  0  0  0  0  0  0  0  0
   19.1112   20.6340   23.0746 H   0  0  0  0  0  0  0  0  0  0  0  0
  1  2  1  0  0  0  0
  1  3  1  0  0  0  0
  1  4  1  0  0  0  0
  4  5  1  0  0  0  0
  4  6  1  0  0  0  0
  4  7  1  0  0  0  0
  7  8  1  0  0  0  0
  1  9  1  0  0  0  0
  7  9  1  0  0  0  0
  9 10  1  0  0  0  0
  9 11  1  0  0  0  0
  7 12  1  0  0  0  0
 12 13  1  0  0  0  0
M  END
> <VConfSearch Rank>
380

> <Conf_Id>
44

> <Delta U+W>
0.823

> <U+W>
-2.308

> <U>
0.039

> <W>
-2.348

> <W(PB)>
-3.918

> <W(SA)>
1.571

> <Valence>
7.320

> <Coulomb>
-8.530

> <VdW>
1.249

> <VdW6>
-2.615

> <VdW12>
3.864

> <Bond>
0.056

> <Angle>
0.694

> <Pdih>
6.570

> <Idih>
0.000

> <Tether>
0.000

$$$$
VeraChem MOL file


 13 13  0  0  0  0  0  0  0  0999 V2000     
   19.3780   18.6202   21.0322 C   0  0  0  0  0  0  0  0  0  0  0  0
   20.1556   17.9792   20.5962 H   0  0  0  0  0  0  0  0  0  0  0  0
   18.5399   18.6827   20.3279 H   0  0  0  0  0  0  0  0  0  0  0  0
   19.8966   19.9803   21.6053 C   0  0  0  0  0  0  0  0  0  0  0  0
   20.7528   20.4278   21.0890 H   0  0  0  0  0  0  0  0  0  0  0  0
   19.1240   20.7478   21.7380 H   0  0  0  0  0  0  0  0  0  0  0  0
   20.2301   19.1706   22.8945 C   0  0  0  0  0  0  0  0  0  0  0  0
   21.1936   18.6444   22.8501 H   0  0  0  0  0  0  0  0  0  0  0  0
   19.0067   18.2832   22.5140 C   0  0  0  0  0  0  0  0  0  0  0  0
   19.0743   17.2279   22.8000 H   0  0  0  0  0  0  0  0  0  0  0  0
   18.0374   18.6773   22.8443 H   0  0  0  0  0  0  0  0  0  0  0  0
   20.1049   19.8838   24.1029 O   0  0  0  0  0  0  0  0  0  0  0  0
   20.1788   19.2328   24.8336 H   0  0  0  0  0  0  0  0  0  0  0  0
  1  2  1  0  0  0  0
  1  3  1  0  0  0  0
  1  4  1  0  0  0  0
  4  5  1  0  0  0  0
  4  6  1  0  0  0  0
  4  7  1  0  0  0  0
  7  8  1  0  0  0  0
  1  9  1  0  0  0  0
  7  9  1  0  0  0  0
  9 10  1  0  0  0  0
  9 11  1  0  0  0  0
  7 12  1  0  0  0  0
 12 13  1  0  0  0  0
M  END
> <VConfSearch Rank>
381

> <Conf_Id>
22

> <Delta U+W>
0.000

> <U+W>
-3.131

> <U>
-0.154

> <W>
-2.978

> <W(PB)>
-4.579

> <W(SA)>
1.601

> <Valence>
6.333

> <Coulomb>
-7.439

> <VdW>
0.952

> <VdW6>
-2.120

> <VdW12>
3.072

> <Bond>
0.065

> <Angle>
0.931

> <Pdih>
5.338

> <Idih>
0.000

> <Tether>
0.000

$$$$
VeraChem MOL file


 13 13  0  0  0  0  0  0  0  0999 V2000     
   18.4564   18.3449   22.4132 C   0  0  0  0  0  0  0  0  0  0  0  0
   17.8106   18.8642   23.1335 H   0  0  0  0  0  0  0  0  0  0  0  0
   17.9417   17.4393   22.0705 H   0  0  0  0  0  0  0  0  0  0  0  0
   19.9384   18.1585   22.8783 C   0  0  0  0  0  0  0  0  0  0  0  0
   20.4929   17.3797   22.3402 H   0  0  0  0  0  0  0  0  0  0  0  0
   20.0925   18.0217   23.9543 H   0  0  0  0  0  0  0  0  0  0  0  0
   20.1618   19.6032   22.3378 C   0  0  0  0  0  0  0  0  0  0  0  0
   19.8731   20.3933   23.0445 H   0  0  0  0  0  0  0  0  0  0  0  0
   19.0564   19.2591   21.2945 C   0  0  0  0  0  0  0  0  0  0  0  0
   19.4188   18.7236   20.4083 H   0  0  0  0  0  0  0  0  0  0  0  0
   18.4316   20.0977   20.9684 H   0  0  0  0  0  0  0  0  0  0  0  0
   21.4395   19.8549   21.8006 O   0  0  0  0  0  0  0  0  0  0  0  0
   22.0685   19.8943   22.5530 H   0  0  0  0  0  0  0  0  0  0  0  0
  1  2  1  0  0  0  0
  1  3  1  0  0  0  0
  1  4  1  0  0  0  0
  4  5  1  0  0  0  0
  4  6  1  0  0  0  0
  4  7  1  0  0  0  0
  7  8  1  0  0  0  0
  1  9  1  0  0  0  0
  7  9  1  0  0  0  0
  9 10  1  0  0  0  0
  9 11  1  0  0  0  0
  7 12  1  0  0  0  0
 12 13  1  0  0  0  0
M  END
> <VConfSearch Rank>
382

> <Conf_Id>
19

> <Delta U+W>
-0.011

> <U+W>
-3.142

> <U>
-0.154

> <W>
-2.989

> <W(PB)>
-4.588

> <W(SA)>
1.599

> <Valence>
6.334

> <Coulomb>
-7.439

> <VdW>
0.951

> <VdW6>
-2.120

> <VdW12>
3.072

> <Bond>
0.065

> <Angle>
0.930

> <Pdih>
5.339

> <Idih>
0.000

> <Tether>
0.000

$$$$
VeraChem MOL file


 13 13  0  0  0  0  0  0  0  0999 V2000     
   19.0619   19.7494   23.1219 C   0  0  0  0  0  0  0  0  0  0  0  0
   18.5612   20.7068   23.3080 H   0  0  0  0  0  0  0  0  0  0  0  0
   18.9826   19.1304   24.0251 H   0  0  0  0  0  0  0  0  0  0  0  0
   20.5021   19.8320   22.5154 C   0  0  0  0  0  0  0  0  0  0  0  0
   20.6730   20.6983   21.8650 H   0  0  0  0  0  0  0  0  0  0  0  0
   21.3298   19.7613   23.2297 H   0  0  0  0  0  0  0  0  0  0  0  0
   20.1527   18.5173   21.7505 C   0  0  0  0  0  0  0  0  0  0  0  0
   20.5839   18.4459   20.7436 H   0  0  0  0  0  0  0  0  0  0  0  0
   18.6744   19.0162   21.7948 C   0  0  0  0  0  0  0  0  0  0  0  0
   17.9078   18.2384   21.8819 H   0  0  0  0  0  0  0  0  0  0  0  0
   18.4016   19.6853   20.9696 H   0  0  0  0  0  0  0  0  0  0  0  0
   20.4029   17.3264   22.4696 O   0  0  0  0  0  0  0  0  0  0  0  0
   19.9879   16.5919   21.9690 H   0  0  0  0  0  0  0  0  0  0  0  0
  1  2  1  0  0  0  0
  1  3  1  0  0  0  0
  1  4  1  0  0  0  0
  4  5  1  0  0  0  0
  4  6  1  0  0  0  0
  4  7  1  0  0  0  0
  7  8  1  0  0  0  0
  1  9  1  0  0  0  0
  7  9  1  0  0  0  0
  9 10  1  0  0  0  0
  9 11  1  0  0  0  0
  7 12  1  0  0  0  0
 12 13  1  0  0  0  0
M  END
> <VConfSearch Rank>
383

> <Conf_Id>
20

> <Delta U+W>
1.030

> <U+W>
-2.101

> <U>
0.841

> <W>
-2.942

> <W(PB)>
-4.530

> <W(SA)>
1.587

> <Valence>
6.736

> <Coulomb>
-7.246

> <VdW>
1.352

> <VdW6>
-2.500

> <VdW12>
3.851

> <Bond>
0.063

> <Angle>
0.687

> <Pdih>
5.986

> <Idih>
0.000

> <Tether>
0.000

$$$$
VeraChem MOL file


 13 13  0  0  0  0  0  0  0  0999 V2000     
   19.4653   20.0987   21.7105 C   0  0  0  0  0  0  0  0  0  0  0  0
   18.8210   20.1278   20.8219 H   0  0  0  0  0  0  0  0  0  0  0  0
   19.7363   21.1264   21.9802 H   0  0  0  0  0  0  0  0  0  0  0  0
   20.6460   19.0756   21.6291 C   0  0  0  0  0  0  0  0  0  0  0  0
   21.0700   18.9070   20.6330 H   0  0  0  0  0  0  0  0  0  0  0  0
   21.4656   19.2659   22.3329 H   0  0  0  0  0  0  0  0  0  0  0  0
   19.6032   18.0209   22.1080 C   0  0  0  0  0  0  0  0  0  0  0  0
   18.9848   17.6087   21.2991 H   0  0  0  0  0  0  0  0  0  0  0  0
   18.9328   19.2003   22.8753 C   0  0  0  0  0  0  0  0  0  0  0  0
   19.3695   19.4184   23.8577 H   0  0  0  0  0  0  0  0  0  0  0  0
   17.8438   19.1418   22.9799 H   0  0  0  0  0  0  0  0  0  0  0  0
   20.1155   16.9879   22.9157 O   0  0  0  0  0  0  0  0  0  0  0  0
   20.6550   17.4133   23.6148 H   0  0  0  0  0  0  0  0  0  0  0  0
  1  2  1  0  0  0  0
  1  3  1  0  0  0  0
  1  4  1  0  0  0  0
  4  5  1  0  0  0  0
  4  6  1  0  0  0  0
  4  7  1  0  0  0  0
  7  8  1  0  0  0  0
  1  9  1  0  0  0  0
  7  9  1  0  0  0  0
  9 10  1  0  0  0  0
  9 11  1  0  0  0  0
  7 12  1  0  0  0  0
 12 13  1  0  0  0  0
M  END
> <VConfSearch Rank>
384

> <Conf_Id>
24

> <Delta U+W>
0.356

> <U+W>
-2.775

> <U>
-0.184

> <W>
-2.591

> <W(PB)>
-4.184

> <W(SA)>
1.593

> <Valence>
6.840

> <Coulomb>
-7.916

> <VdW>
0.893

> <VdW6>
-2.167

> <VdW12>
3.060

> <Bond>
0.059

> <Angle>
0.918

> <Pdih>
5.862

> <Idih>
0.000

> <Tether>
0.000

$$$$
VeraChem MOL file


 13 13  0  0  0  0  0  0  0  0999 V2000     
   20.0214   18.2199   21.4381 C   0  0  0  0  0  0  0  0  0  0  0  0
   19.6979   17.4923   20.6842 H   0  0  0  0  0  0  0  0  0  0  0  0
   21.1186   18.2311   21.4605 H   0  0  0  0  0  0  0  0  0  0  0  0
   19.3353   18.1034   22.8401 C   0  0  0  0  0  0  0  0  0  0  0  0
   18.3073   17.7222   22.8115 H   0  0  0  0  0  0  0  0  0  0  0  0
   19.8907   17.5498   23.6054 H   0  0  0  0  0  0  0  0  0  0  0  0
   19.4354   19.6585   22.9162 C   0  0  0  0  0  0  0  0  0  0  0  0
   18.5910   20.1506   23.4155 H   0  0  0  0  0  0  0  0  0  0  0  0
   19.3501   19.6317   21.3587 C   0  0  0  0  0  0  0  0  0  0  0  0
   18.3257   19.6251   20.9668 H   0  0  0  0  0  0  0  0  0  0  0  0
   19.9184   20.4082   20.8345 H   0  0  0  0  0  0  0  0  0  0  0  0
   20.6537   20.1482   23.4336 O   0  0  0  0  0  0  0  0  0  0  0  0
   21.3664   19.6771   22.9547 H   0  0  0  0  0  0  0  0  0  0  0  0
  1  2  1  0  0  0  0
  1  3  1  0  0  0  0
  1  4  1  0  0  0  0
  4  5  1  0  0  0  0
  4  6  1  0  0  0  0
  4  7  1  0  0  0  0
  7  8  1  0  0  0  0
  1  9  1  0  0  0  0
  7  9  1  0  0  0  0
  9 10  1  0  0  0  0
  9 11  1  0  0  0  0
  7 12  1  0  0  0  0
 12 13  1  0  0  0  0
M  END
> <VConfSearch Rank>
385

> <Conf_Id>
44

> <Delta U+W>
0.823

> <U+W>
-2.308

> <U>
0.039

> <W>
-2.348

> <W(PB)>
-3.918

> <W(SA)>
1.571

> <Valence>
7.320

> <Coulomb>
-8.530

> <VdW>
1.249

> <VdW6>
-2.615

> <VdW12>
3.864

> <Bond>
0.056

> <Angle>
0.694

> <Pdih>
6.570

> <Idih>
0.000

> <Tether>
0.000

$$$$
VeraChem MOL file


 13 13  0  0  0  0  0  0  0  0999 V2000     
   19.1954   19.2136   23.4688 C   0  0  0  0  0  0  0  0  0  0  0  0
   18.9060   18.2755   23.9604 H   0  0  0  0  0  0  0  0  0  0  0  0
   19.0507   20.0390   24.1761 H   0  0  0  0  0  0  0  0  0  0  0  0
   18.5897   19.4183   22.0410 C   0  0  0  0  0  0  0  0  0  0  0  0
   17.5943   18.9931   21.8725 H   0  0  0  0  0  0  0  0  0  0  0  0
   18.5957   20.4554   21.6833 H   0  0  0  0  0  0  0  0  0  0  0  0
   19.7882   18.5562   21.5417 C   0  0  0  0  0  0  0  0  0  0  0  0
   19.6208   17.4737   21.6267 H   0  0  0  0  0  0  0  0  0  0  0  0
   20.5775   19.1700   22.7372 C   0  0  0  0  0  0  0  0  0  0  0  0
   21.3410   18.5259   23.1869 H   0  0  0  0  0  0  0  0  0  0  0  0
   21.0198   20.1535   22.5345 H   0  0  0  0  0  0  0  0  0  0  0  0
   20.2770   18.8879   20.2628 O   0  0  0  0  0  0  0  0  0  0  0  0
   21.1167   18.3959   20.1360 H   0  0  0  0  0  0  0  0  0  0  0  0
  1  2  1  0  0  0  0
  1  3  1  0  0  0  0
  1  4  1  0  0  0  0
  4  5  1  0  0  0  0
  4  6  1  0  0  0  0
  4  7  1  0  0  0  0
  7  8  1  0  0  0  0
  1  9  1  0  0  0  0
  7  9  1  0  0  0  0
  9 10  1  0  0  0  0
  9 11  1  0  0  0  0
  7 12  1  0  0  0  0
 12 13  1  0  0  0  0
M  END
> <VConfSearch Rank>
386

> <Conf_Id>
22

> <Delta U+W>
0.000

> <U+W>
-3.131

> <U>
-0.154

> <W>
-2.978

> <W(PB)>
-4.579

> <W(SA)>
1.601

> <Valence>
6.333

> <Coulomb>
-7.439

> <VdW>
0.952

> <VdW6>
-2.120

> <VdW12>
3.072

> <Bond>
0.065

> <Angle>
0.931

> <Pdih>
5.338

> <Idih>
0.000

> <Tether>
0.000

$$$$
VeraChem MOL file


 13 13  0  0  0  0  0  0  0  0999 V2000     
   20.0172   19.7454   21.2872 C   0  0  0  0  0  0  0  0  0  0  0  0
   19.6178   20.7625   21.3941 H   0  0  0  0  0  0  0  0  0  0  0  0
   20.5987   19.6929   20.3591 H   0  0  0  0  0  0  0  0  0  0  0  0
   18.9698   18.6043   21.5072 C   0  0  0  0  0  0  0  0  0  0  0  0
   19.2592   17.6307   21.0924 H   0  0  0  0  0  0  0  0  0  0  0  0
   17.9422   18.8273   21.2000 H   0  0  0  0  0  0  0  0  0  0  0  0
   19.2790   18.7793   23.0248 C   0  0  0  0  0  0  0  0  0  0  0  0
   18.7226   19.5978   23.5017 H   0  0  0  0  0  0  0  0  0  0  0  0
   20.7145   19.1782   22.5677 C   0  0  0  0  0  0  0  0  0  0  0  0
   21.3864   18.3298   22.3878 H   0  0  0  0  0  0  0  0  0  0  0  0
   21.2304   19.9082   23.2010 H   0  0  0  0  0  0  0  0  0  0  0  0
   19.1976   17.6032   23.7960 O   0  0  0  0  0  0  0  0  0  0  0  0
   18.2467   17.3747   23.8781 H   0  0  0  0  0  0  0  0  0  0  0  0
  1  2  1  0  0  0  0
  1  3  1  0  0  0  0
  1  4  1  0  0  0  0
  4  5  1  0  0  0  0
  4  6  1  0  0  0  0
  4  7  1  0  0  0  0
  7  8  1  0  0  0  0
  1  9  1  0  0  0  0
  7  9  1  0  0  0  0
  9 10  1  0  0  0  0
  9 11  1  0  0  0  0
  7 12  1  0  0  0  0
 12 13  1  0  0  0  0
M  END
> <VConfSearch Rank>
387

> <Conf_Id>
19

> <Delta U+W>
-0.011

> <U+W>
-3.142

> <U>
-0.154

> <W>
-2.989

> <W(PB)>
-4.588

> <W(SA)>
1.599

> <Valence>
6.334

> <Coulomb>
-7.439

> <VdW>
0.951

> <VdW6>
-2.120

> <VdW12>
3.072

> <Bond>
0.065

> <Angle>
0.930

> <Pdih>
5.339

> <Idih>
0.000

> <Tether>
0.000

$$$$
VeraChem MOL file


 13 13  0  0  0  0  0  0  0  0999 V2000     
   20.5750   18.5125   21.7005 C   0  0  0  0  0  0  0  0  0  0  0  0
   21.5790   18.0881   21.8176 H   0  0  0  0  0  0  0  0  0  0  0  0
   20.2419   18.3466   20.6676 H   0  0  0  0  0  0  0  0  0  0  0  0
   20.3818   19.9767   22.2180 C   0  0  0  0  0  0  0  0  0  0  0  0
   21.0162   20.2451   23.0714 H   0  0  0  0  0  0  0  0  0  0  0  0
   20.4564   20.7675   21.4634 H   0  0  0  0  0  0  0  0  0  0  0  0
   18.9333   19.5466   22.6083 C   0  0  0  0  0  0  0  0  0  0  0  0
   18.5515   20.0084   23.5280 H   0  0  0  0  0  0  0  0  0  0  0  0
   19.5277   18.1153   22.7933 C   0  0  0  0  0  0  0  0  0  0  0  0
   18.8619   17.2828   22.5405 H   0  0  0  0  0  0  0  0  0  0  0  0
   19.9555   17.9319   23.7865 H   0  0  0  0  0  0  0  0  0  0  0  0
   17.9778   19.6673   21.5737 O   0  0  0  0  0  0  0  0  0  0  0  0
   17.1636   19.2110   21.8752 H   0  0  0  0  0  0  0  0  0  0  0  0
  1  2  1  0  0  0  0
  1  3  1  0  0  0  0
  1  4  1  0  0  0  0
  4  5  1  0  0  0  0
  4  6  1  0  0  0  0
  4  7  1  0  0  0  0
  7  8  1  0  0  0  0
  1  9  1  0  0  0  0
  7  9  1  0  0  0  0
  9 10  1  0  0  0  0
  9 11  1  0  0  0  0
  7 12  1  0  0  0  0
 12 13  1  0  0  0  0
M  END
> <VConfSearch Rank>
388

> <Conf_Id>
20

> <Delta U+W>
1.030

> <U+W>
-2.101

> <U>
0.841

> <W>
-2.942

> <W(PB)>
-4.530

> <W(SA)>
1.587

> <Valence>
6.736

> <Coulomb>
-7.246

> <VdW>
1.352

> <VdW6>
-2.500

> <VdW12>
3.851

> <Bond>
0.063

> <Angle>
0.687

> <Pdih>
5.986

> <Idih>
0.000

> <Tether>
0.000

$$$$
VeraChem MOL file


 13 13  0  0  0  0  0  0  0  0999 V2000     
   18.7754   18.1618   22.4820 C   0  0  0  0  0  0  0  0  0  0  0  0
   17.9479   18.5503   23.0902 H   0  0  0  0  0  0  0  0  0  0  0  0
   18.5636   17.1159   22.2300 H   0  0  0  0  0  0  0  0  0  0  0  0
   20.2015   18.4556   23.0542 C   0  0  0  0  0  0  0  0  0  0  0  0
   20.2857   18.4881   24.1460 H   0  0  0  0  0  0  0  0  0  0  0  0
   20.9950   17.8093   22.6591 H   0  0  0  0  0  0  0  0  0  0  0  0
   20.0678   19.8367   22.3443 C   0  0  0  0  0  0  0  0  0  0  0  0
   19.5104   20.5831   22.9264 H   0  0  0  0  0  0  0  0  0  0  0  0
   19.2005   19.0830   21.2912 C   0  0  0  0  0  0  0  0  0  0  0  0
   19.7703   18.5770   20.5021 H   0  0  0  0  0  0  0  0  0  0  0  0
   18.4007   19.6697   20.8261 H   0  0  0  0  0  0  0  0  0  0  0  0
   21.2695   20.3847   21.8571 O   0  0  0  0  0  0  0  0  0  0  0  0
   21.7203   19.6777   21.3494 H   0  0  0  0  0  0  0  0  0  0  0  0
  1  2  1  0  0  0  0
  1  3  1  0  0  0  0
  1  4  1  0  0  0  0
  4  5  1  0  0  0  0
  4  6  1  0  0  0  0
  4  7  1  0  0  0  0
  7  8  1  0  0  0  0
  1  9  1  0  0  0  0
  7  9  1  0  0  0  0
  9 10  1  0  0  0  0
  9 11  1  0  0  0  0
  7 12  1  0  0  0  0
 12 13  1  0  0  0  0
M  END
> <VConfSearch Rank>
389

> <Conf_Id>
24

> <Delta U+W>
0.356

> <U+W>
-2.775

> <U>
-0.184

> <W>
-2.591

> <W(PB)>
-4.184

> <W(SA)>
1.593

> <Valence>
6.840

> <Coulomb>
-7.916

> <VdW>
0.893

> <VdW6>
-2.167

> <VdW12>
3.060

> <Bond>
0.059

> <Angle>
0.918

> <Pdih>
5.862

> <Idih>
0.000

> <Tether>
0.000

$$$$
VeraChem MOL file


 13 13  0  0  0  0  0  0  0  0999 V2000     
   20.6056   18.4688   22.6356 C   0  0  0  0  0  0  0  0  0  0  0  0
   21.3625   17.6884   22.4929 H   0  0  0  0  0  0  0  0  0  0  0  0
   20.8107   18.9812   23.5841 H   0  0  0  0  0  0  0  0  0  0  0  0
   19.1182   18.0239   22.4358 C   0  0  0  0  0  0  0  0  0  0  0  0
   18.9809   17.2145   21.7085 H   0  0  0  0  0  0  0  0  0  0  0  0
   18.5627   17.7720   23.3461 H   0  0  0  0  0  0  0  0  0  0  0  0
   18.8658   19.4501   21.8558 C   0  0  0  0  0  0  0  0  0  0  0  0
   18.1428   19.4907   21.0311 H   0  0  0  0  0  0  0  0  0  0  0  0
   20.3617   19.4169   21.4142 C   0  0  0  0  0  0  0  0  0  0  0  0
   20.5293   18.9490   20.4365 H   0  0  0  0  0  0  0  0  0  0  0  0
   20.8887   20.3775   21.4354 H   0  0  0  0  0  0  0  0  0  0  0  0
   18.5548   20.4338   22.8187 O   0  0  0  0  0  0  0  0  0  0  0  0
   19.2280   20.3511   23.5254 H   0  0  0  0  0  0  0  0  0  0  0  0
  1  2  1  0  0  0  0
  1  3  1  0  0  0  0
  1  4  1  0  0  0  0
  4  5  1  0  0  0  0
  4  6  1  0  0  0  0
  4  7  1  0  0  0  0
  7  8  1  0  0  0  0
  1  9  1  0  0  0  0
  7  9  1  0  0  0  0
  9 10  1  0  0  0  0
  9 11  1  0  0  0  0
  7 12  1  0  0  0  0
 12 13  1  0  0  0  0
M  END
> <VConfSearch Rank>
390

> <Conf_Id>
44

> <Delta U+W>
0.823

> <U+W>
-2.308

> <U>
0.039

> <W>
-2.348

> <W(PB)>
-3.918

> <W(SA)>
1.571

> <Valence>
7.320

> <Coulomb>
-8.530

> <VdW>
1.249

> <VdW6>
-2.615

> <VdW12>
3.864

> <Bond>
0.056

> <Angle>
0.694

> <Pdih>
6.570

> <Idih>
0.000

> <Tether>
0.000

$$$$
VeraChem MOL file


 13 13  0  0  0  0  0  0  0  0999 V2000     
   20.9857   19.0635   22.2014 C   0  0  0  0  0  0  0  0  0  0  0  0
   21.3831   19.5171   21.2838 H   0  0  0  0  0  0  0  0  0  0  0  0
   21.8264   18.7978   22.8533 H   0  0  0  0  0  0  0  0  0  0  0  0
   19.9166   17.9455   21.9688 C   0  0  0  0  0  0  0  0  0  0  0  0
   20.0388   17.3400   21.0641 H   0  0  0  0  0  0  0  0  0  0  0  0
   19.7585   17.2756   22.8231 H   0  0  0  0  0  0  0  0  0  0  0  0
   18.8921   19.1155   21.8677 C   0  0  0  0  0  0  0  0  0  0  0  0
   18.8478   19.5807   20.8734 H   0  0  0  0  0  0  0  0  0  0  0  0
   19.8199   19.8609   22.8740 C   0  0  0  0  0  0  0  0  0  0  0  0
   19.8589   20.9509   22.7710 H   0  0  0  0  0  0  0  0  0  0  0  0
   19.6428   19.6118   23.9278 H   0  0  0  0  0  0  0  0  0  0  0  0
   17.5978   18.8255   22.3423 O   0  0  0  0  0  0  0  0  0  0  0  0
   17.1043   19.6731   22.3774 H   0  0  0  0  0  0  0  0  0  0  0  0
  1  2  1  0  0  0  0
  1  3  1  0  0  0  0
  1  4  1  0  0  0  0
  4  5  1  0  0  0  0
  4  6  1  0  0  0  0
  4  7  1  0  0  0  0
  7  8  1  0  0  0  0
  1  9  1  0  0  0  0
  7  9  1  0  0  0  0
  9 10  1  0  0  0  0
  9 11  1  0  0  0  0
  7 12  1  0  0  0  0
 12 13  1  0  0  0  0
M  END
> <VConfSearch Rank>
391

> <Conf_Id>
22

> <Delta U+W>
0.000

> <U+W>
-3.131

> <U>
-0.154

> <W>
-2.978

> <W(PB)>
-4.579

> <W(SA)>
1.601

> <Valence>
6.333

> <Coulomb>
-7.439

> <VdW>
0.952

> <VdW6>
-2.120

> <VdW12>
3.072

> <Bond>
0.065

> <Angle>
0.931

> <Pdih>
5.338

> <Idih>
0.000

> <Tether>
0.000

$$$$
VeraChem MOL file


 13 13  0  0  0  0  0  0  0  0999 V2000     
   19.5047   18.8433   20.9348 C   0  0  0  0  0  0  0  0  0  0  0  0
   19.5099   17.8114   20.5596 H   0  0  0  0  0  0  0  0  0  0  0  0
   19.4463   19.5269   20.0795 H   0  0  0  0  0  0  0  0  0  0  0  0
   20.6118   19.1604   21.9936 C   0  0  0  0  0  0  0  0  0  0  0  0
   20.8269   20.2282   22.1258 H   0  0  0  0  0  0  0  0  0  0  0  0
   21.5586   18.6217   21.8774 H   0  0  0  0  0  0  0  0  0  0  0  0
   19.6152   18.5669   23.0346 C   0  0  0  0  0  0  0  0  0  0  0  0
   19.6417   17.4707   23.1025 H   0  0  0  0  0  0  0  0  0  0  0  0
   18.4942   19.1113   22.0986 C   0  0  0  0  0  0  0  0  0  0  0  0
   18.2440   20.1678   22.2561 H   0  0  0  0  0  0  0  0  0  0  0  0
   17.5667   18.5289   22.0776 H   0  0  0  0  0  0  0  0  0  0  0  0
   19.6649   19.1490   24.3165 O   0  0  0  0  0  0  0  0  0  0  0  0
   20.4971   18.8477   24.7404 H   0  0  0  0  0  0  0  0  0  0  0  0
  1  2  1  0  0  0  0
  1  3  1  0  0  0  0
  1  4  1  0  0  0  0
  4  5  1  0  0  0  0
  4  6  1  0  0  0  0
  4  7  1  0  0  0  0
  7  8  1  0  0  0  0
  1  9  1  0  0  0  0
  7  9  1  0  0  0  0
  9 10  1  0  0  0  0
  9 11  1  0  0  0  0
  7 12  1  0  0  0  0
 12 13  1  0  0  0  0
M  END
> <VConfSearch Rank>
392

> <Conf_Id>
19

> <Delta U+W>
-0.011

> <U+W>
-3.142

> <U>
-0.154

> <W>
-2.989

> <W(PB)>
-4.588

> <W(SA)>
1.599

> <Valence>
6.334

> <Coulomb>
-7.439

> <VdW>
0.951

> <VdW6>
-2.120

> <VdW12>
3.072

> <Bond>
0.065

> <Angle>
0.930

> <Pdih>
5.339

> <Idih>
0.000

> <Tether>
0.000

$$$$
VeraChem MOL file


 13 13  0  0  0  0  0  0  0  0999 V2000     
   20.3756   18.0775   22.3899 C   0  0  0  0  0  0  0  0  0  0  0  0
   20.7587   17.1783   21.8932 H   0  0  0  0  0  0  0  0  0  0  0  0
   20.8952   18.1968   23.3496 H   0  0  0  0  0  0  0  0  0  0  0  0
   18.8183   18.2071   22.4738 C   0  0  0  0  0  0  0  0  0  0  0  0
   18.2776   17.7451   21.6390 H   0  0  0  0  0  0  0  0  0  0  0  0
   18.3583   17.8806   23.4130 H   0  0  0  0  0  0  0  0  0  0  0  0
   19.0333   19.7455   22.3231 C   0  0  0  0  0  0  0  0  0  0  0  0
   18.2577   20.2606   21.7418 H   0  0  0  0  0  0  0  0  0  0  0  0
   20.3169   19.3745   21.5163 C   0  0  0  0  0  0  0  0  0  0  0  0
   21.1639   20.0618   21.6194 H   0  0  0  0  0  0  0  0  0  0  0  0
   20.1399   19.1951   20.4489 H   0  0  0  0  0  0  0  0  0  0  0  0
   19.2678   20.4348   23.5347 O   0  0  0  0  0  0  0  0  0  0  0  0
   19.5585   21.3421   23.3014 H   0  0  0  0  0  0  0  0  0  0  0  0
  1  2  1  0  0  0  0
  1  3  1  0  0  0  0
  1  4  1  0  0  0  0
  4  5  1  0  0  0  0
  4  6  1  0  0  0  0
  4  7  1  0  0  0  0
  7  8  1  0  0  0  0
  1  9  1  0  0  0  0
  7  9  1  0  0  0  0
  9 10  1  0  0  0  0
  9 11  1  0  0  0  0
  7 12  1  0  0  0  0
 12 13  1  0  0  0  0
M  END
> <VConfSearch Rank>
393

> <Conf_Id>
20

> <Delta U+W>
1.030

> <U+W>
-2.101

> <U>
0.841

> <W>
-2.942

> <W(PB)>
-4.530

> <W(SA)>
1.587

> <Valence>
6.736

> <Coulomb>
-7.246

> <VdW>
1.352

> <VdW6>
-2.500

> <VdW12>
3.851

> <Bond>
0.063

> <Angle>
0.687

> <Pdih>
5.986

> <Idih>
0.000

> <Tether>
0.000

$$$$
VeraChem MOL file


 13 13  0  0  0  0  0  0  0  0999 V2000     
   20.4026   17.8763   22.4418 C   0  0  0  0  0  0  0  0  0  0  0  0
   20.3314   17.0631   21.7074 H   0  0  0  0  0  0  0  0  0  0  0  0
   21.0633   17.5556   23.2561 H   0  0  0  0  0  0  0  0  0  0  0  0
   19.0299   18.4909   22.8722 C   0  0  0  0  0  0  0  0  0  0  0  0
   18.1779   17.8023   22.8907 H   0  0  0  0  0  0  0  0  0  0  0  0
   19.0538   19.0467   23.8176 H   0  0  0  0  0  0  0  0  0  0  0  0
   19.1615   19.3703   21.5921 C   0  0  0  0  0  0  0  0  0  0  0  0
   18.8263   18.8702   20.6733 H   0  0  0  0  0  0  0  0  0  0  0  0
   20.6994   19.2854   21.8305 C   0  0  0  0  0  0  0  0  0  0  0  0
   21.0965   20.0188   22.5431 H   0  0  0  0  0  0  0  0  0  0  0  0
   21.3220   19.2985   20.9291 H   0  0  0  0  0  0  0  0  0  0  0  0
   18.6057   20.6603   21.6853 O   0  0  0  0  0  0  0  0  0  0  0  0
   18.9381   21.0547   22.5188 H   0  0  0  0  0  0  0  0  0  0  0  0
  1  2  1  0  0  0  0
  1  3  1  0  0  0  0
  1  4  1  0  0  0  0
  4  5  1  0  0  0  0
  4  6  1  0  0  0  0
  4  7  1  0  0  0  0
  7  8  1  0  0  0  0
  1  9  1  0  0  0  0
  7  9  1  0  0  0  0
  9 10  1  0  0  0  0
  9 11  1  0  0  0  0
  7 12  1  0  0  0  0
 12 13  1  0  0  0  0
M  END
> <VConfSearch Rank>
394

> <Conf_Id>
24

> <Delta U+W>
0.356

> <U+W>
-2.775

> <U>
-0.184

> <W>
-2.591

> <W(PB)>
-4.184

> <W(SA)>
1.593

> <Valence>
6.840

> <Coulomb>
-7.916

> <VdW>
0.893

> <VdW6>
-2.167

> <VdW12>
3.060

> <Bond>
0.059

> <Angle>
0.918

> <Pdih>
5.862

> <Idih>
0.000

> <Tether>
0.000

$$$$
VeraChem MOL file


 13 13  0  0  0  0  0  0  0  0999 V2000     
   20.1335   18.2886   21.4301 C   0  0  0  0  0  0  0  0  0  0  0  0
   20.5146   17.2832   21.2146 H   0  0  0  0  0  0  0  0  0  0  0  0
   20.2053   18.8900   20.5150 H   0  0  0  0  0  0  0  0  0  0  0  0
   20.7039   18.9753   22.7159 C   0  0  0  0  0  0  0  0  0  0  0  0
   20.9784   18.2792   23.5178 H   0  0  0  0  0  0  0  0  0  0  0  0
   21.5335   19.6745   22.5627 H   0  0  0  0  0  0  0  0  0  0  0  0
   19.2929   19.6186   22.8870 C   0  0  0  0  0  0  0  0  0  0  0  0
   18.9595   19.7281   23.9269 H   0  0  0  0  0  0  0  0  0  0  0  0
   18.7472   18.3541   22.1540 C   0  0  0  0  0  0  0  0  0  0  0  0
   18.5420   17.5057   22.8181 H   0  0  0  0  0  0  0  0  0  0  0  0
   17.8737   18.5126   21.5116 H   0  0  0  0  0  0  0  0  0  0  0  0
   19.1076   20.8321   22.1907 O   0  0  0  0  0  0  0  0  0  0  0  0
   19.4199   20.6760   21.2757 H   0  0  0  0  0  0  0  0  0  0  0  0
  1  2  1  0  0  0  0
  1  3  1  0  0  0  0
  1  4  1  0  0  0  0
  4  5  1  0  0  0  0
  4  6  1  0  0  0  0
  4  7  1  0  0  0  0
  7  8  1  0  0  0  0
  1  9  1  0  0  0  0
  7  9  1  0  0  0  0
  9 10  1  0  0  0  0
  9 11  1  0  0  0  0
  7 12  1  0  0  0  0
 12 13  1  0  0  0  0
M  END
> <VConfSearch Rank>
395

> <Conf_Id>
44

> <Delta U+W>
0.823

> <U+W>
-2.308

> <U>
0.039

> <W>
-2.348

> <W(PB)>
-3.918

> <W(SA)>
1.571

> <Valence>
7.320

> <Coulomb>
-8.530

> <VdW>
1.249

> <VdW6>
-2.615

> <VdW12>
3.864

> <Bond>
0.056

> <Angle>
0.694

> <Pdih>
6.570

> <Idih>
0.000

> <Tether>
0.000

$$$$
VeraChem MOL file


 13 13  0  0  0  0  0  0  0  0999 V2000     
   20.4405   18.5985   23.2208 C   0  0  0  0  0  0  0  0  0  0  0  0
   19.8962   18.0306   23.9868 H   0  0  0  0  0  0  0  0  0  0  0  0
   21.5085   18.5870   23.4689 H   0  0  0  0  0  0  0  0  0  0  0  0
   19.8281   19.9984   22.8854 C   0  0  0  0  0  0  0  0  0  0  0  0
   19.3362   20.5218   23.7125 H   0  0  0  0  0  0  0  0  0  0  0  0
   20.5152   20.6933   22.3868 H   0  0  0  0  0  0  0  0  0  0  0  0
   18.8848   19.2192   21.9200 C   0  0  0  0  0  0  0  0  0  0  0  0
   18.0074   18.7816   22.4157 H   0  0  0  0  0  0  0  0  0  0  0  0
   20.0738   18.2266   21.7462 C   0  0  0  0  0  0  0  0  0  0  0  0
   19.8009   17.1809   21.5661 H   0  0  0  0  0  0  0  0  0  0  0  0
   20.8166   18.5315   20.9985 H   0  0  0  0  0  0  0  0  0  0  0  0
   18.5060   19.9159   20.7557 O   0  0  0  0  0  0  0  0  0  0  0  0
   18.0585   19.2726   20.1647 H   0  0  0  0  0  0  0  0  0  0  0  0
  1  2  1  0  0  0  0
  1  3  1  0  0  0  0
  1  4  1  0  0  0  0
  4  5  1  0  0  0  0
  4  6  1  0  0  0  0
  4  7  1  0  0  0  0
  7  8  1  0  0  0  0
  1  9  1  0  0  0  0
  7  9  1  0  0  0  0
  9 10  1  0  0  0  0
  9 11  1  0  0  0  0
  7 12  1  0  0  0  0
 12 13  1  0  0  0  0
M  END
> <VConfSearch Rank>
396

> <Conf_Id>
22

> <Delta U+W>
0.000

> <U+W>
-3.131

> <U>
-0.154

> <W>
-2.978

> <W(PB)>
-4.579

> <W(SA)>
1.601

> <Valence>
6.333

> <Coulomb>
-7.439

> <VdW>
0.952

> <VdW6>
-2.120

> <VdW12>
3.072

> <Bond>
0.065

> <Angle>
0.931

> <Pdih>
5.338

> <Idih>
0.000

> <Tether>
0.000

$$$$
VeraChem MOL file


 13 13  0  0  0  0  0  0  0  0999 V2000     
   18.4362   19.2361   21.7756 C   0  0  0  0  0  0  0  0  0  0  0  0
   18.4025   20.2165   21.2825 H   0  0  0  0  0  0  0  0  0  0  0  0
   17.4258   18.8101   21.7779 H   0  0  0  0  0  0  0  0  0  0  0  0
   19.1926   19.2176   23.1448 C   0  0  0  0  0  0  0  0  0  0  0  0
   18.9579   18.3590   23.7863 H   0  0  0  0  0  0  0  0  0  0  0  0
   19.1289   20.1330   23.7434 H   0  0  0  0  0  0  0  0  0  0  0  0
   20.4854   19.0529   22.2899 C   0  0  0  0  0  0  0  0  0  0  0  0
   20.8864   19.9990   21.9012 H   0  0  0  0  0  0  0  0  0  0  0  0
   19.5788   18.2914   21.2765 C   0  0  0  0  0  0  0  0  0  0  0  0
   19.4312   17.2292   21.5079 H   0  0  0  0  0  0  0  0  0  0  0  0
   19.8591   18.3867   20.2218 H   0  0  0  0  0  0  0  0  0  0  0  0
   21.5056   18.2828   22.8821 O   0  0  0  0  0  0  0  0  0  0  0  0
   21.8916   18.8200   23.6071 H   0  0  0  0  0  0  0  0  0  0  0  0
  1  2  1  0  0  0  0
  1  3  1  0  0  0  0
  1  4  1  0  0  0  0
  4  5  1  0  0  0  0
  4  6  1  0  0  0  0
  4  7  1  0  0  0  0
  7  8  1  0  0  0  0
  1  9  1  0  0  0  0
  7  9  1  0  0  0  0
  9 10  1  0  0  0  0
  9 11  1  0  0  0  0
  7 12  1  0  0  0  0
 12 13  1  0  0  0  0
M  END
> <VConfSearch Rank>
397

> <Conf_Id>
19

> <Delta U+W>
-0.011

> <U+W>
-3.142

> <U>
-0.154

> <W>
-2.989

> <W(PB)>
-4.588

> <W(SA)>
1.599

> <Valence>
6.334

> <Coulomb>
-7.439

> <VdW>
0.951

> <VdW6>
-2.120

> <VdW12>
3.072

> <Bond>
0.065

> <Angle>
0.930

> <Pdih>
5.339

> <Idih>
0.000

> <Tether>
0.000

$$$$
VeraChem MOL file


 13 13  0  0  0  0  0  0  0  0999 V2000     
   20.7277   19.3202   21.7834 C   0  0  0  0  0  0  0  0  0  0  0  0
   21.6499   18.9029   21.3622 H   0  0  0  0  0  0  0  0  0  0  0  0
   20.7556   20.4124   21.6761 H   0  0  0  0  0  0  0  0  0  0  0  0
   20.3344   18.8177   23.2123 C   0  0  0  0  0  0  0  0  0  0  0  0
   20.6470   17.7904   23.4354 H   0  0  0  0  0  0  0  0  0  0  0  0
   20.6292   19.4629   24.0473 H   0  0  0  0  0  0  0  0  0  0  0  0
   18.8508   18.9477   22.7461 C   0  0  0  0  0  0  0  0  0  0  0  0
   18.1763   18.1810   23.1487 H   0  0  0  0  0  0  0  0  0  0  0  0
   19.3925   18.6542   21.3120 C   0  0  0  0  0  0  0  0  0  0  0  0
   18.8699   19.1553   20.4897 H   0  0  0  0  0  0  0  0  0  0  0  0
   19.4770   17.5869   21.0738 H   0  0  0  0  0  0  0  0  0  0  0  0
   18.2831   20.2306   22.9191 O   0  0  0  0  0  0  0  0  0  0  0  0
   17.4283   20.2376   22.4380 H   0  0  0  0  0  0  0  0  0  0  0  0
  1  2  1  0  0  0  0
  1  3  1  0  0  0  0
  1  4  1  0  0  0  0
  4  5  1  0  0  0  0
  4  6  1  0  0  0  0
  4  7  1  0  0  0  0
  7  8  1  0  0  0  0
  1  9  1  0  0  0  0
  7  9  1  0  0  0  0
  9 10  1  0  0  0  0
  9 11  1  0  0  0  0
  7 12  1  0  0  0  0
 12 13  1  0  0  0  0
M  END
> <VConfSearch Rank>
398

> <Conf_Id>
20

> <Delta U+W>
1.030

> <U+W>
-2.101

> <U>
0.841

> <W>
-2.942

> <W(PB)>
-4.530

> <W(SA)>
1.587

> <Valence>
6.736

> <Coulomb>
-7.246

> <VdW>
1.352

> <VdW6>
-2.500

> <VdW12>
3.851

> <Bond>
0.063

> <Angle>
0.687

> <Pdih>
5.986

> <Idih>
0.000

> <Tether>
0.000

$$$$
VeraChem MOL file


 13 13  0  0  0  0  0  0  0  0999 V2000     
   19.4127   18.1723   23.1719 C   0  0  0  0  0  0  0  0  0  0  0  0
   20.0909   17.3464   23.4241 H   0  0  0  0  0  0  0  0  0  0  0  0
   18.5486   18.1338   23.8460 H   0  0  0  0  0  0  0  0  0  0  0  0
   19.0895   18.3109   21.6476 C   0  0  0  0  0  0  0  0  0  0  0  0
   19.0619   17.3780   21.0738 H   0  0  0  0  0  0  0  0  0  0  0  0
   18.1852   18.8895   21.4224 H   0  0  0  0  0  0  0  0  0  0  0  0
   20.4206   19.1175   21.5641 C   0  0  0  0  0  0  0  0  0  0  0  0
   21.3165   18.4880   21.4761 H   0  0  0  0  0  0  0  0  0  0  0  0
   20.1068   19.5664   23.0233 C   0  0  0  0  0  0  0  0  0  0  0  0
   19.4298   20.4256   23.1056 H   0  0  0  0  0  0  0  0  0  0  0  0
   20.9776   19.7423   23.6645 H   0  0  0  0  0  0  0  0  0  0  0  0
   20.4433   20.1488   20.6062 O   0  0  0  0  0  0  0  0  0  0  0  0
   19.6251   20.6735   20.7323 H   0  0  0  0  0  0  0  0  0  0  0  0
  1  2  1  0  0  0  0
  1  3  1  0  0  0  0
  1  4  1  0  0  0  0
  4  5  1  0  0  0  0
  4  6  1  0  0  0  0
  4  7  1  0  0  0  0
  7  8  1  0  0  0  0
  1  9  1  0  0  0  0
  7  9  1  0  0  0  0
  9 10  1  0  0  0  0
  9 11  1  0  0  0  0
  7 12  1  0  0  0  0
 12 13  1  0  0  0  0
M  END
> <VConfSearch Rank>
399

> <Conf_Id>
24

> <Delta U+W>
0.356

> <U+W>
-2.775

> <U>
-0.184

> <W>
-2.591

> <W(PB)>
-4.184

> <W(SA)>
1.593

> <Valence>
6.840

> <Coulomb>
-7.916

> <VdW>
0.893

> <VdW6>
-2.167

> <VdW12>
3.060

> <Bond>
0.059

> <Angle>
0.918

> <Pdih>
5.862

> <Idih>
0.000

> <Tether>
0.000

$$$$
VeraChem MOL file


 13 13  0  0  0  0  0  0  0  0999 V2000     
   18.5951   18.9782   21.9641 C   0  0  0  0  0  0  0  0  0  0  0  0
   17.7350   18.3846   21.6319 H   0  0  0  0  0  0  0  0  0  0  0  0
   18.2606   20.0101   22.1302 H   0  0  0  0  0  0  0  0  0  0  0  0
   19.8960   18.8379   21.1050 C   0  0  0  0  0  0  0  0  0  0  0  0
   20.0218   17.8574   20.6297 H   0  0  0  0  0  0  0  0  0  0  0  0
   20.0628   19.6146   20.3502 H   0  0  0  0  0  0  0  0  0  0  0  0
   20.6857   19.0039   22.4402 C   0  0  0  0  0  0  0  0  0  0  0  0
   21.6059   18.4096   22.5081 H   0  0  0  0  0  0  0  0  0  0  0  0
   19.4408   18.3645   23.1296 C   0  0  0  0  0  0  0  0  0  0  0  0
   19.4550   17.2680   23.1507 H   0  0  0  0  0  0  0  0  0  0  0  0
   19.2113   18.7291   24.1371 H   0  0  0  0  0  0  0  0  0  0  0  0
   20.9461   20.3404   22.8112 O   0  0  0  0  0  0  0  0  0  0  0  0
   20.0957   20.8197   22.7321 H   0  0  0  0  0  0  0  0  0  0  0  0
  1  2  1  0  0  0  0
  1  3  1  0  0  0  0
  1  4  1  0  0  0  0
  4  5  1  0  0  0  0
  4  6  1  0  0  0  0
  4  7  1  0  0  0  0
  7  8  1  0  0  0  0
  1  9  1  0  0  0  0
  7  9  1  0  0  0  0
  9 10  1  0  0  0  0
  9 11  1  0  0  0  0
  7 12  1  0  0  0  0
 12 13  1  0  0  0  0
M  END
> <VConfSearch Rank>
400

> <Conf_Id>
44

> <Delta U+W>
0.823

> <U+W>
-2.308

> <U>
0.039

> <W>
-2.348

> <W(PB)>
-3.918

> <W(SA)>
1.571

> <Valence>
7.320

> <Coulomb>
-8.530

> <VdW>
1.249

> <VdW6>
-2.615

> <VdW12>
3.864

> <Bond>
0.056

> <Angle>
0.694

> <Pdih>
6.570

> <Idih>
0.000

> <Tether>
0.000

$$$$
VeraChem MOL file


 13 13  0  0  0  0  0  0  0  0999 V2000     
   18.4644   19.3094   22.7213 C   0  0  0  0  0  0  0  0  0  0  0  0
   18.4447   20.1671   23.4065 H   0  0  0  0  0  0  0  0  0  0  0  0
   17.4390   18.9449   22.5866 H   0  0  0  0  0  0  0  0  0  0  0  0
   19.5398   18.2252   23.0607 C   0  0  0  0  0  0  0  0  0  0  0  0
   19.7678   18.0860   24.1230 H   0  0  0  0  0  0  0  0  0  0  0  0
   19.3616   17.2427   22.6062 H   0  0  0  0  0  0  0  0  0  0  0  0
   20.5287   19.1329   22.2688 C   0  0  0  0  0  0  0  0  0  0  0  0
   20.9469   19.9566   22.8635 H   0  0  0  0  0  0  0  0  0  0  0  0
   19.2905   19.5361   21.4123 C   0  0  0  0  0  0  0  0  0  0  0  0
   19.2957   20.5575   21.0161 H   0  0  0  0  0  0  0  0  0  0  0  0
   19.0553   18.8418   20.5961 H   0  0  0  0  0  0  0  0  0  0  0  0
   21.5466   18.4512   21.5732 O   0  0  0  0  0  0  0  0  0  0  0  0
   21.9918   19.1064   20.9938 H   0  0  0  0  0  0  0  0  0  0  0  0
  1  2  1  0  0  0  0
  1  3  1  0  0  0  0
  1  4  1  0  0  0  0
  4  5  1  0  0  0  0
  4  6  1  0  0  0  0
  4  7  1  0  0  0  0
  7  8  1  0  0  0  0
  1  9  1  0  0  0  0
  7  9  1  0  0  0  0
  9 10  1  0  0  0  0
  9 11  1  0  0  0  0
  7 12  1  0  0  0  0
 12 13  1  0  0  0  0
M  END
> <VConfSearch Rank>
401

> <Conf_Id>
22

> <Delta U+W>
0.000

> <U+W>
-3.131

> <U>
-0.154

> <W>
-2.978

> <W(PB)>
-4.579

> <W(SA)>
1.601

> <Valence>
6.333

> <Coulomb>
-7.439

> <VdW>
0.952

> <VdW6>
-2.120

> <VdW12>
3.072

> <Bond>
0.065

> <Angle>
0.931

> <Pdih>
5.338

> <Idih>
0.000

> <Tether>
0.000

$$$$
VeraChem MOL file


 13 13  0  0  0  0  0  0  0  0999 V2000     
   18.5737   18.4781   22.8989 C   0  0  0  0  0  0  0  0  0  0  0  0
   17.6847   18.3622   22.2650 H   0  0  0  0  0  0  0  0  0  0  0  0
   18.3026   18.2284   23.9316 H   0  0  0  0  0  0  0  0  0  0  0  0
   19.3504   19.8211   22.6980 C   0  0  0  0  0  0  0  0  0  0  0  0
   20.0199   20.0911   23.5243 H   0  0  0  0  0  0  0  0  0  0  0  0
   18.7434   20.6947   22.4360 H   0  0  0  0  0  0  0  0  0  0  0  0
   20.0498   19.0975   21.5079 C   0  0  0  0  0  0  0  0  0  0  0  0
   19.4694   19.1102   20.5752 H   0  0  0  0  0  0  0  0  0  0  0  0
   19.8669   17.7949   22.3438 C   0  0  0  0  0  0  0  0  0  0  0  0
   20.6514   17.6203   23.0906 H   0  0  0  0  0  0  0  0  0  0  0  0
   19.7187   16.8756   21.7669 H   0  0  0  0  0  0  0  0  0  0  0  0
   21.3852   19.4788   21.2715 O   0  0  0  0  0  0  0  0  0  0  0  0
   21.3660   20.3816   20.8871 H   0  0  0  0  0  0  0  0  0  0  0  0
  1  2  1  0  0  0  0
  1  3  1  0  0  0  0
  1  4  1  0  0  0  0
  4  5  1  0  0  0  0
  4  6  1  0  0  0  0
  4  7  1  0  0  0  0
  7  8  1  0  0  0  0
  1  9  1  0  0  0  0
  7  9  1  0  0  0  0
  9 10  1  0  0  0  0
  9 11  1  0  0  0  0
  7 12  1  0  0  0  0
 12 13  1  0  0  0  0
M  END
> <VConfSearch Rank>
402

> <Conf_Id>
19

> <Delta U+W>
-0.011

> <U+W>
-3.142

> <U>
-0.154

> <W>
-2.989

> <W(PB)>
-4.588

> <W(SA)>
1.599

> <Valence>
6.334

> <Coulomb>
-7.439

> <VdW>
0.951

> <VdW6>
-2.120

> <VdW12>
3.072

> <Bond>
0.065

> <Angle>
0.930

> <Pdih>
5.339

> <Idih>
0.000

> <Tether>
0.000

$$$$
VeraChem MOL file


 13 13  0  0  0  0  0  0  0  0999 V2000     
   18.9821   18.4846   21.4024 C   0  0  0  0  0  0  0  0  0  0  0  0
   18.3559   17.6161   21.1671 H   0  0  0  0  0  0  0  0  0  0  0  0
   19.0017   19.1502   20.5296 H   0  0  0  0  0  0  0  0  0  0  0  0
   20.3887   18.1739   22.0140 C   0  0  0  0  0  0  0  0  0  0  0  0
   20.4288   17.2627   22.6230 H   0  0  0  0  0  0  0  0  0  0  0  0
   21.2277   18.1618   21.3094 H   0  0  0  0  0  0  0  0  0  0  0  0
   20.2150   19.4872   22.8389 C   0  0  0  0  0  0  0  0  0  0  0  0
   20.6384   19.4508   23.8509 H   0  0  0  0  0  0  0  0  0  0  0  0
   18.6825   19.2018   22.7606 C   0  0  0  0  0  0  0  0  0  0  0  0
   18.0326   20.0821   22.7058 H   0  0  0  0  0  0  0  0  0  0  0  0
   18.3084   18.5395   23.5507 H   0  0  0  0  0  0  0  0  0  0  0  0
   20.6378   20.6640   22.1796 O   0  0  0  0  0  0  0  0  0  0  0  0
   20.3222   21.4249   22.7122 H   0  0  0  0  0  0  0  0  0  0  0  0
  1  2  1  0  0  0  0
  1  3  1  0  0  0  0
  1  4  1  0  0  0  0
  4  5  1  0  0  0  0
  4  6  1  0  0  0  0
  4  7  1  0  0  0  0
  7  8  1  0  0  0  0
  1  9  1  0  0  0  0
  7  9  1  0  0  0  0
  9 10  1  0  0  0  0
  9 11  1  0  0  0  0
  7 12  1  0  0  0  0
 12 13  1  0  0  0  0
M  END
> <VConfSearch Rank>
403

> <Conf_Id>
20

> <Delta U+W>
1.030

> <U+W>
-2.101

> <U>
0.841

> <W>
-2.942

> <W(PB)>
-4.530

> <W(SA)>
1.587

> <Valence>
6.736

> <Coulomb>
-7.246

> <VdW>
1.352

> <VdW6>
-2.500

> <VdW12>
3.851

> <Bond>
0.063

> <Angle>
0.687

> <Pdih>
5.986

> <Idih>
0.000

> <Tether>
0.000

$$$$
VeraChem MOL file


 13 13  0  0  0  0  0  0  0  0999 V2000     
   20.8837   18.4353   21.9260 C   0  0  0  0  0  0  0  0  0  0  0  0
   21.7398   18.6852   22.5666 H   0  0  0  0  0  0  0  0  0  0  0  0
   21.2242   17.7543   21.1369 H   0  0  0  0  0  0  0  0  0  0  0  0
   20.0382   19.6645   21.4554 C   0  0  0  0  0  0  0  0  0  0  0  0
   20.5897   20.5986   21.3015 H   0  0  0  0  0  0  0  0  0  0  0  0
   19.4100   19.4778   20.5757 H   0  0  0  0  0  0  0  0  0  0  0  0
   19.3053   19.5289   22.8241 C   0  0  0  0  0  0  0  0  0  0  0  0
   19.8305   20.0125   23.6590 H   0  0  0  0  0  0  0  0  0  0  0  0
   19.5937   18.0025   22.6979 C   0  0  0  0  0  0  0  0  0  0  0  0
   18.8660   17.4443   22.0959 H   0  0  0  0  0  0  0  0  0  0  0  0
   19.7525   17.4687   23.6413 H   0  0  0  0  0  0  0  0  0  0  0  0
   17.9444   19.8894   22.8194 O   0  0  0  0  0  0  0  0  0  0  0  0
   17.5305   19.4310   22.0583 H   0  0  0  0  0  0  0  0  0  0  0  0
  1  2  1  0  0  0  0
  1  3  1  0  0  0  0
  1  4  1  0  0  0  0
  4  5  1  0  0  0  0
  4  6  1  0  0  0  0
  4  7  1  0  0  0  0
  7  8  1  0  0  0  0
  1  9  1  0  0  0  0
  7  9  1  0  0  0  0
  9 10  1  0  0  0  0
  9 11  1  0  0  0  0
  7 12  1  0  0  0  0
 12 13  1  0  0  0  0
M  END
> <VConfSearch Rank>
404

> <Conf_Id>
24

> <Delta U+W>
0.356

> <U+W>
-2.775

> <U>
-0.184

> <W>
-2.591

> <W(PB)>
-4.184

> <W(SA)>
1.593

> <Valence>
6.840

> <Coulomb>
-7.916

> <VdW>
0.893

> <VdW6>
-2.167

> <VdW12>
3.060

> <Bond>
0.059

> <Angle>
0.918

> <Pdih>
5.862

> <Idih>
0.000

> <Tether>
0.000

$$$$
VeraChem MOL file


 13 13  0  0  0  0  0  0  0  0999 V2000     
   18.8675   18.4319   22.7514 C   0  0  0  0  0  0  0  0  0  0  0  0
   18.6009   17.5653   23.3682 H   0  0  0  0  0  0  0  0  0  0  0  0
   17.9632   19.0313   22.5867 H   0  0  0  0  0  0  0  0  0  0  0  0
   19.6974   18.1235   21.4606 C   0  0  0  0  0  0  0  0  0  0  0  0
   20.3564   17.2506   21.5430 H   0  0  0  0  0  0  0  0  0  0  0  0
   19.1280   18.0430   20.5278 H   0  0  0  0  0  0  0  0  0  0  0  0
   20.4141   19.4873   21.7063 C   0  0  0  0  0  0  0  0  0  0  0  0
   21.4787   19.5028   21.4404 H   0  0  0  0  0  0  0  0  0  0  0  0
   20.1204   19.2452   23.2193 C   0  0  0  0  0  0  0  0  0  0  0  0
   20.8831   18.6473   23.7330 H   0  0  0  0  0  0  0  0  0  0  0  0
   19.9192   20.1410   23.8174 H   0  0  0  0  0  0  0  0  0  0  0  0
   19.7613   20.6075   21.1489 O   0  0  0  0  0  0  0  0  0  0  0  0
   18.8216   20.5414   21.4171 H   0  0  0  0  0  0  0  0  0  0  0  0
  1  2  1  0  0  0  0
  1  3  1  0  0  0  0
  1  4  1  0  0  0  0
  4  5  1  0  0  0  0
  4  6  1  0  0  0  0
  4  7  1  0  0  0  0
  7  8  1  0  0  0  0
  1  9  1  0  0  0  0
  7  9  1  0  0  0  0
  9 10  1  0  0  0  0
  9 11  1  0  0  0  0
  7 12  1  0  0  0  0
 12 13  1  0  0  0  0
M  END
> <VConfSearch Rank>
405

> <Conf_Id>
44

> <Delta U+W>
0.823

> <U+W>
-2.308

> <U>
0.039

> <W>
-2.348

> <W(PB)>
-3.918

> <W(SA)>
1.571

> <Valence>
7.320

> <Coulomb>
-8.530

> <VdW>
1.249

> <VdW6>
-2.615

> <VdW12>
3.864

> <Bond>
0.056

> <Angle>
0.694

> <Pdih>
6.570

> <Idih>
0.000

> <Tether>
0.000

$$$$
VeraChem MOL file


 13 13  0  0  0  0  0  0  0  0999 V2000     
   20.4386   17.9747   22.1773 C   0  0  0  0  0  0  0  0  0  0  0  0
   21.1674   18.0160   21.3572 H   0  0  0  0  0  0  0  0  0  0  0  0
   20.6034   17.0520   22.7464 H   0  0  0  0  0  0  0  0  0  0  0  0
   18.9609   18.2667   21.7550 C   0  0  0  0  0  0  0  0  0  0  0  0
   18.6737   17.9473   20.7473 H   0  0  0  0  0  0  0  0  0  0  0  0
   18.2019   17.9169   22.4657 H   0  0  0  0  0  0  0  0  0  0  0  0
   19.3428   19.7700   21.9063 C   0  0  0  0  0  0  0  0  0  0  0  0
   19.8420   20.1911   21.0228 H   0  0  0  0  0  0  0  0  0  0  0  0
   20.3238   19.2891   23.0179 C   0  0  0  0  0  0  0  0  0  0  0  0
   21.2442   19.8728   23.1282 H   0  0  0  0  0  0  0  0  0  0  0  0
   19.8654   19.1621   24.0065 H   0  0  0  0  0  0  0  0  0  0  0  0
   18.3035   20.6144   22.3436 O   0  0  0  0  0  0  0  0  0  0  0  0
   18.7052   21.4848   22.5539 H   0  0  0  0  0  0  0  0  0  0  0  0
  1  2  1  0  0  0  0
  1  3  1  0  0  0  0
  1  4  1  0  0  0  0
  4  5  1  0  0  0  0
  4  6  1  0  0  0  0
  4  7  1  0  0  0  0
  7  8  1  0  0  0  0
  1  9  1  0  0  0  0
  7  9  1  0  0  0  0
  9 10  1  0  0  0  0
  9 11  1  0  0  0  0
  7 12  1  0  0  0  0
 12 13  1  0  0  0  0
M  END
> <VConfSearch Rank>
406

> <Conf_Id>
22

> <Delta U+W>
0.000

> <U+W>
-3.131

> <U>
-0.154

> <W>
-2.978

> <W(PB)>
-4.579

> <W(SA)>
1.601

> <Valence>
6.333

> <Coulomb>
-7.439

> <VdW>
0.952

> <VdW6>
-2.120

> <VdW12>
3.072

> <Bond>
0.065

> <Angle>
0.931

> <Pdih>
5.338

> <Idih>
0.000

> <Tether>
0.000

$$$$
VeraChem MOL file


 13 13  0  0  0  0  0  0  0  0999 V2000     
   20.5078   19.6101   21.5379 C   0  0  0  0  0  0  0  0  0  0  0  0
   21.3090   18.9885   21.1170 H   0  0  0  0  0  0  0  0  0  0  0  0
   20.7056   20.6577   21.2813 H   0  0  0  0  0  0  0  0  0  0  0  0
   20.1755   19.3215   23.0391 C   0  0  0  0  0  0  0  0  0  0  0  0
   19.6332   20.1262   23.5512 H   0  0  0  0  0  0  0  0  0  0  0  0
   21.0162   19.0073   23.6674 H   0  0  0  0  0  0  0  0  0  0  0  0
   19.2702   18.1766   22.4923 C   0  0  0  0  0  0  0  0  0  0  0  0
   19.8123   17.2473   22.2696 H   0  0  0  0  0  0  0  0  0  0  0  0
   19.0594   19.0940   21.2502 C   0  0  0  0  0  0  0  0  0  0  0  0
   18.2706   19.8470   21.3701 H   0  0  0  0  0  0  0  0  0  0  0  0
   18.9108   18.5769   20.2960 H   0  0  0  0  0  0  0  0  0  0  0  0
   18.1117   17.9110   23.2484 O   0  0  0  0  0  0  0  0  0  0  0  0
   18.3998   17.4704   24.0767 H   0  0  0  0  0  0  0  0  0  0  0  0
  1  2  1  0  0  0  0
  1  3  1  0  0  0  0
  1  4  1  0  0  0  0
  4  5  1  0  0  0  0
  4  6  1  0  0  0  0
  4  7  1  0  0  0  0
  7  8  1  0  0  0  0
  1  9  1  0  0  0  0
  7  9  1  0  0  0  0
  9 10  1  0  0  0  0
  9 11  1  0  0  0  0
  7 12  1  0  0  0  0
 12 13  1  0  0  0  0
M  END
> <VConfSearch Rank>
407

> <Conf_Id>
19

> <Delta U+W>
-0.011

> <U+W>
-3.142

> <U>
-0.154

> <W>
-2.989

> <W(PB)>
-4.588

> <W(SA)>
1.599

> <Valence>
6.334

> <Coulomb>
-7.439

> <VdW>
0.951

> <VdW6>
-2.120

> <VdW12>
3.072

> <Bond>
0.065

> <Angle>
0.930

> <Pdih>
5.339

> <Idih>
0.000

> <Tether>
0.000

$$$$
VeraChem MOL file


 13 13  0  0  0  0  0  0  0  0999 V2000     
   18.8876   19.8687   22.8268 C   0  0  0  0  0  0  0  0  0  0  0  0
   17.8826   20.3069   22.8315 H   0  0  0  0  0  0  0  0  0  0  0  0
   19.4492   20.2692   23.6809 H   0  0  0  0  0  0  0  0  0  0  0  0
   19.6546   19.9197   21.4637 C   0  0  0  0  0  0  0  0  0  0  0  0
   19.0105   19.8738   20.5772 H   0  0  0  0  0  0  0  0  0  0  0  0
   20.3621   20.7471   21.3404 H   0  0  0  0  0  0  0  0  0  0  0  0
   20.2788   18.5490   21.8722 C   0  0  0  0  0  0  0  0  0  0  0  0
   20.4412   17.8540   21.0383 H   0  0  0  0  0  0  0  0  0  0  0  0
   18.9598   18.3132   22.6726 C   0  0  0  0  0  0  0  0  0  0  0  0
   19.0582   17.7423   23.6026 H   0  0  0  0  0  0  0  0  0  0  0  0
   18.1465   17.8777   22.0793 H   0  0  0  0  0  0  0  0  0  0  0  0
   21.4481   18.6395   22.6613 O   0  0  0  0  0  0  0  0  0  0  0  0
   21.6425   17.7387   22.9972 H   0  0  0  0  0  0  0  0  0  0  0  0
  1  2  1  0  0  0  0
  1  3  1  0  0  0  0
  1  4  1  0  0  0  0
  4  5  1  0  0  0  0
  4  6  1  0  0  0  0
  4  7  1  0  0  0  0
  7  8  1  0  0  0  0
  1  9  1  0  0  0  0
  7  9  1  0  0  0  0
  9 10  1  0  0  0  0
  9 11  1  0  0  0  0
  7 12  1  0  0  0  0
 12 13  1  0  0  0  0
M  END
> <VConfSearch Rank>
408

> <Conf_Id>
20

> <Delta U+W>
1.030

> <U+W>
-2.101

> <U>
0.841

> <W>
-2.942

> <W(PB)>
-4.530

> <W(SA)>
1.587

> <Valence>
6.736

> <Coulomb>
-7.246

> <VdW>
1.352

> <VdW6>
-2.500

> <VdW12>
3.851

> <Bond>
0.063

> <Angle>
0.687

> <Pdih>
5.986

> <Idih>
0.000

> <Tether>
0.000

$$$$
VeraChem MOL file


 13 13  0  0  0  0  0  0  0  0999 V2000     
   19.1813   18.9227   23.3619 C   0  0  0  0  0  0  0  0  0  0  0  0
   19.6060   19.5435   24.1619 H   0  0  0  0  0  0  0  0  0  0  0  0
   18.3129   18.3844   23.7603 H   0  0  0  0  0  0  0  0  0  0  0  0
   20.2254   18.0593   22.5798 C   0  0  0  0  0  0  0  0  0  0  0  0
   21.0866   17.7045   23.1567 H   0  0  0  0  0  0  0  0  0  0  0  0
   19.7979   17.2125   22.0288 H   0  0  0  0  0  0  0  0  0  0  0  0
   20.4641   19.3419   21.7271 C   0  0  0  0  0  0  0  0  0  0  0  0
   21.1637   20.0551   22.1839 H   0  0  0  0  0  0  0  0  0  0  0  0
   18.9647   19.6658   22.0025 C   0  0  0  0  0  0  0  0  0  0  0  0
   18.2554   19.1781   21.3224 H   0  0  0  0  0  0  0  0  0  0  0  0
   18.7124   20.7299   22.0695 H   0  0  0  0  0  0  0  0  0  0  0  0
   20.7961   19.1174   20.3776 O   0  0  0  0  0  0  0  0  0  0  0  0
   20.1421   18.4777   20.0255 H   0  0  0  0  0  0  0  0  0  0  0  0
  1  2  1  0  0  0  0
  1  3  1  0  0  0  0
  1  4  1  0  0  0  0
  4  5  1  0  0  0  0
  4  6  1  0  0  0  0
  4  7  1  0  0  0  0
  7  8  1  0  0  0  0
  1  9  1  0  0  0  0
  7  9  1  0  0  0  0
  9 10  1  0  0  0  0
  9 11  1  0  0  0  0
  7 12  1  0  0  0  0
 12 13  1  0  0  0  0
M  END
> <VConfSearch Rank>
409

> <Conf_Id>
24

> <Delta U+W>
0.356

> <U+W>
-2.775

> <U>
-0.184

> <W>
-2.591

> <W(PB)>
-4.184

> <W(SA)>
1.593

> <Valence>
6.840

> <Coulomb>
-7.916

> <VdW>
0.893

> <VdW6>
-2.167

> <VdW12>
3.060

> <Bond>
0.059

> <Angle>
0.918

> <Pdih>
5.862

> <Idih>
0.000

> <Tether>
0.000

$$$$
VeraChem MOL file


 13 13  0  0  0  0  0  0  0  0999 V2000     
   19.5725   19.3483   21.1562 C   0  0  0  0  0  0  0  0  0  0  0  0
   19.8958   19.2480   20.1132 H   0  0  0  0  0  0  0  0  0  0  0  0
   18.8183   20.1435   21.2103 H   0  0  0  0  0  0  0  0  0  0  0  0
   20.7161   19.4519   22.2200 C   0  0  0  0  0  0  0  0  0  0  0  0
   21.6355   18.9179   21.9507 H   0  0  0  0  0  0  0  0  0  0  0  0
   20.9837   20.4637   22.5448 H   0  0  0  0  0  0  0  0  0  0  0  0
   19.7743   18.6558   23.1756 C   0  0  0  0  0  0  0  0  0  0  0  0
   20.2851   17.9509   23.8439 H   0  0  0  0  0  0  0  0  0  0  0  0
   19.1800   18.0180   21.8817 C   0  0  0  0  0  0  0  0  0  0  0  0
   19.7227   17.1323   21.5295 H   0  0  0  0  0  0  0  0  0  0  0  0
   18.1105   17.7816   21.9121 H   0  0  0  0  0  0  0  0  0  0  0  0
   18.8703   19.4504   23.9125 O   0  0  0  0  0  0  0  0  0  0  0  0
   18.4469   20.0557   23.2693 H   0  0  0  0  0  0  0  0  0  0  0  0
  1  2  1  0  0  0  0
  1  3  1  0  0  0  0
  1  4  1  0  0  0  0
  4  5  1  0  0  0  0
  4  6  1  0  0  0  0
  4  7  1  0  0  0  0
  7  8  1  0  0  0  0
  1  9  1  0  0  0  0
  7  9  1  0  0  0  0
  9 10  1  0  0  0  0
  9 11  1  0  0  0  0
  7 12  1  0  0  0  0
 12 13  1  0  0  0  0
M  END
> <VConfSearch Rank>
410

> <Conf_Id>
44

> <Delta U+W>
0.823

> <U+W>
-2.308

> <U>
0.039

> <W>
-2.348

> <W(PB)>
-3.918

> <W(SA)>
1.571

> <Valence>
7.320

> <Coulomb>
-8.530

> <VdW>
1.249

> <VdW6>
-2.615

> <VdW12>
3.864

> <Bond>
0.056

> <Angle>
0.694

> <Pdih>
6.570

> <Idih>
0.000

> <Tether>
0.000

$$$$
VeraChem MOL file


 13 13  0  0  0  0  0  0  0  0999 V2000     
   19.5753   17.9007   22.9026 C   0  0  0  0  0  0  0  0  0  0  0  0
   20.4651   17.2657   22.7999 H   0  0  0  0  0  0  0  0  0  0  0  0
   18.8690   17.4072   23.5809 H   0  0  0  0  0  0  0  0  0  0  0  0
   18.9817   18.4191   21.5513 C   0  0  0  0  0  0  0  0  0  0  0  0
   19.0837   17.7501   20.6899 H   0  0  0  0  0  0  0  0  0  0  0  0
   17.9422   18.7651   21.6083 H   0  0  0  0  0  0  0  0  0  0  0  0
   20.0461   19.5525   21.6587 C   0  0  0  0  0  0  0  0  0  0  0  0
   21.0398   19.2632   21.2900 H   0  0  0  0  0  0  0  0  0  0  0  0
   19.8765   19.4065   23.2012 C   0  0  0  0  0  0  0  0  0  0  0  0
   20.7701   19.6096   23.8016 H   0  0  0  0  0  0  0  0  0  0  0  0
   19.0330   19.9677   23.6222 H   0  0  0  0  0  0  0  0  0  0  0  0
   19.6571   20.7967   21.1247 O   0  0  0  0  0  0  0  0  0  0  0  0
   20.3331   21.4540   21.3969 H   0  0  0  0  0  0  0  0  0  0  0  0
  1  2  1  0  0  0  0
  1  3  1  0  0  0  0
  1  4  1  0  0  0  0
  4  5  1  0  0  0  0
  4  6  1  0  0  0  0
  4  7  1  0  0  0  0
  7  8  1  0  0  0  0
  1  9  1  0  0  0  0
  7  9  1  0  0  0  0
  9 10  1  0  0  0  0
  9 11  1  0  0  0  0
  7 12  1  0  0  0  0
 12 13  1  0  0  0  0
M  END
> <VConfSearch Rank>
411

> <Conf_Id>
22

> <Delta U+W>
0.000

> <U+W>
-3.131

> <U>
-0.154

> <W>
-2.978

> <W(PB)>
-4.579

> <W(SA)>
1.601

> <Valence>
6.333

> <Coulomb>
-7.439

> <VdW>
0.952

> <VdW6>
-2.120

> <VdW12>
3.072

> <Bond>
0.065

> <Angle>
0.931

> <Pdih>
5.338

> <Idih>
0.000

> <Tether>
0.000

$$$$
VeraChem MOL file


 13 13  0  0  0  0  0  0  0  0999 V2000     
   18.3933   18.4848   22.3833 C   0  0  0  0  0  0  0  0  0  0  0  0
   17.7048   19.2354   22.7933 H   0  0  0  0  0  0  0  0  0  0  0  0
   17.8469   17.5433   22.2509 H   0  0  0  0  0  0  0  0  0  0  0  0
   19.7676   18.3833   23.1238 C   0  0  0  0  0  0  0  0  0  0  0  0
   20.3146   17.4485   22.9482 H   0  0  0  0  0  0  0  0  0  0  0  0
   19.7514   18.5856   24.2003 H   0  0  0  0  0  0  0  0  0  0  0  0
   20.2069   19.5710   22.2152 C   0  0  0  0  0  0  0  0  0  0  0  0
   19.8986   20.5567   22.5899 H   0  0  0  0  0  0  0  0  0  0  0  0
   19.2345   18.9692   21.1565 C   0  0  0  0  0  0  0  0  0  0  0  0
   19.6662   18.1645   20.5485 H   0  0  0  0  0  0  0  0  0  0  0  0
   18.7483   19.6912   20.4915 H   0  0  0  0  0  0  0  0  0  0  0  0
   21.5670   19.5783   21.8484 O   0  0  0  0  0  0  0  0  0  0  0  0
   22.0822   19.8225   22.6472 H   0  0  0  0  0  0  0  0  0  0  0  0
  1  2  1  0  0  0  0
  1  3  1  0  0  0  0
  1  4  1  0  0  0  0
  4  5  1  0  0  0  0
  4  6  1  0  0  0  0
  4  7  1  0  0  0  0
  7  8  1  0  0  0  0
  1  9  1  0  0  0  0
  7  9  1  0  0  0  0
  9 10  1  0  0  0  0
  9 11  1  0  0  0  0
  7 12  1  0  0  0  0
 12 13  1  0  0  0  0
M  END
> <VConfSearch Rank>
412

> <Conf_Id>
19

> <Delta U+W>
-0.011

> <U+W>
-3.142

> <U>
-0.154

> <W>
-2.989

> <W(PB)>
-4.588

> <W(SA)>
1.599

> <Valence>
6.334

> <Coulomb>
-7.439

> <VdW>
0.951

> <VdW6>
-2.120

> <VdW12>
3.072

> <Bond>
0.065

> <Angle>
0.930

> <Pdih>
5.339

> <Idih>
0.000

> <Tether>
0.000

$$$$
VeraChem MOL file


 13 13  0  0  0  0  0  0  0  0999 V2000     
   20.1959   18.2878   23.0635 C   0  0  0  0  0  0  0  0  0  0  0  0
   20.0527   17.5714   23.8809 H   0  0  0  0  0  0  0  0  0  0  0  0
   21.2578   18.2952   22.7851 H   0  0  0  0  0  0  0  0  0  0  0  0
   19.5699   19.7066   23.2738 C   0  0  0  0  0  0  0  0  0  0  0  0
   18.6590   19.7159   23.8846 H   0  0  0  0  0  0  0  0  0  0  0  0
   20.2489   20.4819   23.6454 H   0  0  0  0  0  0  0  0  0  0  0  0
   19.3083   19.7150   21.7354 C   0  0  0  0  0  0  0  0  0  0  0  0
   18.3785   20.2136   21.4325 H   0  0  0  0  0  0  0  0  0  0  0  0
   19.2079   18.1621   21.8565 C   0  0  0  0  0  0  0  0  0  0  0  0
   19.5711   17.5892   20.9962 H   0  0  0  0  0  0  0  0  0  0  0  0
   18.2091   17.7964   22.1238 H   0  0  0  0  0  0  0  0  0  0  0  0
   20.3866   20.1844   20.9512 O   0  0  0  0  0  0  0  0  0  0  0  0
   20.1760   19.9802   20.0153 H   0  0  0  0  0  0  0  0  0  0  0  0
  1  2  1  0  0  0  0
  1  3  1  0  0  0  0
  1  4  1  0  0  0  0
  4  5  1  0  0  0  0
  4  6  1  0  0  0  0
  4  7  1  0  0  0  0
  7  8  1  0  0  0  0
  1  9  1  0  0  0  0
  7  9  1  0  0  0  0
  9 10  1  0  0  0  0
  9 11  1  0  0  0  0
  7 12  1  0  0  0  0
 12 13  1  0  0  0  0
M  END
> <VConfSearch Rank>
413

> <Conf_Id>
20

> <Delta U+W>
1.030

> <U+W>
-2.101

> <U>
0.841

> <W>
-2.942

> <W(PB)>
-4.530

> <W(SA)>
1.587

> <Valence>
6.736

> <Coulomb>
-7.246

> <VdW>
1.352

> <VdW6>
-2.500

> <VdW12>
3.851

> <Bond>
0.063

> <Angle>
0.687

> <Pdih>
5.986

> <Idih>
0.000

> <Tether>
0.000

$$$$
VeraChem MOL file


 13 13  0  0  0  0  0  0  0  0999 V2000     
   20.8561   18.3830   21.9172 C   0  0  0  0  0  0  0  0  0  0  0  0
   20.8895   17.7556   21.0166 H   0  0  0  0  0  0  0  0  0  0  0  0
   21.8472   18.3750   22.3863 H   0  0  0  0  0  0  0  0  0  0  0  0
   19.6445   18.1014   22.8658 C   0  0  0  0  0  0  0  0  0  0  0  0
   19.2898   17.0654   22.9004 H   0  0  0  0  0  0  0  0  0  0  0  0
   19.7740   18.4635   23.8932 H   0  0  0  0  0  0  0  0  0  0  0  0
   18.8468   19.0589   21.9298 C   0  0  0  0  0  0  0  0  0  0  0  0
   18.4535   18.5718   21.0272 H   0  0  0  0  0  0  0  0  0  0  0  0
   20.2054   19.7905   21.7099 C   0  0  0  0  0  0  0  0  0  0  0  0
   20.4603   20.5301   22.4789 H   0  0  0  0  0  0  0  0  0  0  0  0
   20.3460   20.2462   20.7235 H   0  0  0  0  0  0  0  0  0  0  0  0
   17.8443   19.8218   22.5581 O   0  0  0  0  0  0  0  0  0  0  0  0
   18.2510   20.2296   23.3512 H   0  0  0  0  0  0  0  0  0  0  0  0
  1  2  1  0  0  0  0
  1  3  1  0  0  0  0
  1  4  1  0  0  0  0
  4  5  1  0  0  0  0
  4  6  1  0  0  0  0
  4  7  1  0  0  0  0
  7  8  1  0  0  0  0
  1  9  1  0  0  0  0
  7  9  1  0  0  0  0
  9 10  1  0  0  0  0
  9 11  1  0  0  0  0
  7 12  1  0  0  0  0
 12 13  1  0  0  0  0
M  END
> <VConfSearch Rank>
414

> <Conf_Id>
24

> <Delta U+W>
0.356

> <U+W>
-2.775

> <U>
-0.184

> <W>
-2.591

> <W(PB)>
-4.184

> <W(SA)>
1.593

> <Valence>
6.840

> <Coulomb>
-7.916

> <VdW>
0.893

> <VdW6>
-2.167

> <VdW12>
3.060

> <Bond>
0.059

> <Angle>
0.918

> <Pdih>
5.862

> <Idih>
0.000

> <Tether>
0.000

$$$$
VeraChem MOL file


 13 13  0  0  0  0  0  0  0  0999 V2000     
   19.7295   20.0815   22.3845 C   0  0  0  0  0  0  0  0  0  0  0  0
   19.1635   21.0206   22.3771 H   0  0  0  0  0  0  0  0  0  0  0  0
   20.7615   20.3011   22.6864 H   0  0  0  0  0  0  0  0  0  0  0  0
   19.5933   19.1905   21.1048 C   0  0  0  0  0  0  0  0  0  0  0  0
   18.6270   19.2766   20.5932 H   0  0  0  0  0  0  0  0  0  0  0  0
   20.3913   19.2889   20.3603 H   0  0  0  0  0  0  0  0  0  0  0  0
   19.7002   17.9620   22.0605 C   0  0  0  0  0  0  0  0  0  0  0  0
   19.0869   17.0989   21.7717 H   0  0  0  0  0  0  0  0  0  0  0  0
   19.0618   18.8862   23.1432 C   0  0  0  0  0  0  0  0  0  0  0  0
   17.9651   18.8977   23.1314 H   0  0  0  0  0  0  0  0  0  0  0  0
   19.3971   18.7197   24.1730 H   0  0  0  0  0  0  0  0  0  0  0  0
   21.0186   17.5443   22.3419 O   0  0  0  0  0  0  0  0  0  0  0  0
   21.5161   18.3501   22.5919 H   0  0  0  0  0  0  0  0  0  0  0  0
  1  2  1  0  0  0  0
  1  3  1  0  0  0  0
  1  4  1  0  0  0  0
  4  5  1  0  0  0  0
  4  6  1  0  0  0  0
  4  7  1  0  0  0  0
  7  8  1  0  0  0  0
  1  9  1  0  0  0  0
  7  9  1  0  0  0  0
  9 10  1  0  0  0  0
  9 11  1  0  0  0  0
  7 12  1  0  0  0  0
 12 13  1  0  0  0  0
M  END
> <VConfSearch Rank>
415

> <Conf_Id>
44

> <Delta U+W>
0.823

> <U+W>
-2.308

> <U>
0.039

> <W>
-2.348

> <W(PB)>
-3.918

> <W(SA)>
1.571

> <Valence>
7.320

> <Coulomb>
-8.530

> <VdW>
1.249

> <VdW6>
-2.615

> <VdW12>
3.864

> <Bond>
0.056

> <Angle>
0.694

> <Pdih>
6.570

> <Idih>
0.000

> <Tether>
0.000

$$$$
VeraChem MOL file


 13 13  0  0  0  0  0  0  0  0999 V2000     
   18.7614   19.1336   23.2037 C   0  0  0  0  0  0  0  0  0  0  0  0
   18.6397   20.1522   23.5950 H   0  0  0  0  0  0  0  0  0  0  0  0
   18.0366   18.4782   23.7012 H   0  0  0  0  0  0  0  0  0  0  0  0
   20.2384   18.6196   23.1644 C   0  0  0  0  0  0  0  0  0  0  0  0
   20.8996   18.9872   23.9566 H   0  0  0  0  0  0  0  0  0  0  0  0
   20.3443   17.5300   23.0936 H   0  0  0  0  0  0  0  0  0  0  0  0
   20.3342   19.3675   21.8005 C   0  0  0  0  0  0  0  0  0  0  0  0
   20.5468   20.4409   21.8980 H   0  0  0  0  0  0  0  0  0  0  0  0
   18.8197   19.0343   21.6435 C   0  0  0  0  0  0  0  0  0  0  0  0
   18.2236   19.7687   21.0909 H   0  0  0  0  0  0  0  0  0  0  0  0
   18.6122   18.0353   21.2400 H   0  0  0  0  0  0  0  0  0  0  0  0
   21.1839   18.7738   20.8465 O   0  0  0  0  0  0  0  0  0  0  0  0
   21.0323   19.2365   19.9943 H   0  0  0  0  0  0  0  0  0  0  0  0
  1  2  1  0  0  0  0
  1  3  1  0  0  0  0
  1  4  1  0  0  0  0
  4  5  1  0  0  0  0
  4  6  1  0  0  0  0
  4  7  1  0  0  0  0
  7  8  1  0  0  0  0
  1  9  1  0  0  0  0
  7  9  1  0  0  0  0
  9 10  1  0  0  0  0
  9 11  1  0  0  0  0
  7 12  1  0  0  0  0
 12 13  1  0  0  0  0
M  END
> <VConfSearch Rank>
416

> <Conf_Id>
22

> <Delta U+W>
0.000

> <U+W>
-3.131

> <U>
-0.154

> <W>
-2.978

> <W(PB)>
-4.579

> <W(SA)>
1.601

> <Valence>
6.333

> <Coulomb>
-7.439

> <VdW>
0.952

> <VdW6>
-2.120

> <VdW12>
3.072

> <Bond>
0.065

> <Angle>
0.931

> <Pdih>
5.338

> <Idih>
0.000

> <Tether>
0.000

$$$$
VeraChem MOL file


 13 13  0  0  0  0  0  0  0  0999 V2000     
   19.9615   18.2197   21.1817 C   0  0  0  0  0  0  0  0  0  0  0  0
   19.9074   17.1349   21.3429 H   0  0  0  0  0  0  0  0  0  0  0  0
   20.3358   18.4050   20.1679 H   0  0  0  0  0  0  0  0  0  0  0  0
   20.6631   19.0179   22.3298 C   0  0  0  0  0  0  0  0  0  0  0  0
   21.0115   20.0186   22.0453 H   0  0  0  0  0  0  0  0  0  0  0  0
   21.4729   18.4981   22.8534 H   0  0  0  0  0  0  0  0  0  0  0  0
   19.2722   18.9920   23.0326 C   0  0  0  0  0  0  0  0  0  0  0  0
   19.0696   18.0650   23.5864 H   0  0  0  0  0  0  0  0  0  0  0  0
   18.6742   19.0074   21.5935 C   0  0  0  0  0  0  0  0  0  0  0  0
   18.5848   20.0066   21.1492 H   0  0  0  0  0  0  0  0  0  0  0  0
   17.7228   18.4793   21.4674 H   0  0  0  0  0  0  0  0  0  0  0  0
   18.9740   20.1209   23.8208 O   0  0  0  0  0  0  0  0  0  0  0  0
   19.5325   20.0688   24.6262 H   0  0  0  0  0  0  0  0  0  0  0  0
  1  2  1  0  0  0  0
  1  3  1  0  0  0  0
  1  4  1  0  0  0  0
  4  5  1  0  0  0  0
  4  6  1  0  0  0  0
  4  7  1  0  0  0  0
  7  8  1  0  0  0  0
  1  9  1  0  0  0  0
  7  9  1  0  0  0  0
  9 10  1  0  0  0  0
  9 11  1  0  0  0  0
  7 12  1  0  0  0  0
 12 13  1  0  0  0  0
M  END
> <VConfSearch Rank>
417

> <Conf_Id>
19

> <Delta U+W>
-0.011

> <U+W>
-3.142

> <U>
-0.154

> <W>
-2.989

> <W(PB)>
-4.588

> <W(SA)>
1.599

> <Valence>
6.334

> <Coulomb>
-7.439

> <VdW>
0.951

> <VdW6>
-2.120

> <VdW12>
3.072

> <Bond>
0.065

> <Angle>
0.930

> <Pdih>
5.339

> <Idih>
0.000

> <Tether>
0.000

$$$$
VeraChem MOL file


 13 13  0  0  0  0  0  0  0  0999 V2000     
   19.1837   18.8924   21.1445 C   0  0  0  0  0  0  0  0  0  0  0  0
   18.3869   19.1694   20.4442 H   0  0  0  0  0  0  0  0  0  0  0  0
   19.9096   18.2593   20.6177 H   0  0  0  0  0  0  0  0  0  0  0  0
   18.7188   18.3327   22.5300 C   0  0  0  0  0  0  0  0  0  0  0  0
   17.7639   18.7372   22.8869 H   0  0  0  0  0  0  0  0  0  0  0  0
   18.6944   17.2415   22.6245 H   0  0  0  0  0  0  0  0  0  0  0  0
   19.9756   19.0373   23.1295 C   0  0  0  0  0  0  0  0  0  0  0  0
   19.8300   19.4549   24.1341 H   0  0  0  0  0  0  0  0  0  0  0  0
   19.8175   20.0644   21.9650 C   0  0  0  0  0  0  0  0  0  0  0  0
   20.7475   20.4830   21.5647 H   0  0  0  0  0  0  0  0  0  0  0  0
   19.1287   20.8892   22.1845 H   0  0  0  0  0  0  0  0  0  0  0  0
   21.1622   18.2699   23.0920 O   0  0  0  0  0  0  0  0  0  0  0  0
   21.9030   18.8685   23.3264 H   0  0  0  0  0  0  0  0  0  0  0  0
  1  2  1  0  0  0  0
  1  3  1  0  0  0  0
  1  4  1  0  0  0  0
  4  5  1  0  0  0  0
  4  6  1  0  0  0  0
  4  7  1  0  0  0  0
  7  8  1  0  0  0  0
  1  9  1  0  0  0  0
  7  9  1  0  0  0  0
  9 10  1  0  0  0  0
  9 11  1  0  0  0  0
  7 12  1  0  0  0  0
 12 13  1  0  0  0  0
M  END
> <VConfSearch Rank>
418

> <Conf_Id>
20

> <Delta U+W>
1.030

> <U+W>
-2.101

> <U>
0.841

> <W>
-2.942

> <W(PB)>
-4.530

> <W(SA)>
1.587

> <Valence>
6.736

> <Coulomb>
-7.246

> <VdW>
1.352

> <VdW6>
-2.500

> <VdW12>
3.851

> <Bond>
0.063

> <Angle>
0.687

> <Pdih>
5.986

> <Idih>
0.000

> <Tether>
0.000

$$$$
VeraChem MOL file


 13 13  0  0  0  0  0  0  0  0999 V2000     
   19.4202   19.8212   23.0970 C   0  0  0  0  0  0  0  0  0  0  0  0
   19.8006   19.6845   24.1179 H   0  0  0  0  0  0  0  0  0  0  0  0
   18.8077   20.7303   23.0705 H   0  0  0  0  0  0  0  0  0  0  0  0
   18.7807   18.5430   22.4608 C   0  0  0  0  0  0  0  0  0  0  0  0
   18.2737   17.8620   23.1531 H   0  0  0  0  0  0  0  0  0  0  0  0
   18.1165   18.7389   21.6100 H   0  0  0  0  0  0  0  0  0  0  0  0
   20.2401   18.1539   22.0761 C   0  0  0  0  0  0  0  0  0  0  0  0
   20.7967   17.6623   22.8855 H   0  0  0  0  0  0  0  0  0  0  0  0
   20.5003   19.6872   21.9732 C   0  0  0  0  0  0  0  0  0  0  0  0
   20.2204   20.1388   21.0135 H   0  0  0  0  0  0  0  0  0  0  0  0
   21.5118   20.0167   22.2350 H   0  0  0  0  0  0  0  0  0  0  0  0
   20.3770   17.4356   20.8731 O   0  0  0  0  0  0  0  0  0  0  0  0
   19.8628   17.9184   20.1924 H   0  0  0  0  0  0  0  0  0  0  0  0
  1  2  1  0  0  0  0
  1  3  1  0  0  0  0
  1  4  1  0  0  0  0
  4  5  1  0  0  0  0
  4  6  1  0  0  0  0
  4  7  1  0  0  0  0
  7  8  1  0  0  0  0
  1  9  1  0  0  0  0
  7  9  1  0  0  0  0
  9 10  1  0  0  0  0
  9 11  1  0  0  0  0
  7 12  1  0  0  0  0
 12 13  1  0  0  0  0
M  END
> <VConfSearch Rank>
419

> <Conf_Id>
24

> <Delta U+W>
0.356

> <U+W>
-2.775

> <U>
-0.184

> <W>
-2.591

> <W(PB)>
-4.184

> <W(SA)>
1.593

> <Valence>
6.840

> <Coulomb>
-7.916

> <VdW>
0.893

> <VdW6>
-2.167

> <VdW12>
3.060

> <Bond>
0.059

> <Angle>
0.918

> <Pdih>
5.862

> <Idih>
0.000

> <Tether>
0.000

$$$$
VeraChem MOL file


 13 13  0  0  0  0  0  0  0  0999 V2000     
   19.1741   18.1798   22.8185 C   0  0  0  0  0  0  0  0  0  0  0  0
   19.1600   17.1233   23.1117 H   0  0  0  0  0  0  0  0  0  0  0  0
   18.3419   18.6898   23.3201 H   0  0  0  0  0  0  0  0  0  0  0  0
   19.2902   18.4623   21.2833 C   0  0  0  0  0  0  0  0  0  0  0  0
   19.8476   17.7017   20.7232 H   0  0  0  0  0  0  0  0  0  0  0  0
   18.3506   18.6635   20.7566 H   0  0  0  0  0  0  0  0  0  0  0  0
   20.1361   19.7146   21.6709 C   0  0  0  0  0  0  0  0  0  0  0  0
   20.9561   19.9485   20.9799 H   0  0  0  0  0  0  0  0  0  0  0  0
   20.5568   18.9041   22.9358 C   0  0  0  0  0  0  0  0  0  0  0  0
   21.4248   18.2517   22.7810 H   0  0  0  0  0  0  0  0  0  0  0  0
   20.7197   19.4897   23.8475 H   0  0  0  0  0  0  0  0  0  0  0  0
   19.3830   20.8780   21.9372 O   0  0  0  0  0  0  0  0  0  0  0  0
   18.6709   20.6108   22.5543 H   0  0  0  0  0  0  0  0  0  0  0  0
  1  2  1  0  0  0  0
  1  3  1  0  0  0  0
  1  4  1  0  0  0  0
  4  5  1  0  0  0  0
  4  6  1  0  0  0  0
  4  7  1  0  0  0  0
  7  8  1  0  0  0  0
  1  9  1  0  0  0  0
  7  9  1  0  0  0  0
  9 10  1  0  0  0  0
  9 11  1  0  0  0  0
  7 12  1  0  0  0  0
 12 13  1  0  0  0  0
M  END
> <VConfSearch Rank>
420

> <Conf_Id>
44

> <Delta U+W>
0.823

> <U+W>
-2.308

> <U>
0.039

> <W>
-2.348

> <W(PB)>
-3.918

> <W(SA)>
1.571

> <Valence>
7.320

> <Coulomb>
-8.530

> <VdW>
1.249

> <VdW6>
-2.615

> <VdW12>
3.864

> <Bond>
0.056

> <Angle>
0.694

> <Pdih>
6.570

> <Idih>
0.000

> <Tether>
0.000

$$$$
VeraChem MOL file


 13 13  0  0  0  0  0  0  0  0999 V2000     
   19.2177   20.1787   21.7491 C   0  0  0  0  0  0  0  0  0  0  0  0
   19.9702   20.7289   21.1689 H   0  0  0  0  0  0  0  0  0  0  0  0
   18.2688   20.7260   21.7005 H   0  0  0  0  0  0  0  0  0  0  0  0
   19.6847   19.7387   23.1758 C   0  0  0  0  0  0  0  0  0  0  0  0
   20.3885   20.4082   23.6823 H   0  0  0  0  0  0  0  0  0  0  0  0
   18.8717   19.4910   23.8697 H   0  0  0  0  0  0  0  0  0  0  0  0
   20.3170   18.5090   22.4569 C   0  0  0  0  0  0  0  0  0  0  0  0
   21.3072   18.7093   22.0253 H   0  0  0  0  0  0  0  0  0  0  0  0
   19.1440   18.6470   21.4399 C   0  0  0  0  0  0  0  0  0  0  0  0
   19.3681   18.3518   20.4090 H   0  0  0  0  0  0  0  0  0  0  0  0
   18.2110   18.1611   21.7515 H   0  0  0  0  0  0  0  0  0  0  0  0
   20.3293   17.3150   23.2045 O   0  0  0  0  0  0  0  0  0  0  0  0
   20.5946   16.5931   22.5948 H   0  0  0  0  0  0  0  0  0  0  0  0
  1  2  1  0  0  0  0
  1  3  1  0  0  0  0
  1  4  1  0  0  0  0
  4  5  1  0  0  0  0
  4  6  1  0  0  0  0
  4  7  1  0  0  0  0
  7  8  1  0  0  0  0
  1  9  1  0  0  0  0
  7  9  1  0  0  0  0
  9 10  1  0  0  0  0
  9 11  1  0  0  0  0
  7 12  1  0  0  0  0
 12 13  1  0  0  0  0
M  END
> <VConfSearch Rank>
421

> <Conf_Id>
22

> <Delta U+W>
0.000

> <U+W>
-3.131

> <U>
-0.154

> <W>
-2.978

> <W(PB)>
-4.579

> <W(SA)>
1.601

> <Valence>
6.333

> <Coulomb>
-7.439

> <VdW>
0.952

> <VdW6>
-2.120

> <VdW12>
3.072

> <Bond>
0.065

> <Angle>
0.931

> <Pdih>
5.338

> <Idih>
0.000

> <Tether>
0.000

$$$$
VeraChem MOL file


 13 13  0  0  0  0  0  0  0  0999 V2000     
   20.8431   18.9813   22.7609 C   0  0  0  0  0  0  0  0  0  0  0  0
   21.6156   18.5586   22.1050 H   0  0  0  0  0  0  0  0  0  0  0  0
   21.3131   19.2897   23.7023 H   0  0  0  0  0  0  0  0  0  0  0  0
   19.5484   18.1129   22.8915 C   0  0  0  0  0  0  0  0  0  0  0  0
   18.9289   18.3430   23.7673 H   0  0  0  0  0  0  0  0  0  0  0  0
   19.6876   17.0278   22.8332 H   0  0  0  0  0  0  0  0  0  0  0  0
   19.0933   18.8117   21.5748 C   0  0  0  0  0  0  0  0  0  0  0  0
   19.4994   18.3526   20.6630 H   0  0  0  0  0  0  0  0  0  0  0  0
   19.9124   20.0379   22.0792 C   0  0  0  0  0  0  0  0  0  0  0  0
   19.3711   20.6908   22.7751 H   0  0  0  0  0  0  0  0  0  0  0  0
   20.3719   20.6565   21.3007 H   0  0  0  0  0  0  0  0  0  0  0  0
   17.7058   19.0232   21.4531 O   0  0  0  0  0  0  0  0  0  0  0  0
   17.2916   18.1483   21.2909 H   0  0  0  0  0  0  0  0  0  0  0  0
  1  2  1  0  0  0  0
  1  3  1  0  0  0  0
  1  4  1  0  0  0  0
  4  5  1  0  0  0  0
  4  6  1  0  0  0  0
  4  7  1  0  0  0  0
  7  8  1  0  0  0  0
  1  9  1  0  0  0  0
  7  9  1  0  0  0  0
  9 10  1  0  0  0  0
  9 11  1  0  0  0  0
  7 12  1  0  0  0  0
 12 13  1  0  0  0  0
M  END
> <VConfSearch Rank>
422

> <Conf_Id>
19

> <Delta U+W>
-0.011

> <U+W>
-3.142

> <U>
-0.154

> <W>
-2.989

> <W(PB)>
-4.588

> <W(SA)>
1.599

> <Valence>
6.334

> <Coulomb>
-7.439

> <VdW>
0.951

> <VdW6>
-2.120

> <VdW12>
3.072

> <Bond>
0.065

> <Angle>
0.930

> <Pdih>
5.339

> <Idih>
0.000

> <Tether>
0.000

$$$$
VeraChem MOL file


 13 13  0  0  0  0  0  0  0  0999 V2000     
   18.6194   19.2769   21.6158 C   0  0  0  0  0  0  0  0  0  0  0  0
   17.9117   20.0462   21.2853 H   0  0  0  0  0  0  0  0  0  0  0  0
   18.3668   18.3309   21.1194 H   0  0  0  0  0  0  0  0  0  0  0  0
   18.8387   19.1613   23.1610 C   0  0  0  0  0  0  0  0  0  0  0  0
   18.7295   20.1056   23.7079 H   0  0  0  0  0  0  0  0  0  0  0  0
   18.2538   18.3897   23.6736 H   0  0  0  0  0  0  0  0  0  0  0  0
   20.3155   18.7828   22.8273 C   0  0  0  0  0  0  0  0  0  0  0  0
   21.0570   19.1596   23.5436 H   0  0  0  0  0  0  0  0  0  0  0  0
   20.1348   19.6615   21.5500 C   0  0  0  0  0  0  0  0  0  0  0  0
   20.6766   19.3285   20.6579 H   0  0  0  0  0  0  0  0  0  0  0  0
   20.3397   20.7276   21.7060 H   0  0  0  0  0  0  0  0  0  0  0  0
   20.5360   17.4085   22.5805 O   0  0  0  0  0  0  0  0  0  0  0  0
   21.4423   17.3205   22.2157 H   0  0  0  0  0  0  0  0  0  0  0  0
  1  2  1  0  0  0  0
  1  3  1  0  0  0  0
  1  4  1  0  0  0  0
  4  5  1  0  0  0  0
  4  6  1  0  0  0  0
  4  7  1  0  0  0  0
  7  8  1  0  0  0  0
  1  9  1  0  0  0  0
  7  9  1  0  0  0  0
  9 10  1  0  0  0  0
  9 11  1  0  0  0  0
  7 12  1  0  0  0  0
 12 13  1  0  0  0  0
M  END
> <VConfSearch Rank>
423

> <Conf_Id>
20

> <Delta U+W>
1.030

> <U+W>
-2.101

> <U>
0.841

> <W>
-2.942

> <W(PB)>
-4.530

> <W(SA)>
1.587

> <Valence>
6.736

> <Coulomb>
-7.246

> <VdW>
1.352

> <VdW6>
-2.500

> <VdW12>
3.851

> <Bond>
0.063

> <Angle>
0.687

> <Pdih>
5.986

> <Idih>
0.000

> <Tether>
0.000

$$$$
VeraChem MOL file


 13 13  0  0  0  0  0  0  0  0999 V2000     
   21.0192   19.0309   22.0783 C   0  0  0  0  0  0  0  0  0  0  0  0
   21.5121   18.3107   21.4119 H   0  0  0  0  0  0  0  0  0  0  0  0
   21.7824   19.6939   22.5030 H   0  0  0  0  0  0  0  0  0  0  0  0
   20.0148   18.3979   23.0971 C   0  0  0  0  0  0  0  0  0  0  0  0
   20.2609   17.3921   23.4551 H   0  0  0  0  0  0  0  0  0  0  0  0
   19.7796   19.0313   23.9613 H   0  0  0  0  0  0  0  0  0  0  0  0
   18.9806   18.4676   21.9332 C   0  0  0  0  0  0  0  0  0  0  0  0
   19.0430   17.6240   21.2325 H   0  0  0  0  0  0  0  0  0  0  0  0
   19.7619   19.7331   21.4671 C   0  0  0  0  0  0  0  0  0  0  0  0
   19.4701   20.6650   21.9669 H   0  0  0  0  0  0  0  0  0  0  0  0
   19.7846   19.9065   20.3855 H   0  0  0  0  0  0  0  0  0  0  0  0
   17.6463   18.6905   22.3229 O   0  0  0  0  0  0  0  0  0  0  0  0
   17.6532   19.4493   22.9433 H   0  0  0  0  0  0  0  0  0  0  0  0
  1  2  1  0  0  0  0
  1  3  1  0  0  0  0
  1  4  1  0  0  0  0
  4  5  1  0  0  0  0
  4  6  1  0  0  0  0
  4  7  1  0  0  0  0
  7  8  1  0  0  0  0
  1  9  1  0  0  0  0
  7  9  1  0  0  0  0
  9 10  1  0  0  0  0
  9 11  1  0  0  0  0
  7 12  1  0  0  0  0
 12 13  1  0  0  0  0
M  END
> <VConfSearch Rank>
424

> <Conf_Id>
24

> <Delta U+W>
0.356

> <U+W>
-2.775

> <U>
-0.184

> <W>
-2.591

> <W(PB)>
-4.184

> <W(SA)>
1.593

> <Valence>
6.840

> <Coulomb>
-7.916

> <VdW>
0.893

> <VdW6>
-2.167

> <VdW12>
3.060

> <Bond>
0.059

> <Angle>
0.918

> <Pdih>
5.862

> <Idih>
0.000

> <Tether>
0.000

$$$$
VeraChem MOL file


 13 13  0  0  0  0  0  0  0  0999 V2000     
   18.9934   18.3633   22.8475 C   0  0  0  0  0  0  0  0  0  0  0  0
   18.9055   17.6752   23.6967 H   0  0  0  0  0  0  0  0  0  0  0  0
   17.9896   18.5433   22.4420 H   0  0  0  0  0  0  0  0  0  0  0  0
   20.0788   17.9982   21.7805 C   0  0  0  0  0  0  0  0  0  0  0  0
   20.9493   17.4661   22.1831 H   0  0  0  0  0  0  0  0  0  0  0  0
   19.7232   17.4626   20.8931 H   0  0  0  0  0  0  0  0  0  0  0  0
   20.2950   19.5337   21.6090 C   0  0  0  0  0  0  0  0  0  0  0  0
   21.3328   19.8342   21.4166 H   0  0  0  0  0  0  0  0  0  0  0  0
   19.8436   19.6536   23.0975 C   0  0  0  0  0  0  0  0  0  0  0  0
   20.6564   19.5274   23.8231 H   0  0  0  0  0  0  0  0  0  0  0  0
   19.2832   20.5589   23.3566 H   0  0  0  0  0  0  0  0  0  0  0  0
   19.4333   20.1520   20.6779 O   0  0  0  0  0  0  0  0  0  0  0  0
   18.5278   19.8495   20.8963 H   0  0  0  0  0  0  0  0  0  0  0  0
  1  2  1  0  0  0  0
  1  3  1  0  0  0  0
  1  4  1  0  0  0  0
  4  5  1  0  0  0  0
  4  6  1  0  0  0  0
  4  7  1  0  0  0  0
  7  8  1  0  0  0  0
  1  9  1  0  0  0  0
  7  9  1  0  0  0  0
  9 10  1  0  0  0  0
  9 11  1  0  0  0  0
  7 12  1  0  0  0  0
 12 13  1  0  0  0  0
M  END
> <VConfSearch Rank>
425

> <Conf_Id>
44

> <Delta U+W>
0.823

> <U+W>
-2.308

> <U>
0.039

> <W>
-2.348

> <W(PB)>
-3.918

> <W(SA)>
1.571

> <Valence>
7.320

> <Coulomb>
-8.530

> <VdW>
1.249

> <VdW6>
-2.615

> <VdW12>
3.864

> <Bond>
0.056

> <Angle>
0.694

> <Pdih>
6.570

> <Idih>
0.000

> <Tether>
0.000

$$$$
VeraChem MOL file


 13 13  0  0  0  0  0  0  0  0999 V2000     
   18.5561   18.3310   22.2402 C   0  0  0  0  0  0  0  0  0  0  0  0
   17.7425   18.7845   22.8217 H   0  0  0  0  0  0  0  0  0  0  0  0
   18.1806   17.4161   21.7666 H   0  0  0  0  0  0  0  0  0  0  0  0
   19.9139   18.2005   23.0061 C   0  0  0  0  0  0  0  0  0  0  0  0
   19.8456   18.0263   24.0854 H   0  0  0  0  0  0  0  0  0  0  0  0
   20.6170   17.4767   22.5755 H   0  0  0  0  0  0  0  0  0  0  0  0
   20.1609   19.6769   22.5724 C   0  0  0  0  0  0  0  0  0  0  0  0
   19.6837   20.4172   23.2292 H   0  0  0  0  0  0  0  0  0  0  0  0
   19.3246   19.3228   21.3058 C   0  0  0  0  0  0  0  0  0  0  0  0
   18.7329   20.1404   20.8797 H   0  0  0  0  0  0  0  0  0  0  0  0
   19.8965   18.8441   20.5011 H   0  0  0  0  0  0  0  0  0  0  0  0
   21.5066   20.0165   22.3306 O   0  0  0  0  0  0  0  0  0  0  0  0
   21.5117   20.9050   21.9136 H   0  0  0  0  0  0  0  0  0  0  0  0
  1  2  1  0  0  0  0
  1  3  1  0  0  0  0
  1  4  1  0  0  0  0
  4  5  1  0  0  0  0
  4  6  1  0  0  0  0
  4  7  1  0  0  0  0
  7  8  1  0  0  0  0
  1  9  1  0  0  0  0
  7  9  1  0  0  0  0
  9 10  1  0  0  0  0
  9 11  1  0  0  0  0
  7 12  1  0  0  0  0
 12 13  1  0  0  0  0
M  END
> <VConfSearch Rank>
426

> <Conf_Id>
22

> <Delta U+W>
0.000

> <U+W>
-3.131

> <U>
-0.154

> <W>
-2.978

> <W(PB)>
-4.579

> <W(SA)>
1.601

> <Valence>
6.333

> <Coulomb>
-7.439

> <VdW>
0.952

> <VdW6>
-2.120

> <VdW12>
3.072

> <Bond>
0.065

> <Angle>
0.931

> <Pdih>
5.338

> <Idih>
0.000

> <Tether>
0.000

$$$$
VeraChem MOL file


 13 13  0  0  0  0  0  0  0  0999 V2000     
   20.7832   19.1850   21.6605 C   0  0  0  0  0  0  0  0  0  0  0  0
   20.7344   19.1498   20.5642 H   0  0  0  0  0  0  0  0  0  0  0  0
   21.8198   19.3818   21.9590 H   0  0  0  0  0  0  0  0  0  0  0  0
   20.0735   17.9945   22.3860 C   0  0  0  0  0  0  0  0  0  0  0  0
   20.3863   17.8400   23.4262 H   0  0  0  0  0  0  0  0  0  0  0  0
   20.0938   17.0312   21.8648 H   0  0  0  0  0  0  0  0  0  0  0  0
   18.7685   18.8303   22.2196 C   0  0  0  0  0  0  0  0  0  0  0  0
   18.2919   18.7217   21.2357 H   0  0  0  0  0  0  0  0  0  0  0  0
   19.6922   20.0802   22.3356 C   0  0  0  0  0  0  0  0  0  0  0  0
   19.9191   20.3836   23.3652 H   0  0  0  0  0  0  0  0  0  0  0  0
   19.3729   20.9625   21.7705 H   0  0  0  0  0  0  0  0  0  0  0  0
   17.8224   18.6827   23.2528 O   0  0  0  0  0  0  0  0  0  0  0  0
   17.4239   17.7910   23.1569 H   0  0  0  0  0  0  0  0  0  0  0  0
  1  2  1  0  0  0  0
  1  3  1  0  0  0  0
  1  4  1  0  0  0  0
  4  5  1  0  0  0  0
  4  6  1  0  0  0  0
  4  7  1  0  0  0  0
  7  8  1  0  0  0  0
  1  9  1  0  0  0  0
  7  9  1  0  0  0  0
  9 10  1  0  0  0  0
  9 11  1  0  0  0  0
  7 12  1  0  0  0  0
 12 13  1  0  0  0  0
M  END
> <VConfSearch Rank>
427

> <Conf_Id>
19

> <Delta U+W>
-0.011

> <U+W>
-3.142

> <U>
-0.154

> <W>
-2.989

> <W(PB)>
-4.588

> <W(SA)>
1.599

> <Valence>
6.334

> <Coulomb>
-7.439

> <VdW>
0.951

> <VdW6>
-2.120

> <VdW12>
3.072

> <Bond>
0.065

> <Angle>
0.930

> <Pdih>
5.339

> <Idih>
0.000

> <Tether>
0.000

$$$$
VeraChem MOL file


 13 13  0  0  0  0  0  0  0  0999 V2000     
   19.9885   19.9333   23.0661 C   0  0  0  0  0  0  0  0  0  0  0  0
   20.5105   20.8921   23.1668 H   0  0  0  0  0  0  0  0  0  0  0  0
   19.5591   19.6632   24.0397 H   0  0  0  0  0  0  0  0  0  0  0  0
   20.7885   18.7838   22.3677 C   0  0  0  0  0  0  0  0  0  0  0  0
   21.5046   19.1233   21.6096 H   0  0  0  0  0  0  0  0  0  0  0  0
   21.2930   18.0752   23.0339 H   0  0  0  0  0  0  0  0  0  0  0  0
   19.4189   18.3117   21.7876 C   0  0  0  0  0  0  0  0  0  0  0  0
   19.4707   17.8982   20.7721 H   0  0  0  0  0  0  0  0  0  0  0  0
   18.9966   19.8124   21.8618 C   0  0  0  0  0  0  0  0  0  0  0  0
   17.9416   20.0035   22.0874 H   0  0  0  0  0  0  0  0  0  0  0  0
   19.2782   20.4020   20.9809 H   0  0  0  0  0  0  0  0  0  0  0  0
   18.6852   17.4425   22.6269 O   0  0  0  0  0  0  0  0  0  0  0  0
   17.7863   17.3584   22.2435 H   0  0  0  0  0  0  0  0  0  0  0  0
  1  2  1  0  0  0  0
  1  3  1  0  0  0  0
  1  4  1  0  0  0  0
  4  5  1  0  0  0  0
  4  6  1  0  0  0  0
  4  7  1  0  0  0  0
  7  8  1  0  0  0  0
  1  9  1  0  0  0  0
  7  9  1  0  0  0  0
  9 10  1  0  0  0  0
  9 11  1  0  0  0  0
  7 12  1  0  0  0  0
 12 13  1  0  0  0  0
M  END
> <VConfSearch Rank>
428

> <Conf_Id>
20

> <Delta U+W>
1.030

> <U+W>
-2.101

> <U>
0.841

> <W>
-2.942

> <W(PB)>
-4.530

> <W(SA)>
1.587

> <Valence>
6.736

> <Coulomb>
-7.246

> <VdW>
1.352

> <VdW6>
-2.500

> <VdW12>
3.851

> <Bond>
0.063

> <Angle>
0.687

> <Pdih>
5.986

> <Idih>
0.000

> <Tether>
0.000

$$$$
VeraChem MOL file


 13 13  0  0  0  0  0  0  0  0999 V2000     
   20.4678   19.4177   21.2596 C   0  0  0  0  0  0  0  0  0  0  0  0
   19.9699   20.0005   20.4735 H   0  0  0  0  0  0  0  0  0  0  0  0
   21.5390   19.3651   21.0310 H   0  0  0  0  0  0  0  0  0  0  0  0
   19.7719   18.0604   21.6075 C   0  0  0  0  0  0  0  0  0  0  0  0
   19.2651   17.5524   20.7797 H   0  0  0  0  0  0  0  0  0  0  0  0
   20.4138   17.3365   22.1246 H   0  0  0  0  0  0  0  0  0  0  0  0
   18.8579   18.9094   22.5418 C   0  0  0  0  0  0  0  0  0  0  0  0
   18.0152   19.3874   22.0239 H   0  0  0  0  0  0  0  0  0  0  0  0
   20.0967   19.8383   22.7200 C   0  0  0  0  0  0  0  0  0  0  0  0
   20.8111   19.5117   23.4857 H   0  0  0  0  0  0  0  0  0  0  0  0
   19.8766   20.9003   22.8747 H   0  0  0  0  0  0  0  0  0  0  0  0
   18.4170   18.2590   23.7099 O   0  0  0  0  0  0  0  0  0  0  0  0
   19.2066   17.8542   24.1263 H   0  0  0  0  0  0  0  0  0  0  0  0
  1  2  1  0  0  0  0
  1  3  1  0  0  0  0
  1  4  1  0  0  0  0
  4  5  1  0  0  0  0
  4  6  1  0  0  0  0
  4  7  1  0  0  0  0
  7  8  1  0  0  0  0
  1  9  1  0  0  0  0
  7  9  1  0  0  0  0
  9 10  1  0  0  0  0
  9 11  1  0  0  0  0
  7 12  1  0  0  0  0
 12 13  1  0  0  0  0
M  END
> <VConfSearch Rank>
429

> <Conf_Id>
24

> <Delta U+W>
0.356

> <U+W>
-2.775

> <U>
-0.184

> <W>
-2.591

> <W(PB)>
-4.184

> <W(SA)>
1.593

> <Valence>
6.840

> <Coulomb>
-7.916

> <VdW>
0.893

> <VdW6>
-2.167

> <VdW12>
3.060

> <Bond>
0.059

> <Angle>
0.918

> <Pdih>
5.862

> <Idih>
0.000

> <Tether>
0.000

$$$$
VeraChem MOL file


 13 13  0  0  0  0  0  0  0  0999 V2000     
   19.6198   18.6176   21.1434 C   0  0  0  0  0  0  0  0  0  0  0  0
   19.3417   17.7918   20.4777 H   0  0  0  0  0  0  0  0  0  0  0  0
   19.9763   19.4536   20.5282 H   0  0  0  0  0  0  0  0  0  0  0  0
   20.5477   18.2433   22.3471 C   0  0  0  0  0  0  0  0  0  0  0  0
   20.4137   17.2213   22.7221 H   0  0  0  0  0  0  0  0  0  0  0  0
   21.6191   18.4246   22.2060 H   0  0  0  0  0  0  0  0  0  0  0  0
   19.7744   19.3264   23.1612 C   0  0  0  0  0  0  0  0  0  0  0  0
   19.6196   19.0835   24.2203 H   0  0  0  0  0  0  0  0  0  0  0  0
   18.5634   19.0046   22.2317 C   0  0  0  0  0  0  0  0  0  0  0  0
   17.9428   18.1693   22.5784 H   0  0  0  0  0  0  0  0  0  0  0  0
   17.9076   19.8486   21.9901 H   0  0  0  0  0  0  0  0  0  0  0  0
   20.2843   20.6364   23.0364 O   0  0  0  0  0  0  0  0  0  0  0  0
   20.4016   20.7969   22.0773 H   0  0  0  0  0  0  0  0  0  0  0  0
  1  2  1  0  0  0  0
  1  3  1  0  0  0  0
  1  4  1  0  0  0  0
  4  5  1  0  0  0  0
  4  6  1  0  0  0  0
  4  7  1  0  0  0  0
  7  8  1  0  0  0  0
  1  9  1  0  0  0  0
  7  9  1  0  0  0  0
  9 10  1  0  0  0  0
  9 11  1  0  0  0  0
  7 12  1  0  0  0  0
 12 13  1  0  0  0  0
M  END
> <VConfSearch Rank>
430

> <Conf_Id>
44

> <Delta U+W>
0.823

> <U+W>
-2.308

> <U>
0.039

> <W>
-2.348

> <W(PB)>
-3.918

> <W(SA)>
1.571

> <Valence>
7.320

> <Coulomb>
-8.530

> <VdW>
1.249

> <VdW6>
-2.615

> <VdW12>
3.864

> <Bond>
0.056

> <Angle>
0.694

> <Pdih>
6.570

> <Idih>
0.000

> <Tether>
0.000

$$$$
VeraChem MOL file


 13 13  0  0  0  0  0  0  0  0999 V2000     
   19.2091   20.0185   23.0097 C   0  0  0  0  0  0  0  0  0  0  0  0
   18.1177   20.1311   22.9658 H   0  0  0  0  0  0  0  0  0  0  0  0
   19.6068   20.7390   23.7342 H   0  0  0  0  0  0  0  0  0  0  0  0
   19.9196   19.9819   21.6164 C   0  0  0  0  0  0  0  0  0  0  0  0
   19.4597   20.5811   20.8230 H   0  0  0  0  0  0  0  0  0  0  0  0
   20.9950   20.1972   21.6430 H   0  0  0  0  0  0  0  0  0  0  0  0
   19.5650   18.4643   21.6114 C   0  0  0  0  0  0  0  0  0  0  0  0
   18.5433   18.2494   21.2693 H   0  0  0  0  0  0  0  0  0  0  0  0
   19.7095   18.5441   23.1612 C   0  0  0  0  0  0  0  0  0  0  0  0
   19.0633   17.8723   23.7367 H   0  0  0  0  0  0  0  0  0  0  0  0
   20.7386   18.4452   23.5288 H   0  0  0  0  0  0  0  0  0  0  0  0
   20.4960   17.6305   20.9614 O   0  0  0  0  0  0  0  0  0  0  0  0
   20.2489   16.7032   21.1672 H   0  0  0  0  0  0  0  0  0  0  0  0
  1  2  1  0  0  0  0
  1  3  1  0  0  0  0
  1  4  1  0  0  0  0
  4  5  1  0  0  0  0
  4  6  1  0  0  0  0
  4  7  1  0  0  0  0
  7  8  1  0  0  0  0
  1  9  1  0  0  0  0
  7  9  1  0  0  0  0
  9 10  1  0  0  0  0
  9 11  1  0  0  0  0
  7 12  1  0  0  0  0
 12 13  1  0  0  0  0
M  END
> <VConfSearch Rank>
431

> <Conf_Id>
22

> <Delta U+W>
0.000

> <U+W>
-3.131

> <U>
-0.154

> <W>
-2.978

> <W(PB)>
-4.579

> <W(SA)>
1.601

> <Valence>
6.333

> <Coulomb>
-7.439

> <VdW>
0.952

> <VdW6>
-2.120

> <VdW12>
3.072

> <Bond>
0.065

> <Angle>
0.931

> <Pdih>
5.338

> <Idih>
0.000

> <Tether>
0.000

$$$$
VeraChem MOL file


 13 13  0  0  0  0  0  0  0  0999 V2000     
   18.3455   18.6221   22.2177 C   0  0  0  0  0  0  0  0  0  0  0  0
   18.1318   17.5970   22.5480 H   0  0  0  0  0  0  0  0  0  0  0  0
   17.4060   19.0920   21.9032 H   0  0  0  0  0  0  0  0  0  0  0  0
   19.5457   18.7524   21.2227 C   0  0  0  0  0  0  0  0  0  0  0  0
   19.5623   19.6847   20.6446 H   0  0  0  0  0  0  0  0  0  0  0  0
   19.6986   17.9104   20.5387 H   0  0  0  0  0  0  0  0  0  0  0  0
   20.4429   18.7646   22.4971 C   0  0  0  0  0  0  0  0  0  0  0  0
   20.6724   17.7648   22.8905 H   0  0  0  0  0  0  0  0  0  0  0  0
   19.2347   19.4541   23.1998 C   0  0  0  0  0  0  0  0  0  0  0  0
   19.1852   20.5406   23.0564 H   0  0  0  0  0  0  0  0  0  0  0  0
   19.1145   19.2334   24.2660 H   0  0  0  0  0  0  0  0  0  0  0  0
   21.6115   19.5459   22.4041 O   0  0  0  0  0  0  0  0  0  0  0  0
   22.2310   19.0724   21.8082 H   0  0  0  0  0  0  0  0  0  0  0  0
  1  2  1  0  0  0  0
  1  3  1  0  0  0  0
  1  4  1  0  0  0  0
  4  5  1  0  0  0  0
  4  6  1  0  0  0  0
  4  7  1  0  0  0  0
  7  8  1  0  0  0  0
  1  9  1  0  0  0  0
  7  9  1  0  0  0  0
  9 10  1  0  0  0  0
  9 11  1  0  0  0  0
  7 12  1  0  0  0  0
 12 13  1  0  0  0  0
M  END
> <VConfSearch Rank>
432

> <Conf_Id>
19

> <Delta U+W>
-0.011

> <U+W>
-3.142

> <U>
-0.154

> <W>
-2.989

> <W(PB)>
-4.588

> <W(SA)>
1.599

> <Valence>
6.334

> <Coulomb>
-7.439

> <VdW>
0.951

> <VdW6>
-2.120

> <VdW12>
3.072

> <Bond>
0.065

> <Angle>
0.930

> <Pdih>
5.339

> <Idih>
0.000

> <Tether>
0.000

$$$$
VeraChem MOL file


 13 13  0  0  0  0  0  0  0  0999 V2000     
   19.0956   19.9626   22.9155 C   0  0  0  0  0  0  0  0  0  0  0  0
   19.2665   20.8271   23.5678 H   0  0  0  0  0  0  0  0  0  0  0  0
   18.0241   19.9040   22.6838 H   0  0  0  0  0  0  0  0  0  0  0  0
   19.7343   18.6119   23.3810 C   0  0  0  0  0  0  0  0  0  0  0  0
   20.6673   18.7210   23.9470 H   0  0  0  0  0  0  0  0  0  0  0  0
   19.0724   17.9287   23.9246 H   0  0  0  0  0  0  0  0  0  0  0  0
   19.9386   18.2961   21.8664 C   0  0  0  0  0  0  0  0  0  0  0  0
   20.8582   17.7436   21.6346 H   0  0  0  0  0  0  0  0  0  0  0  0
   20.0376   19.8416   21.6718 C   0  0  0  0  0  0  0  0  0  0  0  0
   19.6406   20.2330   20.7287 H   0  0  0  0  0  0  0  0  0  0  0  0
   21.0443   20.2495   21.8236 H   0  0  0  0  0  0  0  0  0  0  0  0
   18.8335   17.6839   21.2322 O   0  0  0  0  0  0  0  0  0  0  0  0
   19.0085   17.6967   20.2671 H   0  0  0  0  0  0  0  0  0  0  0  0
  1  2  1  0  0  0  0
  1  3  1  0  0  0  0
  1  4  1  0  0  0  0
  4  5  1  0  0  0  0
  4  6  1  0  0  0  0
  4  7  1  0  0  0  0
  7  8  1  0  0  0  0
  1  9  1  0  0  0  0
  7  9  1  0  0  0  0
  9 10  1  0  0  0  0
  9 11  1  0  0  0  0
  7 12  1  0  0  0  0
 12 13  1  0  0  0  0
M  END
> <VConfSearch Rank>
433

> <Conf_Id>
20

> <Delta U+W>
1.030

> <U+W>
-2.101

> <U>
0.841

> <W>
-2.942

> <W(PB)>
-4.530

> <W(SA)>
1.587

> <Valence>
6.736

> <Coulomb>
-7.246

> <VdW>
1.352

> <VdW6>
-2.500

> <VdW12>
3.851

> <Bond>
0.063

> <Angle>
0.687

> <Pdih>
5.986

> <Idih>
0.000

> <Tether>
0.000

$$$$
VeraChem MOL file


 13 13  0  0  0  0  0  0  0  0999 V2000     
   19.9886   19.4983   21.0775 C   0  0  0  0  0  0  0  0  0  0  0  0
   19.3877   20.3698   20.7860 H   0  0  0  0  0  0  0  0  0  0  0  0
   20.7043   19.2824   20.2753 H   0  0  0  0  0  0  0  0  0  0  0  0
   19.1608   18.2805   21.6060 C   0  0  0  0  0  0  0  0  0  0  0  0
   18.1676   18.1444   21.1641 H   0  0  0  0  0  0  0  0  0  0  0  0
   19.6918   17.3209   21.5807 H   0  0  0  0  0  0  0  0  0  0  0  0
   19.1949   19.0115   22.9821 C   0  0  0  0  0  0  0  0  0  0  0  0
   18.4222   19.7843   23.0937 H   0  0  0  0  0  0  0  0  0  0  0  0
   20.5783   19.5651   22.5250 C   0  0  0  0  0  0  0  0  0  0  0  0
   21.4261   18.8926   22.7051 H   0  0  0  0  0  0  0  0  0  0  0  0
   20.8369   20.5634   22.8947 H   0  0  0  0  0  0  0  0  0  0  0  0
   19.2231   18.1721   24.1119 O   0  0  0  0  0  0  0  0  0  0  0  0
   19.9264   17.5075   23.9561 H   0  0  0  0  0  0  0  0  0  0  0  0
  1  2  1  0  0  0  0
  1  3  1  0  0  0  0
  1  4  1  0  0  0  0
  4  5  1  0  0  0  0
  4  6  1  0  0  0  0
  4  7  1  0  0  0  0
  7  8  1  0  0  0  0
  1  9  1  0  0  0  0
  7  9  1  0  0  0  0
  9 10  1  0  0  0  0
  9 11  1  0  0  0  0
  7 12  1  0  0  0  0
 12 13  1  0  0  0  0
M  END
> <VConfSearch Rank>
434

> <Conf_Id>
24

> <Delta U+W>
0.356

> <U+W>
-2.775

> <U>
-0.184

> <W>
-2.591

> <W(PB)>
-4.184

> <W(SA)>
1.593

> <Valence>
6.840

> <Coulomb>
-7.916

> <VdW>
0.893

> <VdW6>
-2.167

> <VdW12>
3.060

> <Bond>
0.059

> <Angle>
0.918

> <Pdih>
5.862

> <Idih>
0.000

> <Tether>
0.000

$$$$
VeraChem MOL file


 13 13  0  0  0  0  0  0  0  0999 V2000     
   18.8342   19.2936   21.5583 C   0  0  0  0  0  0  0  0  0  0  0  0
   18.4805   20.0187   20.8156 H   0  0  0  0  0  0  0  0  0  0  0  0
   18.0243   18.5810   21.7598 H   0  0  0  0  0  0  0  0  0  0  0  0
   19.5135   19.8961   22.8332 C   0  0  0  0  0  0  0  0  0  0  0  0
   20.0335   20.8468   22.6635 H   0  0  0  0  0  0  0  0  0  0  0  0
   18.8745   20.0018   23.7171 H   0  0  0  0  0  0  0  0  0  0  0  0
   20.4483   18.6471   22.8132 C   0  0  0  0  0  0  0  0  0  0  0  0
   21.4812   18.8396   23.1304 H   0  0  0  0  0  0  0  0  0  0  0  0
   20.2276   18.6420   21.2687 C   0  0  0  0  0  0  0  0  0  0  0  0
   20.9227   19.2852   20.7154 H   0  0  0  0  0  0  0  0  0  0  0  0
   20.2101   17.6561   20.7908 H   0  0  0  0  0  0  0  0  0  0  0  0
   19.9394   17.5165   23.4872 O   0  0  0  0  0  0  0  0  0  0  0  0
   19.0220   17.3937   23.1670 H   0  0  0  0  0  0  0  0  0  0  0  0
  1  2  1  0  0  0  0
  1  3  1  0  0  0  0
  1  4  1  0  0  0  0
  4  5  1  0  0  0  0
  4  6  1  0  0  0  0
  4  7  1  0  0  0  0
  7  8  1  0  0  0  0
  1  9  1  0  0  0  0
  7  9  1  0  0  0  0
  9 10  1  0  0  0  0
  9 11  1  0  0  0  0
  7 12  1  0  0  0  0
 12 13  1  0  0  0  0
M  END
> <VConfSearch Rank>
435

> <Conf_Id>
44

> <Delta U+W>
0.823

> <U+W>
-2.308

> <U>
0.039

> <W>
-2.348

> <W(PB)>
-3.918

> <W(SA)>
1.571

> <Valence>
7.320

> <Coulomb>
-8.530

> <VdW>
1.249

> <VdW6>
-2.615

> <VdW12>
3.864

> <Bond>
0.056

> <Angle>
0.694

> <Pdih>
6.570

> <Idih>
0.000

> <Tether>
0.000

$$$$
VeraChem MOL file


 13 13  0  0  0  0  0  0  0  0999 V2000     
   19.2489   20.2445   22.5986 C   0  0  0  0  0  0  0  0  0  0  0  0
   19.5983   20.5563   23.5917 H   0  0  0  0  0  0  0  0  0  0  0  0
   18.6786   21.0683   22.1532 H   0  0  0  0  0  0  0  0  0  0  0  0
   18.5684   18.8364   22.5565 C   0  0  0  0  0  0  0  0  0  0  0  0
   18.0128   18.5408   23.4531 H   0  0  0  0  0  0  0  0  0  0  0  0
   17.9395   18.6558   21.6760 H   0  0  0  0  0  0  0  0  0  0  0  0
   20.0174   18.2742   22.4412 C   0  0  0  0  0  0  0  0  0  0  0  0
   20.5299   18.1692   23.4073 H   0  0  0  0  0  0  0  0  0  0  0  0
   20.3476   19.5996   21.6907 C   0  0  0  0  0  0  0  0  0  0  0  0
   21.3661   19.9816   21.8210 H   0  0  0  0  0  0  0  0  0  0  0  0
   20.1088   19.5889   20.6199 H   0  0  0  0  0  0  0  0  0  0  0  0
   20.1482   17.0991   21.6752 O   0  0  0  0  0  0  0  0  0  0  0  0
   21.1082   16.9433   21.5437 H   0  0  0  0  0  0  0  0  0  0  0  0
  1  2  1  0  0  0  0
  1  3  1  0  0  0  0
  1  4  1  0  0  0  0
  4  5  1  0  0  0  0
  4  6  1  0  0  0  0
  4  7  1  0  0  0  0
  7  8  1  0  0  0  0
  1  9  1  0  0  0  0
  7  9  1  0  0  0  0
  9 10  1  0  0  0  0
  9 11  1  0  0  0  0
  7 12  1  0  0  0  0
 12 13  1  0  0  0  0
M  END
> <VConfSearch Rank>
436

> <Conf_Id>
22

> <Delta U+W>
0.000

> <U+W>
-3.131

> <U>
-0.154

> <W>
-2.978

> <W(PB)>
-4.579

> <W(SA)>
1.601

> <Valence>
6.333

> <Coulomb>
-7.439

> <VdW>
0.952

> <VdW6>
-2.120

> <VdW12>
3.072

> <Bond>
0.065

> <Angle>
0.931

> <Pdih>
5.338

> <Idih>
0.000

> <Tether>
0.000

$$$$
VeraChem MOL file


 13 13  0  0  0  0  0  0  0  0999 V2000     
   18.9438   18.8676   23.3720 C   0  0  0  0  0  0  0  0  0  0  0  0
   19.3786   18.1842   24.1132 H   0  0  0  0  0  0  0  0  0  0  0  0
   18.0106   19.2765   23.7772 H   0  0  0  0  0  0  0  0  0  0  0  0
   18.8688   18.2948   21.9182 C   0  0  0  0  0  0  0  0  0  0  0  0
   18.1611   18.8116   21.2581 H   0  0  0  0  0  0  0  0  0  0  0  0
   18.7061   17.2147   21.8332 H   0  0  0  0  0  0  0  0  0  0  0  0
   20.3464   18.7724   21.7841 C   0  0  0  0  0  0  0  0  0  0  0  0
   21.0820   18.0666   22.1937 H   0  0  0  0  0  0  0  0  0  0  0  0
   19.9471   19.9082   22.7737 C   0  0  0  0  0  0  0  0  0  0  0  0
   19.4779   20.7795   22.3000 H   0  0  0  0  0  0  0  0  0  0  0  0
   20.7402   20.2563   23.4443 H   0  0  0  0  0  0  0  0  0  0  0  0
   20.7269   19.2009   20.4972 O   0  0  0  0  0  0  0  0  0  0  0  0
   20.7925   18.4012   19.9321 H   0  0  0  0  0  0  0  0  0  0  0  0
  1  2  1  0  0  0  0
  1  3  1  0  0  0  0
  1  4  1  0  0  0  0
  4  5  1  0  0  0  0
  4  6  1  0  0  0  0
  4  7  1  0  0  0  0
  7  8  1  0  0  0  0
  1  9  1  0  0  0  0
  7  9  1  0  0  0  0
  9 10  1  0  0  0  0
  9 11  1  0  0  0  0
  7 12  1  0  0  0  0
 12 13  1  0  0  0  0
M  END
> <VConfSearch Rank>
437

> <Conf_Id>
19

> <Delta U+W>
-0.011

> <U+W>
-3.142

> <U>
-0.154

> <W>
-2.989

> <W(PB)>
-4.588

> <W(SA)>
1.599

> <Valence>
6.334

> <Coulomb>
-7.439

> <VdW>
0.951

> <VdW6>
-2.120

> <VdW12>
3.072

> <Bond>
0.065

> <Angle>
0.930

> <Pdih>
5.339

> <Idih>
0.000

> <Tether>
0.000

$$$$
VeraChem MOL file


 13 13  0  0  0  0  0  0  0  0999 V2000     
   20.4794   18.6796   21.4677 C   0  0  0  0  0  0  0  0  0  0  0  0
   21.4989   18.2962   21.3431 H   0  0  0  0  0  0  0  0  0  0  0  0
   19.9849   18.6874   20.4876 H   0  0  0  0  0  0  0  0  0  0  0  0
   20.3389   20.0119   22.2766 C   0  0  0  0  0  0  0  0  0  0  0  0
   21.0985   20.1540   23.0548 H   0  0  0  0  0  0  0  0  0  0  0  0
   20.2693   20.9302   21.6830 H   0  0  0  0  0  0  0  0  0  0  0  0
   18.9852   19.4396   22.8014 C   0  0  0  0  0  0  0  0  0  0  0  0
   18.7491   19.7041   23.8402 H   0  0  0  0  0  0  0  0  0  0  0  0
   19.6362   18.0331   22.6166 C   0  0  0  0  0  0  0  0  0  0  0  0
   18.9580   17.2258   22.3188 H   0  0  0  0  0  0  0  0  0  0  0  0
   20.2259   17.6949   23.4773 H   0  0  0  0  0  0  0  0  0  0  0  0
   17.8698   19.6951   21.9715 O   0  0  0  0  0  0  0  0  0  0  0  0
   17.1275   19.1478   22.3056 H   0  0  0  0  0  0  0  0  0  0  0  0
  1  2  1  0  0  0  0
  1  3  1  0  0  0  0
  1  4  1  0  0  0  0
  4  5  1  0  0  0  0
  4  6  1  0  0  0  0
  4  7  1  0  0  0  0
  7  8  1  0  0  0  0
  1  9  1  0  0  0  0
  7  9  1  0  0  0  0
  9 10  1  0  0  0  0
  9 11  1  0  0  0  0
  7 12  1  0  0  0  0
 12 13  1  0  0  0  0
M  END
> <VConfSearch Rank>
438

> <Conf_Id>
20

> <Delta U+W>
1.030

> <U+W>
-2.101

> <U>
0.841

> <W>
-2.942

> <W(PB)>
-4.530

> <W(SA)>
1.587

> <Valence>
6.736

> <Coulomb>
-7.246

> <VdW>
1.352

> <VdW6>
-2.500

> <VdW12>
3.851

> <Bond>
0.063

> <Angle>
0.687

> <Pdih>
5.986

> <Idih>
0.000

> <Tether>
0.000

$$$$
VeraChem MOL file


 13 13  0  0  0  0  0  0  0  0999 V2000     
   20.8846   19.0518   22.7940 C   0  0  0  0  0  0  0  0  0  0  0  0
   21.1533   18.2858   23.5335 H   0  0  0  0  0  0  0  0  0  0  0  0
   21.7085   19.7717   22.7207 H   0  0  0  0  0  0  0  0  0  0  0  0
   19.4544   19.6601   22.9727 C   0  0  0  0  0  0  0  0  0  0  0  0
   19.0862   19.7322   24.0020 H   0  0  0  0  0  0  0  0  0  0  0  0
   19.3030   20.6266   22.4763 H   0  0  0  0  0  0  0  0  0  0  0  0
   18.9609   18.4235   22.1625 C   0  0  0  0  0  0  0  0  0  0  0  0
   18.8223   17.5199   22.7717 H   0  0  0  0  0  0  0  0  0  0  0  0
   20.3399   18.4904   21.4392 C   0  0  0  0  0  0  0  0  0  0  0  0
   20.3864   19.1954   20.6001 H   0  0  0  0  0  0  0  0  0  0  0  0
   20.7538   17.5294   21.1143 H   0  0  0  0  0  0  0  0  0  0  0  0
   17.8376   18.6463   21.3438 O   0  0  0  0  0  0  0  0  0  0  0  0
   18.0178   19.4597   20.8274 H   0  0  0  0  0  0  0  0  0  0  0  0
  1  2  1  0  0  0  0
  1  3  1  0  0  0  0
  1  4  1  0  0  0  0
  4  5  1  0  0  0  0
  4  6  1  0  0  0  0
  4  7  1  0  0  0  0
  7  8  1  0  0  0  0
  1  9  1  0  0  0  0
  7  9  1  0  0  0  0
  9 10  1  0  0  0  0
  9 11  1  0  0  0  0
  7 12  1  0  0  0  0
 12 13  1  0  0  0  0
M  END
> <VConfSearch Rank>
439

> <Conf_Id>
24

> <Delta U+W>
0.356

> <U+W>
-2.775

> <U>
-0.184

> <W>
-2.591

> <W(PB)>
-4.184

> <W(SA)>
1.593

> <Valence>
6.840

> <Coulomb>
-7.916

> <VdW>
0.893

> <VdW6>
-2.167

> <VdW12>
3.060

> <Bond>
0.059

> <Angle>
0.918

> <Pdih>
5.862

> <Idih>
0.000

> <Tether>
0.000

$$$$
VeraChem MOL file


 13 13  0  0  0  0  0  0  0  0999 V2000     
   20.6354   18.3882   22.0116 C   0  0  0  0  0  0  0  0  0  0  0  0
   21.4221   18.1539   21.2845 H   0  0  0  0  0  0  0  0  0  0  0  0
   20.8389   17.8301   22.9342 H   0  0  0  0  0  0  0  0  0  0  0  0
   19.1646   18.2798   21.4871 C   0  0  0  0  0  0  0  0  0  0  0  0
   19.0466   18.5011   20.4194 H   0  0  0  0  0  0  0  0  0  0  0  0
   18.6405   17.3433   21.7085 H   0  0  0  0  0  0  0  0  0  0  0  0
   18.8384   19.4821   22.4262 C   0  0  0  0  0  0  0  0  0  0  0  0
   18.0965   20.1876   22.0306 H   0  0  0  0  0  0  0  0  0  0  0  0
   20.3244   19.9085   22.2167 C   0  0  0  0  0  0  0  0  0  0  0  0
   20.4907   20.5293   21.3279 H   0  0  0  0  0  0  0  0  0  0  0  0
   20.8098   20.3898   23.0732 H   0  0  0  0  0  0  0  0  0  0  0  0
   18.5063   19.1252   23.7506 O   0  0  0  0  0  0  0  0  0  0  0  0
   19.1977   18.4991   24.0495 H   0  0  0  0  0  0  0  0  0  0  0  0
  1  2  1  0  0  0  0
  1  3  1  0  0  0  0
  1  4  1  0  0  0  0
  4  5  1  0  0  0  0
  4  6  1  0  0  0  0
  4  7  1  0  0  0  0
  7  8  1  0  0  0  0
  1  9  1  0  0  0  0
  7  9  1  0  0  0  0
  9 10  1  0  0  0  0
  9 11  1  0  0  0  0
  7 12  1  0  0  0  0
 12 13  1  0  0  0  0
M  END
> <VConfSearch Rank>
440

> <Conf_Id>
44

> <Delta U+W>
0.823

> <U+W>
-2.308

> <U>
0.039

> <W>
-2.348

> <W(PB)>
-3.918

> <W(SA)>
1.571

> <Valence>
7.320

> <Coulomb>
-8.530

> <VdW>
1.249

> <VdW6>
-2.615

> <VdW12>
3.864

> <Bond>
0.056

> <Angle>
0.694

> <Pdih>
6.570

> <Idih>
0.000

> <Tether>
0.000

$$$$
VeraChem MOL file


 13 13  0  0  0  0  0  0  0  0999 V2000     
   20.2841   17.9104   22.5279 C   0  0  0  0  0  0  0  0  0  0  0  0
   21.3131   18.0501   22.8845 H   0  0  0  0  0  0  0  0  0  0  0  0
   20.0452   16.8406   22.5570 H   0  0  0  0  0  0  0  0  0  0  0  0
   19.9477   18.6532   21.1928 C   0  0  0  0  0  0  0  0  0  0  0  0
   20.7695   18.7550   20.4757 H   0  0  0  0  0  0  0  0  0  0  0  0
   19.0640   18.2733   20.6652 H   0  0  0  0  0  0  0  0  0  0  0  0
   19.6770   19.8955   22.0940 C   0  0  0  0  0  0  0  0  0  0  0  0
   20.5838   20.4566   22.3587 H   0  0  0  0  0  0  0  0  0  0  0  0
   19.2306   18.8675   23.1771 C   0  0  0  0  0  0  0  0  0  0  0  0
   19.4183   19.1569   24.2169 H   0  0  0  0  0  0  0  0  0  0  0  0
   18.1898   18.5325   23.0861 H   0  0  0  0  0  0  0  0  0  0  0  0
   18.6674   20.7641   21.6349 O   0  0  0  0  0  0  0  0  0  0  0  0
   18.4822   21.4021   22.3573 H   0  0  0  0  0  0  0  0  0  0  0  0
  1  2  1  0  0  0  0
  1  3  1  0  0  0  0
  1  4  1  0  0  0  0
  4  5  1  0  0  0  0
  4  6  1  0  0  0  0
  4  7  1  0  0  0  0
  7  8  1  0  0  0  0
  1  9  1  0  0  0  0
  7  9  1  0  0  0  0
  9 10  1  0  0  0  0
  9 11  1  0  0  0  0
  7 12  1  0  0  0  0
 12 13  1  0  0  0  0
M  END
> <VConfSearch Rank>
441

> <Conf_Id>
22

> <Delta U+W>
0.000

> <U+W>
-3.131

> <U>
-0.154

> <W>
-2.978

> <W(PB)>
-4.579

> <W(SA)>
1.601

> <Valence>
6.333

> <Coulomb>
-7.439

> <VdW>
0.952

> <VdW6>
-2.120

> <VdW12>
3.072

> <Bond>
0.065

> <Angle>
0.931

> <Pdih>
5.338

> <Idih>
0.000

> <Tether>
0.000

$$$$
VeraChem MOL file


 13 13  0  0  0  0  0  0  0  0999 V2000     
   20.7246   18.2822   21.8886 C   0  0  0  0  0  0  0  0  0  0  0  0
   21.2037   18.6992   20.9929 H   0  0  0  0  0  0  0  0  0  0  0  0
   21.2854   17.3946   22.2048 H   0  0  0  0  0  0  0  0  0  0  0  0
   19.1730   18.1129   21.7823 C   0  0  0  0  0  0  0  0  0  0  0  0
   18.7374   17.4157   22.5090 H   0  0  0  0  0  0  0  0  0  0  0  0
   18.7808   17.8758   20.7872 H   0  0  0  0  0  0  0  0  0  0  0  0
   19.1028   19.6125   22.2012 C   0  0  0  0  0  0  0  0  0  0  0  0
   19.2420   20.3151   21.3681 H   0  0  0  0  0  0  0  0  0  0  0  0
   20.4059   19.3281   23.0074 C   0  0  0  0  0  0  0  0  0  0  0  0
   20.2396   18.8996   24.0035 H   0  0  0  0  0  0  0  0  0  0  0  0
   21.1033   20.1681   23.0971 H   0  0  0  0  0  0  0  0  0  0  0  0
   17.9816   19.9702   22.9754 O   0  0  0  0  0  0  0  0  0  0  0  0
   17.2019   19.9606   22.3795 H   0  0  0  0  0  0  0  0  0  0  0  0
  1  2  1  0  0  0  0
  1  3  1  0  0  0  0
  1  4  1  0  0  0  0
  4  5  1  0  0  0  0
  4  6  1  0  0  0  0
  4  7  1  0  0  0  0
  7  8  1  0  0  0  0
  1  9  1  0  0  0  0
  7  9  1  0  0  0  0
  9 10  1  0  0  0  0
  9 11  1  0  0  0  0
  7 12  1  0  0  0  0
 12 13  1  0  0  0  0
M  END
> <VConfSearch Rank>
442

> <Conf_Id>
19

> <Delta U+W>
-0.011

> <U+W>
-3.142

> <U>
-0.154

> <W>
-2.989

> <W(PB)>
-4.588

> <W(SA)>
1.599

> <Valence>
6.334

> <Coulomb>
-7.439

> <VdW>
0.951

> <VdW6>
-2.120

> <VdW12>
3.072

> <Bond>
0.065

> <Angle>
0.930

> <Pdih>
5.339

> <Idih>
0.000

> <Tether>
0.000

$$$$
VeraChem MOL file


 13 13  0  0  0  0  0  0  0  0999 V2000     
   20.8323   19.2058   22.0460 C   0  0  0  0  0  0  0  0  0  0  0  0
   21.7747   19.6271   22.4152 H   0  0  0  0  0  0  0  0  0  0  0  0
   21.0356   18.6451   21.1243 H   0  0  0  0  0  0  0  0  0  0  0  0
   19.6255   20.1975   21.9501 C   0  0  0  0  0  0  0  0  0  0  0  0
   19.6349   20.9993   22.6982 H   0  0  0  0  0  0  0  0  0  0  0  0
   19.4435   20.6399   20.9644 H   0  0  0  0  0  0  0  0  0  0  0  0
   18.7202   18.9831   22.3257 C   0  0  0  0  0  0  0  0  0  0  0  0
   17.8596   19.2332   22.9594 H   0  0  0  0  0  0  0  0  0  0  0  0
   19.9631   18.4376   23.0963 C   0  0  0  0  0  0  0  0  0  0  0  0
   20.0787   17.3482   23.1108 H   0  0  0  0  0  0  0  0  0  0  0  0
   20.0549   18.8127   24.1229 H   0  0  0  0  0  0  0  0  0  0  0  0
   18.3016   18.1923   21.2314 O   0  0  0  0  0  0  0  0  0  0  0  0
   17.8971   17.3779   21.5992 H   0  0  0  0  0  0  0  0  0  0  0  0
  1  2  1  0  0  0  0
  1  3  1  0  0  0  0
  1  4  1  0  0  0  0
  4  5  1  0  0  0  0
  4  6  1  0  0  0  0
  4  7  1  0  0  0  0
  7  8  1  0  0  0  0
  1  9  1  0  0  0  0
  7  9  1  0  0  0  0
  9 10  1  0  0  0  0
  9 11  1  0  0  0  0
  7 12  1  0  0  0  0
 12 13  1  0  0  0  0
M  END
> <VConfSearch Rank>
443

> <Conf_Id>
20

> <Delta U+W>
1.030

> <U+W>
-2.101

> <U>
0.841

> <W>
-2.942

> <W(PB)>
-4.530

> <W(SA)>
1.587

> <Valence>
6.736

> <Coulomb>
-7.246

> <VdW>
1.352

> <VdW6>
-2.500

> <VdW12>
3.851

> <Bond>
0.063

> <Angle>
0.687

> <Pdih>
5.986

> <Idih>
0.000

> <Tether>
0.000

$$$$
VeraChem MOL file


 13 13  0  0  0  0  0  0  0  0999 V2000     
   20.9607   18.6941   22.5315 C   0  0  0  0  0  0  0  0  0  0  0  0
   21.7255   19.4490   22.3057 H   0  0  0  0  0  0  0  0  0  0  0  0
   21.4470   17.8358   23.0104 H   0  0  0  0  0  0  0  0  0  0  0  0
   19.9971   18.3638   21.3442 C   0  0  0  0  0  0  0  0  0  0  0  0
   20.4296   18.4293   20.3398 H   0  0  0  0  0  0  0  0  0  0  0  0
   19.4671   17.4079   21.4376 H   0  0  0  0  0  0  0  0  0  0  0  0
   19.1880   19.6098   21.8153 C   0  0  0  0  0  0  0  0  0  0  0  0
   19.5801   20.5633   21.4360 H   0  0  0  0  0  0  0  0  0  0  0  0
   19.6853   19.2490   23.2476 C   0  0  0  0  0  0  0  0  0  0  0  0
   19.0856   18.4910   23.7664 H   0  0  0  0  0  0  0  0  0  0  0  0
   19.8425   20.0964   23.9241 H   0  0  0  0  0  0  0  0  0  0  0  0
   17.7956   19.5347   21.6221 O   0  0  0  0  0  0  0  0  0  0  0  0
   17.5046   18.6687   21.9773 H   0  0  0  0  0  0  0  0  0  0  0  0
  1  2  1  0  0  0  0
  1  3  1  0  0  0  0
  1  4  1  0  0  0  0
  4  5  1  0  0  0  0
  4  6  1  0  0  0  0
  4  7  1  0  0  0  0
  7  8  1  0  0  0  0
  1  9  1  0  0  0  0
  7  9  1  0  0  0  0
  9 10  1  0  0  0  0
  9 11  1  0  0  0  0
  7 12  1  0  0  0  0
 12 13  1  0  0  0  0
M  END
> <VConfSearch Rank>
444

> <Conf_Id>
24

> <Delta U+W>
0.356

> <U+W>
-2.775

> <U>
-0.184

> <W>
-2.591

> <W(PB)>
-4.184

> <W(SA)>
1.593

> <Valence>
6.840

> <Coulomb>
-7.916

> <VdW>
0.893

> <VdW6>
-2.167

> <VdW12>
3.060

> <Bond>
0.059

> <Angle>
0.918

> <Pdih>
5.862

> <Idih>
0.000

> <Tether>
0.000

$$$$
VeraChem MOL file


 13 13  0  0  0  0  0  0  0  0999 V2000     
   19.0882   19.9152   22.1218 C   0  0  0  0  0  0  0  0  0  0  0  0
   18.1657   20.3705   21.7422 H   0  0  0  0  0  0  0  0  0  0  0  0
   19.6744   20.6917   22.6294 H   0  0  0  0  0  0  0  0  0  0  0  0
   19.8931   19.0456   21.0990 C   0  0  0  0  0  0  0  0  0  0  0  0
   19.2750   18.5487   20.3413 H   0  0  0  0  0  0  0  0  0  0  0  0
   20.7293   19.5427   20.5948 H   0  0  0  0  0  0  0  0  0  0  0  0
   20.2701   18.1359   22.3091 C   0  0  0  0  0  0  0  0  0  0  0  0
   20.3371   17.0653   22.0773 H   0  0  0  0  0  0  0  0  0  0  0  0
   18.9128   18.5875   22.9319 C   0  0  0  0  0  0  0  0  0  0  0  0
   18.0544   17.9783   22.6236 H   0  0  0  0  0  0  0  0  0  0  0  0
   18.8958   18.6858   24.0231 H   0  0  0  0  0  0  0  0  0  0  0  0
   21.4151   18.5472   23.0243 O   0  0  0  0  0  0  0  0  0  0  0  0
   21.3009   19.5036   23.2022 H   0  0  0  0  0  0  0  0  0  0  0  0
  1  2  1  0  0  0  0
  1  3  1  0  0  0  0
  1  4  1  0  0  0  0
  4  5  1  0  0  0  0
  4  6  1  0  0  0  0
  4  7  1  0  0  0  0
  7  8  1  0  0  0  0
  1  9  1  0  0  0  0
  7  9  1  0  0  0  0
  9 10  1  0  0  0  0
  9 11  1  0  0  0  0
  7 12  1  0  0  0  0
 12 13  1  0  0  0  0
M  END
> <VConfSearch Rank>
445

> <Conf_Id>
44

> <Delta U+W>
0.823

> <U+W>
-2.308

> <U>
0.039

> <W>
-2.348

> <W(PB)>
-3.918

> <W(SA)>
1.571

> <Valence>
7.320

> <Coulomb>
-8.530

> <VdW>
1.249

> <VdW6>
-2.615

> <VdW12>
3.864

> <Bond>
0.056

> <Angle>
0.694

> <Pdih>
6.570

> <Idih>
0.000

> <Tether>
0.000

$$$$
VeraChem MOL file


 13 13  0  0  0  0  0  0  0  0999 V2000     
   20.5750   20.0002   22.2212 C   0  0  0  0  0  0  0  0  0  0  0  0
   21.3241   19.8694   21.4292 H   0  0  0  0  0  0  0  0  0  0  0  0
   20.7769   20.9437   22.7422 H   0  0  0  0  0  0  0  0  0  0  0  0
   20.3584   18.7459   23.1308 C   0  0  0  0  0  0  0  0  0  0  0  0
   21.2380   18.1164   23.3040 H   0  0  0  0  0  0  0  0  0  0  0  0
   19.8783   18.9545   24.0949 H   0  0  0  0  0  0  0  0  0  0  0  0
   19.3842   18.2573   22.0167 C   0  0  0  0  0  0  0  0  0  0  0  0
   19.8863   17.7552   21.1784 H   0  0  0  0  0  0  0  0  0  0  0  0
   19.0957   19.7686   21.7678 C   0  0  0  0  0  0  0  0  0  0  0  0
   18.8589   20.0461   20.7348 H   0  0  0  0  0  0  0  0  0  0  0  0
   18.3393   20.2038   22.4328 H   0  0  0  0  0  0  0  0  0  0  0  0
   18.2851   17.5001   22.4675 O   0  0  0  0  0  0  0  0  0  0  0  0
   17.6724   17.3965   21.7078 H   0  0  0  0  0  0  0  0  0  0  0  0
  1  2  1  0  0  0  0
  1  3  1  0  0  0  0
  1  4  1  0  0  0  0
  4  5  1  0  0  0  0
  4  6  1  0  0  0  0
  4  7  1  0  0  0  0
  7  8  1  0  0  0  0
  1  9  1  0  0  0  0
  7  9  1  0  0  0  0
  9 10  1  0  0  0  0
  9 11  1  0  0  0  0
  7 12  1  0  0  0  0
 12 13  1  0  0  0  0
M  END
> <VConfSearch Rank>
446

> <Conf_Id>
22

> <Delta U+W>
0.000

> <U+W>
-3.131

> <U>
-0.154

> <W>
-2.978

> <W(PB)>
-4.579

> <W(SA)>
1.601

> <Valence>
6.333

> <Coulomb>
-7.439

> <VdW>
0.952

> <VdW6>
-2.120

> <VdW12>
3.072

> <Bond>
0.065

> <Angle>
0.931

> <Pdih>
5.338

> <Idih>
0.000

> <Tether>
0.000

$$$$
VeraChem MOL file


 13 13  0  0  0  0  0  0  0  0999 V2000     
   19.3826   18.9001   20.9499 C   0  0  0  0  0  0  0  0  0  0  0  0
   20.2710   19.0865   20.3323 H   0  0  0  0  0  0  0  0  0  0  0  0
   18.5132   18.7940   20.2901 H   0  0  0  0  0  0  0  0  0  0  0  0
   19.2109   19.8753   22.1611 C   0  0  0  0  0  0  0  0  0  0  0  0
   18.1960   19.9164   22.5758 H   0  0  0  0  0  0  0  0  0  0  0  0
   19.5725   20.8985   22.0113 H   0  0  0  0  0  0  0  0  0  0  0  0
   20.1801   18.9152   22.9149 C   0  0  0  0  0  0  0  0  0  0  0  0
   21.2430   19.1038   22.7103 H   0  0  0  0  0  0  0  0  0  0  0  0
   19.5615   17.7875   22.0349 C   0  0  0  0  0  0  0  0  0  0  0  0
   18.6246   17.3698   22.4240 H   0  0  0  0  0  0  0  0  0  0  0  0
   20.2341   16.9627   21.7755 H   0  0  0  0  0  0  0  0  0  0  0  0
   19.9512   18.7927   24.2995 O   0  0  0  0  0  0  0  0  0  0  0  0
   20.2414   19.6319   24.7174 H   0  0  0  0  0  0  0  0  0  0  0  0
  1  2  1  0  0  0  0
  1  3  1  0  0  0  0
  1  4  1  0  0  0  0
  4  5  1  0  0  0  0
  4  6  1  0  0  0  0
  4  7  1  0  0  0  0
  7  8  1  0  0  0  0
  1  9  1  0  0  0  0
  7  9  1  0  0  0  0
  9 10  1  0  0  0  0
  9 11  1  0  0  0  0
  7 12  1  0  0  0  0
 12 13  1  0  0  0  0
M  END
> <VConfSearch Rank>
447

> <Conf_Id>
19

> <Delta U+W>
-0.011

> <U+W>
-3.142

> <U>
-0.154

> <W>
-2.989

> <W(PB)>
-4.588

> <W(SA)>
1.599

> <Valence>
6.334

> <Coulomb>
-7.439

> <VdW>
0.951

> <VdW6>
-2.120

> <VdW12>
3.072

> <Bond>
0.065

> <Angle>
0.930

> <Pdih>
5.339

> <Idih>
0.000

> <Tether>
0.000

$$$$
VeraChem MOL file


 13 13  0  0  0  0  0  0  0  0999 V2000     
   20.1917   20.1481   22.1946 C   0  0  0  0  0  0  0  0  0  0  0  0
   21.1177   20.6659   21.9184 H   0  0  0  0  0  0  0  0  0  0  0  0
   19.4315   20.8989   22.4469 H   0  0  0  0  0  0  0  0  0  0  0  0
   20.3347   18.9920   23.2395 C   0  0  0  0  0  0  0  0  0  0  0  0
   21.2933   18.4606   23.2018 H   0  0  0  0  0  0  0  0  0  0  0  0
   20.1209   19.2557   24.2812 H   0  0  0  0  0  0  0  0  0  0  0  0
   19.1787   18.2808   22.4693 C   0  0  0  0  0  0  0  0  0  0  0  0
   19.2662   17.1877   22.4210 H   0  0  0  0  0  0  0  0  0  0  0  0
   19.7046   19.0352   21.2082 C   0  0  0  0  0  0  0  0  0  0  0  0
   18.9453   19.3385   20.4790 H   0  0  0  0  0  0  0  0  0  0  0  0
   20.5109   18.5145   20.6775 H   0  0  0  0  0  0  0  0  0  0  0  0
   17.8767   18.6441   22.8829 O   0  0  0  0  0  0  0  0  0  0  0  0
   17.2495   18.2776   22.2237 H   0  0  0  0  0  0  0  0  0  0  0  0
  1  2  1  0  0  0  0
  1  3  1  0  0  0  0
  1  4  1  0  0  0  0
  4  5  1  0  0  0  0
  4  6  1  0  0  0  0
  4  7  1  0  0  0  0
  7  8  1  0  0  0  0
  1  9  1  0  0  0  0
  7  9  1  0  0  0  0
  9 10  1  0  0  0  0
  9 11  1  0  0  0  0
  7 12  1  0  0  0  0
 12 13  1  0  0  0  0
M  END
> <VConfSearch Rank>
448

> <Conf_Id>
20

> <Delta U+W>
1.030

> <U+W>
-2.101

> <U>
0.841

> <W>
-2.942

> <W(PB)>
-4.530

> <W(SA)>
1.587

> <Valence>
6.736

> <Coulomb>
-7.246

> <VdW>
1.352

> <VdW6>
-2.500

> <VdW12>
3.851

> <Bond>
0.063

> <Angle>
0.687

> <Pdih>
5.986

> <Idih>
0.000

> <Tether>
0.000

$$$$
VeraChem MOL file


 13 13  0  0  0  0  0  0  0  0999 V2000     
   19.3331   17.8675   21.6711 C   0  0  0  0  0  0  0  0  0  0  0  0
   20.0443   17.0367   21.5737 H   0  0  0  0  0  0  0  0  0  0  0  0
   18.3687   17.5533   21.2544 H   0  0  0  0  0  0  0  0  0  0  0  0
   19.8740   19.2521   21.1836 C   0  0  0  0  0  0  0  0  0  0  0  0
   20.5824   19.2259   20.3483 H   0  0  0  0  0  0  0  0  0  0  0  0
   19.0973   19.9948   20.9632 H   0  0  0  0  0  0  0  0  0  0  0  0
   20.5059   19.3672   22.6036 C   0  0  0  0  0  0  0  0  0  0  0  0
   21.4702   18.8506   22.7038 H   0  0  0  0  0  0  0  0  0  0  0  0
   19.2870   18.5261   23.0894 C   0  0  0  0  0  0  0  0  0  0  0  0
   18.3792   19.1066   23.2950 H   0  0  0  0  0  0  0  0  0  0  0  0
   19.4771   17.8588   23.9373 H   0  0  0  0  0  0  0  0  0  0  0  0
   20.5863   20.6722   23.1255 O   0  0  0  0  0  0  0  0  0  0  0  0
   19.7031   21.0809   23.0091 H   0  0  0  0  0  0  0  0  0  0  0  0
  1  2  1  0  0  0  0
  1  3  1  0  0  0  0
  1  4  1  0  0  0  0
  4  5  1  0  0  0  0
  4  6  1  0  0  0  0
  4  7  1  0  0  0  0
  7  8  1  0  0  0  0
  1  9  1  0  0  0  0
  7  9  1  0  0  0  0
  9 10  1  0  0  0  0
  9 11  1  0  0  0  0
  7 12  1  0  0  0  0
 12 13  1  0  0  0  0
M  END
> <VConfSearch Rank>
449

> <Conf_Id>
24

> <Delta U+W>
0.356

> <U+W>
-2.775

> <U>
-0.184

> <W>
-2.591

> <W(PB)>
-4.184

> <W(SA)>
1.593

> <Valence>
6.840

> <Coulomb>
-7.916

> <VdW>
0.893

> <VdW6>
-2.167

> <VdW12>
3.060

> <Bond>
0.059

> <Angle>
0.918

> <Pdih>
5.862

> <Idih>
0.000

> <Tether>
0.000

$$$$
VeraChem MOL file


 13 13  0  0  0  0  0  0  0  0999 V2000     
   20.7773   19.1769   22.4290 C   0  0  0  0  0  0  0  0  0  0  0  0
   21.5069   19.9134   22.7864 H   0  0  0  0  0  0  0  0  0  0  0  0
   21.3126   18.2525   22.1776 H   0  0  0  0  0  0  0  0  0  0  0  0
   19.7795   19.6790   21.3324 C   0  0  0  0  0  0  0  0  0  0  0  0
   19.5367   20.7468   21.3950 H   0  0  0  0  0  0  0  0  0  0  0  0
   20.0420   19.4420   20.2952 H   0  0  0  0  0  0  0  0  0  0  0  0
   18.7214   18.7457   21.9982 C   0  0  0  0  0  0  0  0  0  0  0  0
   17.6959   19.1365   21.9959 H   0  0  0  0  0  0  0  0  0  0  0  0
   19.5087   18.9804   23.3246 C   0  0  0  0  0  0  0  0  0  0  0  0
   19.1995   19.8768   23.8757 H   0  0  0  0  0  0  0  0  0  0  0  0
   19.5354   18.1352   24.0215 H   0  0  0  0  0  0  0  0  0  0  0  0
   18.7311   17.4135   21.5324 O   0  0  0  0  0  0  0  0  0  0  0  0
   19.6650   17.1193   21.5562 H   0  0  0  0  0  0  0  0  0  0  0  0
  1  2  1  0  0  0  0
  1  3  1  0  0  0  0
  1  4  1  0  0  0  0
  4  5  1  0  0  0  0
  4  6  1  0  0  0  0
  4  7  1  0  0  0  0
  7  8  1  0  0  0  0
  1  9  1  0  0  0  0
  7  9  1  0  0  0  0
  9 10  1  0  0  0  0
  9 11  1  0  0  0  0
  7 12  1  0  0  0  0
 12 13  1  0  0  0  0
M  END
> <VConfSearch Rank>
450

> <Conf_Id>
44

> <Delta U+W>
0.823

> <U+W>
-2.308

> <U>
0.039

> <W>
-2.348

> <W(PB)>
-3.918

> <W(SA)>
1.571

> <Valence>
7.320

> <Coulomb>
-8.530

> <VdW>
1.249

> <VdW6>
-2.615

> <VdW12>
3.864

> <Bond>
0.056

> <Angle>
0.694

> <Pdih>
6.570

> <Idih>
0.000

> <Tether>
0.000

$$$$
VeraChem MOL file


 13 13  0  0  0  0  0  0  0  0999 V2000     
   19.0823   17.9158   22.6075 C   0  0  0  0  0  0  0  0  0  0  0  0
   19.2151   17.6742   23.6703 H   0  0  0  0  0  0  0  0  0  0  0  0
   18.4402   17.1525   22.1522 H   0  0  0  0  0  0  0  0  0  0  0  0
   20.4054   18.2467   21.8412 C   0  0  0  0  0  0  0  0  0  0  0  0
   21.3040   17.7178   22.1770 H   0  0  0  0  0  0  0  0  0  0  0  0
   20.3365   18.1673   20.7492 H   0  0  0  0  0  0  0  0  0  0  0  0
   20.2224   19.6915   22.3962 C   0  0  0  0  0  0  0  0  0  0  0  0
   20.5995   19.8238   23.4196 H   0  0  0  0  0  0  0  0  0  0  0  0
   18.6927   19.4031   22.3180 C   0  0  0  0  0  0  0  0  0  0  0  0
   18.0741   19.8958   23.0760 H   0  0  0  0  0  0  0  0  0  0  0  0
   18.2462   19.5758   21.3308 H   0  0  0  0  0  0  0  0  0  0  0  0
   20.6851   20.7227   21.5554 O   0  0  0  0  0  0  0  0  0  0  0  0
   20.3690   21.5709   21.9347 H   0  0  0  0  0  0  0  0  0  0  0  0
  1  2  1  0  0  0  0
  1  3  1  0  0  0  0
  1  4  1  0  0  0  0
  4  5  1  0  0  0  0
  4  6  1  0  0  0  0
  4  7  1  0  0  0  0
  7  8  1  0  0  0  0
  1  9  1  0  0  0  0
  7  9  1  0  0  0  0
  9 10  1  0  0  0  0
  9 11  1  0  0  0  0
  7 12  1  0  0  0  0
 12 13  1  0  0  0  0
M  END
> <VConfSearch Rank>
451

> <Conf_Id>
22

> <Delta U+W>
0.000

> <U+W>
-3.131

> <U>
-0.154

> <W>
-2.978

> <W(PB)>
-4.579

> <W(SA)>
1.601

> <Valence>
6.333

> <Coulomb>
-7.439

> <VdW>
0.952

> <VdW6>
-2.120

> <VdW12>
3.072

> <Bond>
0.065

> <Angle>
0.931

> <Pdih>
5.338

> <Idih>
0.000

> <Tether>
0.000

$$$$
VeraChem MOL file


 13 13  0  0  0  0  0  0  0  0999 V2000     
   18.4804   19.1959   22.8360 C   0  0  0  0  0  0  0  0  0  0  0  0
   18.4398   18.8689   23.8834 H   0  0  0  0  0  0  0  0  0  0  0  0
   17.5064   19.6191   22.5631 H   0  0  0  0  0  0  0  0  0  0  0  0
   19.0741   18.1422   21.8438 C   0  0  0  0  0  0  0  0  0  0  0  0
   18.8237   18.3138   20.7895 H   0  0  0  0  0  0  0  0  0  0  0  0
   18.8825   17.0909   22.0852 H   0  0  0  0  0  0  0  0  0  0  0  0
   20.4645   18.6969   22.2777 C   0  0  0  0  0  0  0  0  0  0  0  0
   20.8451   18.2642   23.2131 H   0  0  0  0  0  0  0  0  0  0  0  0
   19.7321   20.0592   22.4681 C   0  0  0  0  0  0  0  0  0  0  0  0
   19.6284   20.6516   21.5505 H   0  0  0  0  0  0  0  0  0  0  0  0
   20.1248   20.7044   23.2615 H   0  0  0  0  0  0  0  0  0  0  0  0
   21.4580   18.6816   21.2790 O   0  0  0  0  0  0  0  0  0  0  0  0
   21.7222   17.7458   21.1461 H   0  0  0  0  0  0  0  0  0  0  0  0
  1  2  1  0  0  0  0
  1  3  1  0  0  0  0
  1  4  1  0  0  0  0
  4  5  1  0  0  0  0
  4  6  1  0  0  0  0
  4  7  1  0  0  0  0
  7  8  1  0  0  0  0
  1  9  1  0  0  0  0
  7  9  1  0  0  0  0
  9 10  1  0  0  0  0
  9 11  1  0  0  0  0
  7 12  1  0  0  0  0
 12 13  1  0  0  0  0
M  END
> <VConfSearch Rank>
452

> <Conf_Id>
19

> <Delta U+W>
-0.011

> <U+W>
-3.142

> <U>
-0.154

> <W>
-2.989

> <W(PB)>
-4.588

> <W(SA)>
1.599

> <Valence>
6.334

> <Coulomb>
-7.439

> <VdW>
0.951

> <VdW6>
-2.120

> <VdW12>
3.072

> <Bond>
0.065

> <Angle>
0.930

> <Pdih>
5.339

> <Idih>
0.000

> <Tether>
0.000

$$$$
VeraChem MOL file


 13 13  0  0  0  0  0  0  0  0999 V2000     
   19.2258   19.5497   21.2285 C   0  0  0  0  0  0  0  0  0  0  0  0
   18.8170   20.4516   20.7581 H   0  0  0  0  0  0  0  0  0  0  0  0
   19.3970   18.7946   20.4501 H   0  0  0  0  0  0  0  0  0  0  0  0
   18.4606   19.0225   22.4876 C   0  0  0  0  0  0  0  0  0  0  0  0
   17.9736   19.8034   23.0841 H   0  0  0  0  0  0  0  0  0  0  0  0
   17.7401   18.2164   22.3103 H   0  0  0  0  0  0  0  0  0  0  0  0
   19.8545   18.5786   23.0313 C   0  0  0  0  0  0  0  0  0  0  0  0
   19.9735   18.6763   24.1181 H   0  0  0  0  0  0  0  0  0  0  0  0
   20.4327   19.7667   22.2007 C   0  0  0  0  0  0  0  0  0  0  0  0
   21.4289   19.6124   21.7716 H   0  0  0  0  0  0  0  0  0  0  0  0
   20.4239   20.7288   22.7273 H   0  0  0  0  0  0  0  0  0  0  0  0
   20.2754   17.2960   22.6120 O   0  0  0  0  0  0  0  0  0  0  0  0
   21.2187   17.2027   22.8644 H   0  0  0  0  0  0  0  0  0  0  0  0
  1  2  1  0  0  0  0
  1  3  1  0  0  0  0
  1  4  1  0  0  0  0
  4  5  1  0  0  0  0
  4  6  1  0  0  0  0
  4  7  1  0  0  0  0
  7  8  1  0  0  0  0
  1  9  1  0  0  0  0
  7  9  1  0  0  0  0
  9 10  1  0  0  0  0
  9 11  1  0  0  0  0
  7 12  1  0  0  0  0
 12 13  1  0  0  0  0
M  END
> <VConfSearch Rank>
453

> <Conf_Id>
20

> <Delta U+W>
1.030

> <U+W>
-2.101

> <U>
0.841

> <W>
-2.942

> <W(PB)>
-4.530

> <W(SA)>
1.587

> <Valence>
6.736

> <Coulomb>
-7.246

> <VdW>
1.352

> <VdW6>
-2.500

> <VdW12>
3.851

> <Bond>
0.063

> <Angle>
0.687

> <Pdih>
5.986

> <Idih>
0.000

> <Tether>
0.000

$$$$
VeraChem MOL file


 13 13  0  0  0  0  0  0  0  0999 V2000     
   20.5706   18.8133   23.1841 C   0  0  0  0  0  0  0  0  0  0  0  0
   21.5676   19.2622   23.0833 H   0  0  0  0  0  0  0  0  0  0  0  0
   20.5077   18.3158   24.1593 H   0  0  0  0  0  0  0  0  0  0  0  0
   20.1054   17.9701   21.9512 C   0  0  0  0  0  0  0  0  0  0  0  0
   20.8942   17.4466   21.3998 H   0  0  0  0  0  0  0  0  0  0  0  0
   19.2937   17.2626   22.1608 H   0  0  0  0  0  0  0  0  0  0  0  0
   19.6473   19.3320   21.3476 C   0  0  0  0  0  0  0  0  0  0  0  0
   20.4534   19.8936   20.8561 H   0  0  0  0  0  0  0  0  0  0  0  0
   19.3844   19.7665   22.8211 C   0  0  0  0  0  0  0  0  0  0  0  0
   18.4115   19.4605   23.2252 H   0  0  0  0  0  0  0  0  0  0  0  0
   19.5365   20.8296   23.0380 H   0  0  0  0  0  0  0  0  0  0  0  0
   18.5085   19.2748   20.5220 O   0  0  0  0  0  0  0  0  0  0  0  0
   17.8278   18.7654   21.0097 H   0  0  0  0  0  0  0  0  0  0  0  0
  1  2  1  0  0  0  0
  1  3  1  0  0  0  0
  1  4  1  0  0  0  0
  4  5  1  0  0  0  0
  4  6  1  0  0  0  0
  4  7  1  0  0  0  0
  7  8  1  0  0  0  0
  1  9  1  0  0  0  0
  7  9  1  0  0  0  0
  9 10  1  0  0  0  0
  9 11  1  0  0  0  0
  7 12  1  0  0  0  0
 12 13  1  0  0  0  0
M  END
> <VConfSearch Rank>
454

> <Conf_Id>
24

> <Delta U+W>
0.356

> <U+W>
-2.775

> <U>
-0.184

> <W>
-2.591

> <W(PB)>
-4.184

> <W(SA)>
1.593

> <Valence>
6.840

> <Coulomb>
-7.916

> <VdW>
0.893

> <VdW6>
-2.167

> <VdW12>
3.060

> <Bond>
0.059

> <Angle>
0.918

> <Pdih>
5.862

> <Idih>
0.000

> <Tether>
0.000

$$$$
VeraChem MOL file


 13 13  0  0  0  0  0  0  0  0999 V2000     
   19.4244   20.0571   22.3246 C   0  0  0  0  0  0  0  0  0  0  0  0
   19.7443   21.0365   22.6996 H   0  0  0  0  0  0  0  0  0  0  0  0
   18.4313   20.1673   21.8708 H   0  0  0  0  0  0  0  0  0  0  0  0
   19.5614   18.8626   23.3269 C   0  0  0  0  0  0  0  0  0  0  0  0
   20.3861   18.9639   24.0428 H   0  0  0  0  0  0  0  0  0  0  0  0
   18.6547   18.5870   23.8770 H   0  0  0  0  0  0  0  0  0  0  0  0
   19.9007   17.9800   22.0859 C   0  0  0  0  0  0  0  0  0  0  0  0
   20.6463   17.1956   22.2684 H   0  0  0  0  0  0  0  0  0  0  0  0
   20.4671   19.2862   21.4479 C   0  0  0  0  0  0  0  0  0  0  0  0
   21.5139   19.4914   21.7031 H   0  0  0  0  0  0  0  0  0  0  0  0
   20.3487   19.3793   20.3625 H   0  0  0  0  0  0  0  0  0  0  0  0
   18.7801   17.4355   21.4230 O   0  0  0  0  0  0  0  0  0  0  0  0
   18.1529   18.1755   21.2875 H   0  0  0  0  0  0  0  0  0  0  0  0
  1  2  1  0  0  0  0
  1  3  1  0  0  0  0
  1  4  1  0  0  0  0
  4  5  1  0  0  0  0
  4  6  1  0  0  0  0
  4  7  1  0  0  0  0
  7  8  1  0  0  0  0
  1  9  1  0  0  0  0
  7  9  1  0  0  0  0
  9 10  1  0  0  0  0
  9 11  1  0  0  0  0
  7 12  1  0  0  0  0
 12 13  1  0  0  0  0
M  END
> <VConfSearch Rank>
455

> <Conf_Id>
44

> <Delta U+W>
0.823

> <U+W>
-2.308

> <U>
0.039

> <W>
-2.348

> <W(PB)>
-3.918

> <W(SA)>
1.571

> <Valence>
7.320

> <Coulomb>
-8.530

> <VdW>
1.249

> <VdW6>
-2.615

> <VdW12>
3.864

> <Bond>
0.056

> <Angle>
0.694

> <Pdih>
6.570

> <Idih>
0.000

> <Tether>
0.000

$$$$
VeraChem MOL file


 13 13  0  0  0  0  0  0  0  0999 V2000     
   18.5080   18.6722   22.7586 C   0  0  0  0  0  0  0  0  0  0  0  0
   18.5579   17.7265   23.3142 H   0  0  0  0  0  0  0  0  0  0  0  0
   17.4892   19.0702   22.8350 H   0  0  0  0  0  0  0  0  0  0  0  0
   19.1183   18.6184   21.3191 C   0  0  0  0  0  0  0  0  0  0  0  0
   19.0257   17.6638   20.7899 H   0  0  0  0  0  0  0  0  0  0  0  0
   18.7925   19.4254   20.6511 H   0  0  0  0  0  0  0  0  0  0  0  0
   20.4861   18.8741   22.0211 C   0  0  0  0  0  0  0  0  0  0  0  0
   20.9551   17.9649   22.4216 H   0  0  0  0  0  0  0  0  0  0  0  0
   19.6641   19.6780   23.0733 C   0  0  0  0  0  0  0  0  0  0  0  0
   20.0525   19.6612   24.0975 H   0  0  0  0  0  0  0  0  0  0  0  0
   19.4560   20.7178   22.7915 H   0  0  0  0  0  0  0  0  0  0  0  0
   21.4135   19.6288   21.2762 O   0  0  0  0  0  0  0  0  0  0  0  0
   22.1537   19.8568   21.8790 H   0  0  0  0  0  0  0  0  0  0  0  0
  1  2  1  0  0  0  0
  1  3  1  0  0  0  0
  1  4  1  0  0  0  0
  4  5  1  0  0  0  0
  4  6  1  0  0  0  0
  4  7  1  0  0  0  0
  7  8  1  0  0  0  0
  1  9  1  0  0  0  0
  7  9  1  0  0  0  0
  9 10  1  0  0  0  0
  9 11  1  0  0  0  0
  7 12  1  0  0  0  0
 12 13  1  0  0  0  0
M  END
> <VConfSearch Rank>
456

> <Conf_Id>
22

> <Delta U+W>
0.000

> <U+W>
-3.131

> <U>
-0.154

> <W>
-2.978

> <W(PB)>
-4.579

> <W(SA)>
1.601

> <Valence>
6.333

> <Coulomb>
-7.439

> <VdW>
0.952

> <VdW6>
-2.120

> <VdW12>
3.072

> <Bond>
0.065

> <Angle>
0.931

> <Pdih>
5.338

> <Idih>
0.000

> <Tether>
0.000

$$$$
VeraChem MOL file


 13 13  0  0  0  0  0  0  0  0999 V2000     
   18.6675   18.8599   21.3450 C   0  0  0  0  0  0  0  0  0  0  0  0
   17.7203   19.2994   21.6844 H   0  0  0  0  0  0  0  0  0  0  0  0
   18.5187   18.4365   20.3445 H   0  0  0  0  0  0  0  0  0  0  0  0
   19.3678   17.9281   22.3883 C   0  0  0  0  0  0  0  0  0  0  0  0
   20.1121   17.2428   21.9635 H   0  0  0  0  0  0  0  0  0  0  0  0
   18.7043   17.3615   23.0507 H   0  0  0  0  0  0  0  0  0  0  0  0
   19.9612   19.2416   22.9815 C   0  0  0  0  0  0  0  0  0  0  0  0
   19.2836   19.7663   23.6689 H   0  0  0  0  0  0  0  0  0  0  0  0
   19.9177   19.7837   21.5210 C   0  0  0  0  0  0  0  0  0  0  0  0
   20.7840   19.5067   20.9075 H   0  0  0  0  0  0  0  0  0  0  0  0
   19.7423   20.8600   21.4175 H   0  0  0  0  0  0  0  0  0  0  0  0
   21.2483   19.1224   23.5416 O   0  0  0  0  0  0  0  0  0  0  0  0
   21.1544   18.6256   24.3827 H   0  0  0  0  0  0  0  0  0  0  0  0
  1  2  1  0  0  0  0
  1  3  1  0  0  0  0
  1  4  1  0  0  0  0
  4  5  1  0  0  0  0
  4  6  1  0  0  0  0
  4  7  1  0  0  0  0
  7  8  1  0  0  0  0
  1  9  1  0  0  0  0
  7  9  1  0  0  0  0
  9 10  1  0  0  0  0
  9 11  1  0  0  0  0
  7 12  1  0  0  0  0
 12 13  1  0  0  0  0
M  END
> <VConfSearch Rank>
457

> <Conf_Id>
19

> <Delta U+W>
-0.011

> <U+W>
-3.142

> <U>
-0.154

> <W>
-2.989

> <W(PB)>
-4.588

> <W(SA)>
1.599

> <Valence>
6.334

> <Coulomb>
-7.439

> <VdW>
0.951

> <VdW6>
-2.120

> <VdW12>
3.072

> <Bond>
0.065

> <Angle>
0.930

> <Pdih>
5.339

> <Idih>
0.000

> <Tether>
0.000

$$$$
VeraChem MOL file


 13 13  0  0  0  0  0  0  0  0999 V2000     
   19.9225   18.4775   23.3297 C   0  0  0  0  0  0  0  0  0  0  0  0
   20.3102   18.6029   24.3475 H   0  0  0  0  0  0  0  0  0  0  0  0
   19.6150   17.4319   23.1976 H   0  0  0  0  0  0  0  0  0  0  0  0
   20.8183   19.0416   22.1772 C   0  0  0  0  0  0  0  0  0  0  0  0
   21.4162   19.9186   22.4534 H   0  0  0  0  0  0  0  0  0  0  0  0
   21.4695   18.3174   21.6755 H   0  0  0  0  0  0  0  0  0  0  0  0
   19.4870   19.3826   21.4377 C   0  0  0  0  0  0  0  0  0  0  0  0
   19.5152   20.3088   20.8494 H   0  0  0  0  0  0  0  0  0  0  0  0
   18.8644   19.5308   22.8612 C   0  0  0  0  0  0  0  0  0  0  0  0
   17.8145   19.2333   22.9592 H   0  0  0  0  0  0  0  0  0  0  0  0
   18.9884   20.5266   23.3039 H   0  0  0  0  0  0  0  0  0  0  0  0
   18.9531   18.3308   20.6588 O   0  0  0  0  0  0  0  0  0  0  0  0
   18.0473   18.5969   20.3928 H   0  0  0  0  0  0  0  0  0  0  0  0
  1  2  1  0  0  0  0
  1  3  1  0  0  0  0
  1  4  1  0  0  0  0
  4  5  1  0  0  0  0
  4  6  1  0  0  0  0
  4  7  1  0  0  0  0
  7  8  1  0  0  0  0
  1  9  1  0  0  0  0
  7  9  1  0  0  0  0
  9 10  1  0  0  0  0
  9 11  1  0  0  0  0
  7 12  1  0  0  0  0
 12 13  1  0  0  0  0
M  END
> <VConfSearch Rank>
458

> <Conf_Id>
20

> <Delta U+W>
1.030

> <U+W>
-2.101

> <U>
0.841

> <W>
-2.942

> <W(PB)>
-4.530

> <W(SA)>
1.587

> <Valence>
6.736

> <Coulomb>
-7.246

> <VdW>
1.352

> <VdW6>
-2.500

> <VdW12>
3.851

> <Bond>
0.063

> <Angle>
0.687

> <Pdih>
5.986

> <Idih>
0.000

> <Tether>
0.000

$$$$
VeraChem MOL file


 13 13  0  0  0  0  0  0  0  0999 V2000     
   19.1201   19.9120   21.6370 C   0  0  0  0  0  0  0  0  0  0  0  0
   19.7136   20.7160   21.1820 H   0  0  0  0  0  0  0  0  0  0  0  0
   18.0569   20.1316   21.4826 H   0  0  0  0  0  0  0  0  0  0  0  0
   19.5392   19.5352   23.0963 C   0  0  0  0  0  0  0  0  0  0  0  0
   19.9262   20.3536   23.7134 H   0  0  0  0  0  0  0  0  0  0  0  0
   18.7735   18.9956   23.6673 H   0  0  0  0  0  0  0  0  0  0  0  0
   20.6136   18.6290   22.4228 C   0  0  0  0  0  0  0  0  0  0  0  0
   21.5276   19.1647   22.1324 H   0  0  0  0  0  0  0  0  0  0  0  0
   19.5842   18.4653   21.2641 C   0  0  0  0  0  0  0  0  0  0  0  0
   18.8286   17.6866   21.4255 H   0  0  0  0  0  0  0  0  0  0  0  0
   20.0109   18.3388   20.2630 H   0  0  0  0  0  0  0  0  0  0  0  0
   20.9316   17.4482   23.1201 O   0  0  0  0  0  0  0  0  0  0  0  0
   20.0828   17.0161   23.3515 H   0  0  0  0  0  0  0  0  0  0  0  0
  1  2  1  0  0  0  0
  1  3  1  0  0  0  0
  1  4  1  0  0  0  0
  4  5  1  0  0  0  0
  4  6  1  0  0  0  0
  4  7  1  0  0  0  0
  7  8  1  0  0  0  0
  1  9  1  0  0  0  0
  7  9  1  0  0  0  0
  9 10  1  0  0  0  0
  9 11  1  0  0  0  0
  7 12  1  0  0  0  0
 12 13  1  0  0  0  0
M  END
> <VConfSearch Rank>
459

> <Conf_Id>
24

> <Delta U+W>
0.356

> <U+W>
-2.775

> <U>
-0.184

> <W>
-2.591

> <W(PB)>
-4.184

> <W(SA)>
1.593

> <Valence>
6.840

> <Coulomb>
-7.916

> <VdW>
0.893

> <VdW6>
-2.167

> <VdW12>
3.060

> <Bond>
0.059

> <Angle>
0.918

> <Pdih>
5.862

> <Idih>
0.000

> <Tether>
0.000

$$$$
VeraChem MOL file


 13 13  0  0  0  0  0  0  0  0999 V2000     
   20.4890   19.1328   21.4305 C   0  0  0  0  0  0  0  0  0  0  0  0
   21.4536   18.7941   21.0340 H   0  0  0  0  0  0  0  0  0  0  0  0
   20.1451   19.9822   20.8266 H   0  0  0  0  0  0  0  0  0  0  0  0
   20.4262   19.3571   22.9783 C   0  0  0  0  0  0  0  0  0  0  0  0
   21.0902   18.7045   23.5583 H   0  0  0  0  0  0  0  0  0  0  0  0
   20.5633   20.3881   23.3232 H   0  0  0  0  0  0  0  0  0  0  0  0
   18.9512   18.8552   22.8988 C   0  0  0  0  0  0  0  0  0  0  0  0
   18.6191   18.2625   23.7607 H   0  0  0  0  0  0  0  0  0  0  0  0
   19.4171   18.0171   21.6681 C   0  0  0  0  0  0  0  0  0  0  0  0
   19.8337   17.0360   21.9268 H   0  0  0  0  0  0  0  0  0  0  0  0
   18.6759   17.8818   20.8726 H   0  0  0  0  0  0  0  0  0  0  0  0
   18.0005   19.8565   22.6069 O   0  0  0  0  0  0  0  0  0  0  0  0
   18.3472   20.3500   21.8352 H   0  0  0  0  0  0  0  0  0  0  0  0
  1  2  1  0  0  0  0
  1  3  1  0  0  0  0
  1  4  1  0  0  0  0
  4  5  1  0  0  0  0
  4  6  1  0  0  0  0
  4  7  1  0  0  0  0
  7  8  1  0  0  0  0
  1  9  1  0  0  0  0
  7  9  1  0  0  0  0
  9 10  1  0  0  0  0
  9 11  1  0  0  0  0
  7 12  1  0  0  0  0
 12 13  1  0  0  0  0
M  END
> <VConfSearch Rank>
460

> <Conf_Id>
44

> <Delta U+W>
0.823

> <U+W>
-2.308

> <U>
0.039

> <W>
-2.348

> <W(PB)>
-3.918

> <W(SA)>
1.571

> <Valence>
7.320

> <Coulomb>
-8.530

> <VdW>
1.249

> <VdW6>
-2.615

> <VdW12>
3.864

> <Bond>
0.056

> <Angle>
0.694

> <Pdih>
6.570

> <Idih>
0.000

> <Tether>
0.000

$$$$
VeraChem MOL file


 13 13  0  0  0  0  0  0  0  0999 V2000     
   20.5341   20.0214   22.0687 C   0  0  0  0  0  0  0  0  0  0  0  0
   20.1041   20.8998   21.5696 H   0  0  0  0  0  0  0  0  0  0  0  0
   21.5775   20.2399   22.3253 H   0  0  0  0  0  0  0  0  0  0  0  0
   20.2765   18.6623   21.3381 C   0  0  0  0  0  0  0  0  0  0  0  0
   20.2243   18.7032   20.2447 H   0  0  0  0  0  0  0  0  0  0  0  0
   20.9525   17.8486   21.6290 H   0  0  0  0  0  0  0  0  0  0  0  0
   18.9072   18.6611   22.0823 C   0  0  0  0  0  0  0  0  0  0  0  0
   18.1305   19.2552   21.5814 H   0  0  0  0  0  0  0  0  0  0  0  0
   19.6547   19.4249   23.2168 C   0  0  0  0  0  0  0  0  0  0  0  0
   19.0537   20.1423   23.7863 H   0  0  0  0  0  0  0  0  0  0  0  0
   20.1958   18.7802   23.9205 H   0  0  0  0  0  0  0  0  0  0  0  0
   18.4146   17.3893   22.4350 O   0  0  0  0  0  0  0  0  0  0  0  0
   17.6472   17.5298   23.0305 H   0  0  0  0  0  0  0  0  0  0  0  0
  1  2  1  0  0  0  0
  1  3  1  0  0  0  0
  1  4  1  0  0  0  0
  4  5  1  0  0  0  0
  4  6  1  0  0  0  0
  4  7  1  0  0  0  0
  7  8  1  0  0  0  0
  1  9  1  0  0  0  0
  7  9  1  0  0  0  0
  9 10  1  0  0  0  0
  9 11  1  0  0  0  0
  7 12  1  0  0  0  0
 12 13  1  0  0  0  0
M  END
> <VConfSearch Rank>
461

> <Conf_Id>
22

> <Delta U+W>
0.000

> <U+W>
-3.131

> <U>
-0.154

> <W>
-2.978

> <W(PB)>
-4.579

> <W(SA)>
1.601

> <Valence>
6.333

> <Coulomb>
-7.439

> <VdW>
0.952

> <VdW6>
-2.120

> <VdW12>
3.072

> <Bond>
0.065

> <Angle>
0.931

> <Pdih>
5.338

> <Idih>
0.000

> <Tether>
0.000

$$$$
VeraChem MOL file


 13 13  0  0  0  0  0  0  0  0999 V2000     
   20.8077   19.5120   22.1498 C   0  0  0  0  0  0  0  0  0  0  0  0
   21.3660   19.2253   21.2489 H   0  0  0  0  0  0  0  0  0  0  0  0
   21.4326   20.1837   22.7504 H   0  0  0  0  0  0  0  0  0  0  0  0
   20.1460   18.3200   22.9169 C   0  0  0  0  0  0  0  0  0  0  0  0
   19.8781   18.5377   23.9584 H   0  0  0  0  0  0  0  0  0  0  0  0
   20.6844   17.3665   22.8831 H   0  0  0  0  0  0  0  0  0  0  0  0
   18.9743   18.4755   21.9009 C   0  0  0  0  0  0  0  0  0  0  0  0
   19.1462   17.9691   20.9411 H   0  0  0  0  0  0  0  0  0  0  0  0
   19.3415   19.9900   21.8866 C   0  0  0  0  0  0  0  0  0  0  0  0
   18.8949   20.5736   22.7012 H   0  0  0  0  0  0  0  0  0  0  0  0
   19.1660   20.5138   20.9406 H   0  0  0  0  0  0  0  0  0  0  0  0
   17.6947   18.1708   22.4051 O   0  0  0  0  0  0  0  0  0  0  0  0
   17.6497   17.1964   22.5140 H   0  0  0  0  0  0  0  0  0  0  0  0
  1  2  1  0  0  0  0
  1  3  1  0  0  0  0
  1  4  1  0  0  0  0
  4  5  1  0  0  0  0
  4  6  1  0  0  0  0
  4  7  1  0  0  0  0
  7  8  1  0  0  0  0
  1  9  1  0  0  0  0
  7  9  1  0  0  0  0
  9 10  1  0  0  0  0
  9 11  1  0  0  0  0
  7 12  1  0  0  0  0
 12 13  1  0  0  0  0
M  END
> <VConfSearch Rank>
462

> <Conf_Id>
19

> <Delta U+W>
-0.011

> <U+W>
-3.142

> <U>
-0.154

> <W>
-2.989

> <W(PB)>
-4.588

> <W(SA)>
1.599

> <Valence>
6.334

> <Coulomb>
-7.439

> <VdW>
0.951

> <VdW6>
-2.120

> <VdW12>
3.072

> <Bond>
0.065

> <Angle>
0.930

> <Pdih>
5.339

> <Idih>
0.000

> <Tether>
0.000

$$$$
VeraChem MOL file


 13 13  0  0  0  0  0  0  0  0999 V2000     
   19.5658   19.4593   23.4417 C   0  0  0  0  0  0  0  0  0  0  0  0
   20.0000   20.1402   24.1831 H   0  0  0  0  0  0  0  0  0  0  0  0
   18.6821   18.9787   23.8814 H   0  0  0  0  0  0  0  0  0  0  0  0
   20.5621   18.4737   22.7453 C   0  0  0  0  0  0  0  0  0  0  0  0
   21.5816   18.8619   22.6320 H   0  0  0  0  0  0  0  0  0  0  0  0
   20.6164   17.4649   23.1693 H   0  0  0  0  0  0  0  0  0  0  0  0
   19.6744   18.6267   21.4710 C   0  0  0  0  0  0  0  0  0  0  0  0
   20.2284   18.6124   20.5235 H   0  0  0  0  0  0  0  0  0  0  0  0
   19.3396   20.0522   22.0113 C   0  0  0  0  0  0  0  0  0  0  0  0
   18.3302   20.4213   21.7984 H   0  0  0  0  0  0  0  0  0  0  0  0
   20.0627   20.8238   21.7203 H   0  0  0  0  0  0  0  0  0  0  0  0
   18.5751   17.7407   21.4020 O   0  0  0  0  0  0  0  0  0  0  0  0
   18.0034   18.0437   20.6648 H   0  0  0  0  0  0  0  0  0  0  0  0
  1  2  1  0  0  0  0
  1  3  1  0  0  0  0
  1  4  1  0  0  0  0
  4  5  1  0  0  0  0
  4  6  1  0  0  0  0
  4  7  1  0  0  0  0
  7  8  1  0  0  0  0
  1  9  1  0  0  0  0
  7  9  1  0  0  0  0
  9 10  1  0  0  0  0
  9 11  1  0  0  0  0
  7 12  1  0  0  0  0
 12 13  1  0  0  0  0
M  END
> <VConfSearch Rank>
463

> <Conf_Id>
20

> <Delta U+W>
1.030

> <U+W>
-2.101

> <U>
0.841

> <W>
-2.942

> <W(PB)>
-4.530

> <W(SA)>
1.587

> <Valence>
6.736

> <Coulomb>
-7.246

> <VdW>
1.352

> <VdW6>
-2.500

> <VdW12>
3.851

> <Bond>
0.063

> <Angle>
0.687

> <Pdih>
5.986

> <Idih>
0.000

> <Tether>
0.000

$$$$
VeraChem MOL file


 13 13  0  0  0  0  0  0  0  0999 V2000     
   19.2948   17.8459   21.7515 C   0  0  0  0  0  0  0  0  0  0  0  0
   19.8908   17.3219   20.9926 H   0  0  0  0  0  0  0  0  0  0  0  0
   18.3900   17.2598   21.9520 H   0  0  0  0  0  0  0  0  0  0  0  0
   19.0787   19.3705   21.4753 C   0  0  0  0  0  0  0  0  0  0  0  0
   19.0154   19.6655   20.4221 H   0  0  0  0  0  0  0  0  0  0  0  0
   18.2371   19.8189   22.0175 H   0  0  0  0  0  0  0  0  0  0  0  0
   20.4702   19.5646   22.1500 C   0  0  0  0  0  0  0  0  0  0  0  0
   21.3190   19.4030   21.4718 H   0  0  0  0  0  0  0  0  0  0  0  0
   20.1015   18.3159   23.0067 C   0  0  0  0  0  0  0  0  0  0  0  0
   19.4885   18.5285   23.8912 H   0  0  0  0  0  0  0  0  0  0  0  0
   20.9416   17.6795   23.3060 H   0  0  0  0  0  0  0  0  0  0  0  0
   20.6314   20.7644   22.8686 O   0  0  0  0  0  0  0  0  0  0  0  0
   19.8496   20.8544   23.4528 H   0  0  0  0  0  0  0  0  0  0  0  0
  1  2  1  0  0  0  0
  1  3  1  0  0  0  0
  1  4  1  0  0  0  0
  4  5  1  0  0  0  0
  4  6  1  0  0  0  0
  4  7  1  0  0  0  0
  7  8  1  0  0  0  0
  1  9  1  0  0  0  0
  7  9  1  0  0  0  0
  9 10  1  0  0  0  0
  9 11  1  0  0  0  0
  7 12  1  0  0  0  0
 12 13  1  0  0  0  0
M  END
> <VConfSearch Rank>
464

> <Conf_Id>
24

> <Delta U+W>
0.356

> <U+W>
-2.775

> <U>
-0.184

> <W>
-2.591

> <W(PB)>
-4.184

> <W(SA)>
1.593

> <Valence>
6.840

> <Coulomb>
-7.916

> <VdW>
0.893

> <VdW6>
-2.167

> <VdW12>
3.060

> <Bond>
0.059

> <Angle>
0.918

> <Pdih>
5.862

> <Idih>
0.000

> <Tether>
0.000

$$$$
VeraChem MOL file


 13 13  0  0  0  0  0  0  0  0999 V2000     
   19.2704   19.4002   23.1593 C   0  0  0  0  0  0  0  0  0  0  0  0
   18.6895   19.1984   24.0672 H   0  0  0  0  0  0  0  0  0  0  0  0
   19.5707   20.4557   23.1676 H   0  0  0  0  0  0  0  0  0  0  0  0
   18.6349   18.9069   21.8166 C   0  0  0  0  0  0  0  0  0  0  0  0
   18.0100   18.0107   21.9131 H   0  0  0  0  0  0  0  0  0  0  0  0
   18.0818   19.6565   21.2397 H   0  0  0  0  0  0  0  0  0  0  0  0
   20.0921   18.6183   21.3396 C   0  0  0  0  0  0  0  0  0  0  0  0
   20.2014   17.7303   20.7039 H   0  0  0  0  0  0  0  0  0  0  0  0
   20.4244   18.3899   22.8467 C   0  0  0  0  0  0  0  0  0  0  0  0
   20.2382   17.3669   23.1958 H   0  0  0  0  0  0  0  0  0  0  0  0
   21.4288   18.6894   23.1663 H   0  0  0  0  0  0  0  0  0  0  0  0
   20.7499   19.7183   20.7488 O   0  0  0  0  0  0  0  0  0  0  0  0
   20.6198   20.4763   21.3554 H   0  0  0  0  0  0  0  0  0  0  0  0
  1  2  1  0  0  0  0
  1  3  1  0  0  0  0
  1  4  1  0  0  0  0
  4  5  1  0  0  0  0
  4  6  1  0  0  0  0
  4  7  1  0  0  0  0
  7  8  1  0  0  0  0
  1  9  1  0  0  0  0
  7  9  1  0  0  0  0
  9 10  1  0  0  0  0
  9 11  1  0  0  0  0
  7 12  1  0  0  0  0
 12 13  1  0  0  0  0
M  END
> <VConfSearch Rank>
465

> <Conf_Id>
44

> <Delta U+W>
0.823

> <U+W>
-2.308

> <U>
0.039

> <W>
-2.348

> <W(PB)>
-3.918

> <W(SA)>
1.571

> <Valence>
7.320

> <Coulomb>
-8.530

> <VdW>
1.249

> <VdW6>
-2.615

> <VdW12>
3.864

> <Bond>
0.056

> <Angle>
0.694

> <Pdih>
6.570

> <Idih>
0.000

> <Tether>
0.000

$$$$
VeraChem MOL file


 13 13  0  0  0  0  0  0  0  0999 V2000     
   19.0714   20.2196   22.2908 C   0  0  0  0  0  0  0  0  0  0  0  0
   19.7259   21.0513   21.9983 H   0  0  0  0  0  0  0  0  0  0  0  0
   18.0688   20.6162   22.4903 H   0  0  0  0  0  0  0  0  0  0  0  0
   19.6659   19.2727   23.3850 C   0  0  0  0  0  0  0  0  0  0  0  0
   20.3238   19.7415   24.1248 H   0  0  0  0  0  0  0  0  0  0  0  0
   18.9262   18.6563   23.9108 H   0  0  0  0  0  0  0  0  0  0  0  0
   20.3809   18.5539   22.2013 C   0  0  0  0  0  0  0  0  0  0  0  0
   21.3172   19.0374   21.8903 H   0  0  0  0  0  0  0  0  0  0  0  0
   19.1418   18.9699   21.3524 C   0  0  0  0  0  0  0  0  0  0  0  0
   19.3345   19.1725   20.2931 H   0  0  0  0  0  0  0  0  0  0  0  0
   18.2855   18.2887   21.4317 H   0  0  0  0  0  0  0  0  0  0  0  0
   20.5636   17.1663   22.3614 O   0  0  0  0  0  0  0  0  0  0  0  0
   20.8672   16.8116   21.4981 H   0  0  0  0  0  0  0  0  0  0  0  0
  1  2  1  0  0  0  0
  1  3  1  0  0  0  0
  1  4  1  0  0  0  0
  4  5  1  0  0  0  0
  4  6  1  0  0  0  0
  4  7  1  0  0  0  0
  7  8  1  0  0  0  0
  1  9  1  0  0  0  0
  7  9  1  0  0  0  0
  9 10  1  0  0  0  0
  9 11  1  0  0  0  0
  7 12  1  0  0  0  0
 12 13  1  0  0  0  0
M  END
> <VConfSearch Rank>
466

> <Conf_Id>
22

> <Delta U+W>
0.000

> <U+W>
-3.131

> <U>
-0.154

> <W>
-2.978

> <W(PB)>
-4.579

> <W(SA)>
1.601

> <Valence>
6.333

> <Coulomb>
-7.439

> <VdW>
0.952

> <VdW6>
-2.120

> <VdW12>
3.072

> <Bond>
0.065

> <Angle>
0.931

> <Pdih>
5.338

> <Idih>
0.000

> <Tether>
0.000

$$$$
VeraChem MOL file


 13 13  0  0  0  0  0  0  0  0999 V2000     
   19.7203   19.4926   23.4341 C   0  0  0  0  0  0  0  0  0  0  0  0
   20.7369   19.8240   23.6833 H   0  0  0  0  0  0  0  0  0  0  0  0
   19.0671   19.6900   24.2924 H   0  0  0  0  0  0  0  0  0  0  0  0
   19.6321   18.0567   22.8194 C   0  0  0  0  0  0  0  0  0  0  0  0
   18.6378   17.5958   22.8728 H   0  0  0  0  0  0  0  0  0  0  0  0
   20.3753   17.3341   23.1735 H   0  0  0  0  0  0  0  0  0  0  0  0
   19.9519   18.7507   21.4609 C   0  0  0  0  0  0  0  0  0  0  0  0
   21.0228   18.9286   21.2924 H   0  0  0  0  0  0  0  0  0  0  0  0
   19.1948   19.9817   22.0441 C   0  0  0  0  0  0  0  0  0  0  0  0
   18.1049   19.9431   21.9251 H   0  0  0  0  0  0  0  0  0  0  0  0
   19.5512   20.9622   21.7100 H   0  0  0  0  0  0  0  0  0  0  0  0
   19.3585   18.1600   20.3280 O   0  0  0  0  0  0  0  0  0  0  0  0
   19.8285   17.3148   20.1610 H   0  0  0  0  0  0  0  0  0  0  0  0
  1  2  1  0  0  0  0
  1  3  1  0  0  0  0
  1  4  1  0  0  0  0
  4  5  1  0  0  0  0
  4  6  1  0  0  0  0
  4  7  1  0  0  0  0
  7  8  1  0  0  0  0
  1  9  1  0  0  0  0
  7  9  1  0  0  0  0
  9 10  1  0  0  0  0
  9 11  1  0  0  0  0
  7 12  1  0  0  0  0
 12 13  1  0  0  0  0
M  END
> <VConfSearch Rank>
467

> <Conf_Id>
19

> <Delta U+W>
-0.011

> <U+W>
-3.142

> <U>
-0.154

> <W>
-2.989

> <W(PB)>
-4.588

> <W(SA)>
1.599

> <Valence>
6.334

> <Coulomb>
-7.439

> <VdW>
0.951

> <VdW6>
-2.120

> <VdW12>
3.072

> <Bond>
0.065

> <Angle>
0.930

> <Pdih>
5.339

> <Idih>
0.000

> <Tether>
0.000

$$$$
VeraChem MOL file


 13 13  0  0  0  0  0  0  0  0999 V2000     
   19.4367   19.8633   21.3726 C   0  0  0  0  0  0  0  0  0  0  0  0
   19.5863   20.0738   20.3071 H   0  0  0  0  0  0  0  0  0  0  0  0
   18.8189   20.6614   21.8047 H   0  0  0  0  0  0  0  0  0  0  0  0
   20.7238   19.5213   22.1943 C   0  0  0  0  0  0  0  0  0  0  0  0
   21.5091   19.0151   21.6199 H   0  0  0  0  0  0  0  0  0  0  0  0
   21.1752   20.3512   22.7492 H   0  0  0  0  0  0  0  0  0  0  0  0
   19.8210   18.5596   23.0282 C   0  0  0  0  0  0  0  0  0  0  0  0
   20.3176   17.6382   23.3586 H   0  0  0  0  0  0  0  0  0  0  0  0
   18.9685   18.4133   21.7290 C   0  0  0  0  0  0  0  0  0  0  0  0
   17.8911   18.2786   21.8746 H   0  0  0  0  0  0  0  0  0  0  0  0
   19.3281   17.6384   21.0411 H   0  0  0  0  0  0  0  0  0  0  0  0
   19.1523   19.1657   24.1162 O   0  0  0  0  0  0  0  0  0  0  0  0
   18.4930   18.5198   24.4484 H   0  0  0  0  0  0  0  0  0  0  0  0
  1  2  1  0  0  0  0
  1  3  1  0  0  0  0
  1  4  1  0  0  0  0
  4  5  1  0  0  0  0
  4  6  1  0  0  0  0
  4  7  1  0  0  0  0
  7  8  1  0  0  0  0
  1  9  1  0  0  0  0
  7  9  1  0  0  0  0
  9 10  1  0  0  0  0
  9 11  1  0  0  0  0
  7 12  1  0  0  0  0
 12 13  1  0  0  0  0
M  END
> <VConfSearch Rank>
468

> <Conf_Id>
20

> <Delta U+W>
1.030

> <U+W>
-2.101

> <U>
0.841

> <W>
-2.942

> <W(PB)>
-4.530

> <W(SA)>
1.587

> <Valence>
6.736

> <Coulomb>
-7.246

> <VdW>
1.352

> <VdW6>
-2.500

> <VdW12>
3.851

> <Bond>
0.063

> <Angle>
0.687

> <Pdih>
5.986

> <Idih>
0.000

> <Tether>
0.000

$$$$
VeraChem MOL file


 13 13  0  0  0  0  0  0  0  0999 V2000     
   19.8212   19.9763   21.4436 C   0  0  0  0  0  0  0  0  0  0  0  0
   20.6000   19.9838   20.6695 H   0  0  0  0  0  0  0  0  0  0  0  0
   19.2495   20.9094   21.3739 H   0  0  0  0  0  0  0  0  0  0  0  0
   20.3227   19.5827   22.8722 C   0  0  0  0  0  0  0  0  0  0  0  0
   21.3476   19.8788   23.1219 H   0  0  0  0  0  0  0  0  0  0  0  0
   19.6589   19.8880   23.6903 H   0  0  0  0  0  0  0  0  0  0  0  0
   20.1408   18.1097   22.3964 C   0  0  0  0  0  0  0  0  0  0  0  0
   20.9917   17.7207   21.8207 H   0  0  0  0  0  0  0  0  0  0  0  0
   18.9804   18.6588   21.5126 C   0  0  0  0  0  0  0  0  0  0  0  0
   18.0165   18.7577   22.0269 H   0  0  0  0  0  0  0  0  0  0  0  0
   18.8198   18.1390   20.5617 H   0  0  0  0  0  0  0  0  0  0  0  0
   19.7586   17.1946   23.3956 O   0  0  0  0  0  0  0  0  0  0  0  0
   19.0009   17.5932   23.8728 H   0  0  0  0  0  0  0  0  0  0  0  0
  1  2  1  0  0  0  0
  1  3  1  0  0  0  0
  1  4  1  0  0  0  0
  4  5  1  0  0  0  0
  4  6  1  0  0  0  0
  4  7  1  0  0  0  0
  7  8  1  0  0  0  0
  1  9  1  0  0  0  0
  7  9  1  0  0  0  0
  9 10  1  0  0  0  0
  9 11  1  0  0  0  0
  7 12  1  0  0  0  0
 12 13  1  0  0  0  0
M  END
> <VConfSearch Rank>
469

> <Conf_Id>
24

> <Delta U+W>
0.356

> <U+W>
-2.775

> <U>
-0.184

> <W>
-2.591

> <W(PB)>
-4.184

> <W(SA)>
1.593

> <Valence>
6.840

> <Coulomb>
-7.916

> <VdW>
0.893

> <VdW6>
-2.167

> <VdW12>
3.060

> <Bond>
0.059

> <Angle>
0.918

> <Pdih>
5.862

> <Idih>
0.000

> <Tether>
0.000

$$$$
VeraChem MOL file


 13 13  0  0  0  0  0  0  0  0999 V2000     
   18.8120   18.6050   21.6127 C   0  0  0  0  0  0  0  0  0  0  0  0
   17.8105   18.1603   21.6526 H   0  0  0  0  0  0  0  0  0  0  0  0
   19.0783   18.7656   20.5603 H   0  0  0  0  0  0  0  0  0  0  0  0
   19.9116   17.8922   22.4688 C   0  0  0  0  0  0  0  0  0  0  0  0
   19.5343   17.4028   23.3750 H   0  0  0  0  0  0  0  0  0  0  0  0
   20.5573   17.1859   21.9349 H   0  0  0  0  0  0  0  0  0  0  0  0
   20.5105   19.3117   22.7144 C   0  0  0  0  0  0  0  0  0  0  0  0
   20.9436   19.4628   23.7114 H   0  0  0  0  0  0  0  0  0  0  0  0
   19.0511   19.8373   22.5479 C   0  0  0  0  0  0  0  0  0  0  0  0
   18.4627   19.8249   23.4735 H   0  0  0  0  0  0  0  0  0  0  0  0
   18.9476   20.8241   22.0828 H   0  0  0  0  0  0  0  0  0  0  0  0
   21.4145   19.7519   21.7241 O   0  0  0  0  0  0  0  0  0  0  0  0
   20.9779   19.5937   20.8617 H   0  0  0  0  0  0  0  0  0  0  0  0
  1  2  1  0  0  0  0
  1  3  1  0  0  0  0
  1  4  1  0  0  0  0
  4  5  1  0  0  0  0
  4  6  1  0  0  0  0
  4  7  1  0  0  0  0
  7  8  1  0  0  0  0
  1  9  1  0  0  0  0
  7  9  1  0  0  0  0
  9 10  1  0  0  0  0
  9 11  1  0  0  0  0
  7 12  1  0  0  0  0
 12 13  1  0  0  0  0
M  END
> <VConfSearch Rank>
470

> <Conf_Id>
44

> <Delta U+W>
0.823

> <U+W>
-2.308

> <U>
0.039

> <W>
-2.348

> <W(PB)>
-3.918

> <W(SA)>
1.571

> <Valence>
7.320

> <Coulomb>
-8.530

> <VdW>
1.249

> <VdW6>
-2.615

> <VdW12>
3.864

> <Bond>
0.056

> <Angle>
0.694

> <Pdih>
6.570

> <Idih>
0.000

> <Tether>
0.000

$$$$
VeraChem MOL file


 13 13  0  0  0  0  0  0  0  0999 V2000     
   18.7745   18.5268   23.0718 C   0  0  0  0  0  0  0  0  0  0  0  0
   17.7372   18.7101   22.7623 H   0  0  0  0  0  0  0  0  0  0  0  0
   18.7660   17.9059   23.9756 H   0  0  0  0  0  0  0  0  0  0  0  0
   19.6774   19.8033   23.1238 C   0  0  0  0  0  0  0  0  0  0  0  0
   19.1778   20.7381   23.4004 H   0  0  0  0  0  0  0  0  0  0  0  0
   20.5881   19.6981   23.7264 H   0  0  0  0  0  0  0  0  0  0  0  0
   19.8835   19.5713   21.5965 C   0  0  0  0  0  0  0  0  0  0  0  0
   19.0754   19.9790   20.9737 H   0  0  0  0  0  0  0  0  0  0  0  0
   19.7268   18.0555   21.9236 C   0  0  0  0  0  0  0  0  0  0  0  0
   19.2697   17.4422   21.1393 H   0  0  0  0  0  0  0  0  0  0  0  0
   20.6473   17.5651   22.2641 H   0  0  0  0  0  0  0  0  0  0  0  0
   21.1432   19.9525   21.0941 O   0  0  0  0  0  0  0  0  0  0  0  0
   21.2059   19.6100   20.1765 H   0  0  0  0  0  0  0  0  0  0  0  0
  1  2  1  0  0  0  0
  1  3  1  0  0  0  0
  1  4  1  0  0  0  0
  4  5  1  0  0  0  0
  4  6  1  0  0  0  0
  4  7  1  0  0  0  0
  7  8  1  0  0  0  0
  1  9  1  0  0  0  0
  7  9  1  0  0  0  0
  9 10  1  0  0  0  0
  9 11  1  0  0  0  0
  7 12  1  0  0  0  0
 12 13  1  0  0  0  0
M  END
> <VConfSearch Rank>
471

> <Conf_Id>
22

> <Delta U+W>
0.000

> <U+W>
-3.131

> <U>
-0.154

> <W>
-2.978

> <W(PB)>
-4.579

> <W(SA)>
1.601

> <Valence>
6.333

> <Coulomb>
-7.439

> <VdW>
0.952

> <VdW6>
-2.120

> <VdW12>
3.072

> <Bond>
0.065

> <Angle>
0.931

> <Pdih>
5.338

> <Idih>
0.000

> <Tether>
0.000

$$$$
VeraChem MOL file


 13 13  0  0  0  0  0  0  0  0999 V2000     
   18.9208   20.0389   22.2533 C   0  0  0  0  0  0  0  0  0  0  0  0
   19.3471   20.8238   22.8919 H   0  0  0  0  0  0  0  0  0  0  0  0
   17.9749   20.4029   21.8350 H   0  0  0  0  0  0  0  0  0  0  0  0
   18.8828   18.6159   22.9021 C   0  0  0  0  0  0  0  0  0  0  0  0
   18.1836   17.9152   22.4288 H   0  0  0  0  0  0  0  0  0  0  0  0
   18.7335   18.5844   23.9870 H   0  0  0  0  0  0  0  0  0  0  0  0
   20.3576   18.4875   22.4147 C   0  0  0  0  0  0  0  0  0  0  0  0
   21.0920   18.9485   23.0894 H   0  0  0  0  0  0  0  0  0  0  0  0
   19.9252   19.4077   21.2335 C   0  0  0  0  0  0  0  0  0  0  0  0
   19.4568   18.8794   20.3938 H   0  0  0  0  0  0  0  0  0  0  0  0
   20.7002   20.0753   20.8416 H   0  0  0  0  0  0  0  0  0  0  0  0
   20.7607   17.1880   22.0493 O   0  0  0  0  0  0  0  0  0  0  0  0
   20.8468   16.6670   22.8766 H   0  0  0  0  0  0  0  0  0  0  0  0
  1  2  1  0  0  0  0
  1  3  1  0  0  0  0
  1  4  1  0  0  0  0
  4  5  1  0  0  0  0
  4  6  1  0  0  0  0
  4  7  1  0  0  0  0
  7  8  1  0  0  0  0
  1  9  1  0  0  0  0
  7  9  1  0  0  0  0
  9 10  1  0  0  0  0
  9 11  1  0  0  0  0
  7 12  1  0  0  0  0
 12 13  1  0  0  0  0
M  END
> <VConfSearch Rank>
472

> <Conf_Id>
19

> <Delta U+W>
-0.011

> <U+W>
-3.142

> <U>
-0.154

> <W>
-2.989

> <W(PB)>
-4.588

> <W(SA)>
1.599

> <Valence>
6.334

> <Coulomb>
-7.439

> <VdW>
0.951

> <VdW6>
-2.120

> <VdW12>
3.072

> <Bond>
0.065

> <Angle>
0.930

> <Pdih>
5.339

> <Idih>
0.000

> <Tether>
0.000

$$$$
VeraChem MOL file


 13 13  0  0  0  0  0  0  0  0999 V2000     
   20.8402   19.2871   22.3465 C   0  0  0  0  0  0  0  0  0  0  0  0
   21.7087   19.3526   23.0125 H   0  0  0  0  0  0  0  0  0  0  0  0
   21.1789   19.4332   21.3125 H   0  0  0  0  0  0  0  0  0  0  0  0
   19.5966   20.1470   22.7502 C   0  0  0  0  0  0  0  0  0  0  0  0
   19.4746   20.2914   23.8305 H   0  0  0  0  0  0  0  0  0  0  0  0
   19.5021   21.1191   22.2537 H   0  0  0  0  0  0  0  0  0  0  0  0
   18.7266   18.9953   22.1568 C   0  0  0  0  0  0  0  0  0  0  0  0
   17.7867   18.8100   22.6925 H   0  0  0  0  0  0  0  0  0  0  0  0
   19.9037   18.0510   22.5556 C   0  0  0  0  0  0  0  0  0  0  0  0
   20.0799   17.1972   21.8922 H   0  0  0  0  0  0  0  0  0  0  0  0
   19.8566   17.6870   23.5892 H   0  0  0  0  0  0  0  0  0  0  0  0
   18.4813   19.0902   20.7680 O   0  0  0  0  0  0  0  0  0  0  0  0
   18.0857   18.2388   20.4839 H   0  0  0  0  0  0  0  0  0  0  0  0
  1  2  1  0  0  0  0
  1  3  1  0  0  0  0
  1  4  1  0  0  0  0
  4  5  1  0  0  0  0
  4  6  1  0  0  0  0
  4  7  1  0  0  0  0
  7  8  1  0  0  0  0
  1  9  1  0  0  0  0
  7  9  1  0  0  0  0
  9 10  1  0  0  0  0
  9 11  1  0  0  0  0
  7 12  1  0  0  0  0
 12 13  1  0  0  0  0
M  END
> <VConfSearch Rank>
473

> <Conf_Id>
20

> <Delta U+W>
1.030

> <U+W>
-2.101

> <U>
0.841

> <W>
-2.942

> <W(PB)>
-4.530

> <W(SA)>
1.587

> <Valence>
6.736

> <Coulomb>
-7.246

> <VdW>
1.352

> <VdW6>
-2.500

> <VdW12>
3.851

> <Bond>
0.063

> <Angle>
0.687

> <Pdih>
5.986

> <Idih>
0.000

> <Tether>
0.000

$$$$
VeraChem MOL file


 13 13  0  0  0  0  0  0  0  0999 V2000     
   20.0808   18.4899   23.3596 C   0  0  0  0  0  0  0  0  0  0  0  0
   20.7940   17.6556   23.3907 H   0  0  0  0  0  0  0  0  0  0  0  0
   19.8014   18.7500   24.3875 H   0  0  0  0  0  0  0  0  0  0  0  0
   18.8984   18.3022   22.3526 C   0  0  0  0  0  0  0  0  0  0  0  0
   18.5529   17.2737   22.2008 H   0  0  0  0  0  0  0  0  0  0  0  0
   18.0277   18.9411   22.5452 H   0  0  0  0  0  0  0  0  0  0  0  0
   19.8873   18.8493   21.2793 C   0  0  0  0  0  0  0  0  0  0  0  0
   20.5632   18.0869   20.8686 H   0  0  0  0  0  0  0  0  0  0  0  0
   20.5084   19.6820   22.4412 C   0  0  0  0  0  0  0  0  0  0  0  0
   19.9976   20.6292   22.6536 H   0  0  0  0  0  0  0  0  0  0  0  0
   21.5849   19.8719   22.3676 H   0  0  0  0  0  0  0  0  0  0  0  0
   19.3002   19.6008   20.2437 O   0  0  0  0  0  0  0  0  0  0  0  0
   18.7119   20.2601   20.6678 H   0  0  0  0  0  0  0  0  0  0  0  0
  1  2  1  0  0  0  0
  1  3  1  0  0  0  0
  1  4  1  0  0  0  0
  4  5  1  0  0  0  0
  4  6  1  0  0  0  0
  4  7  1  0  0  0  0
  7  8  1  0  0  0  0
  1  9  1  0  0  0  0
  7  9  1  0  0  0  0
  9 10  1  0  0  0  0
  9 11  1  0  0  0  0
  7 12  1  0  0  0  0
 12 13  1  0  0  0  0
M  END
> <VConfSearch Rank>
474

> <Conf_Id>
24

> <Delta U+W>
0.356

> <U+W>
-2.775

> <U>
-0.184

> <W>
-2.591

> <W(PB)>
-4.184

> <W(SA)>
1.593

> <Valence>
6.840

> <Coulomb>
-7.916

> <VdW>
0.893

> <VdW6>
-2.167

> <VdW12>
3.060

> <Bond>
0.059

> <Angle>
0.918

> <Pdih>
5.862

> <Idih>
0.000

> <Tether>
0.000

$$$$
VeraChem MOL file


 13 13  0  0  0  0  0  0  0  0999 V2000     
   19.7539   19.4189   21.1790 C   0  0  0  0  0  0  0  0  0  0  0  0
   19.8083   20.3445   20.5936 H   0  0  0  0  0  0  0  0  0  0  0  0
   19.7604   18.5690   20.4849 H   0  0  0  0  0  0  0  0  0  0  0  0
   18.6362   19.3666   22.2737 C   0  0  0  0  0  0  0  0  0  0  0  0
   18.3839   20.3404   22.7109 H   0  0  0  0  0  0  0  0  0  0  0  0
   17.7064   18.8604   21.9911 H   0  0  0  0  0  0  0  0  0  0  0  0
   19.6380   18.5270   23.1255 C   0  0  0  0  0  0  0  0  0  0  0  0
   19.5940   18.7146   24.2060 H   0  0  0  0  0  0  0  0  0  0  0  0
   20.7615   19.3032   22.3712 C   0  0  0  0  0  0  0  0  0  0  0  0
   21.0303   20.2614   22.8323 H   0  0  0  0  0  0  0  0  0  0  0  0
   21.6816   18.7418   22.1735 H   0  0  0  0  0  0  0  0  0  0  0  0
   19.6080   17.1383   22.8755 O   0  0  0  0  0  0  0  0  0  0  0  0
   19.6494   17.0319   21.9027 H   0  0  0  0  0  0  0  0  0  0  0  0
  1  2  1  0  0  0  0
  1  3  1  0  0  0  0
  1  4  1  0  0  0  0
  4  5  1  0  0  0  0
  4  6  1  0  0  0  0
  4  7  1  0  0  0  0
  7  8  1  0  0  0  0
  1  9  1  0  0  0  0
  7  9  1  0  0  0  0
  9 10  1  0  0  0  0
  9 11  1  0  0  0  0
  7 12  1  0  0  0  0
 12 13  1  0  0  0  0
M  END
> <VConfSearch Rank>
475

> <Conf_Id>
44

> <Delta U+W>
0.823

> <U+W>
-2.308

> <U>
0.039

> <W>
-2.348

> <W(PB)>
-3.918

> <W(SA)>
1.571

> <Valence>
7.320

> <Coulomb>
-8.530

> <VdW>
1.249

> <VdW6>
-2.615

> <VdW12>
3.864

> <Bond>
0.056

> <Angle>
0.694

> <Pdih>
6.570

> <Idih>
0.000

> <Tether>
0.000

$$$$
VeraChem MOL file


 13 13  0  0  0  0  0  0  0  0999 V2000     
   20.5246   19.0136   23.2510 C   0  0  0  0  0  0  0  0  0  0  0  0
   20.3249   19.7728   24.0187 H   0  0  0  0  0  0  0  0  0  0  0  0
   21.3739   18.4012   23.5763 H   0  0  0  0  0  0  0  0  0  0  0  0
   20.5951   19.5646   21.7885 C   0  0  0  0  0  0  0  0  0  0  0  0
   20.9880   20.5806   21.6729 H   0  0  0  0  0  0  0  0  0  0  0  0
   21.1032   18.9062   21.0731 H   0  0  0  0  0  0  0  0  0  0  0  0
   19.0420   19.4354   21.7944 C   0  0  0  0  0  0  0  0  0  0  0  0
   18.5283   20.2895   22.2566 H   0  0  0  0  0  0  0  0  0  0  0  0
   19.2618   18.2316   22.7597 C   0  0  0  0  0  0  0  0  0  0  0  0
   18.4762   18.0672   23.5052 H   0  0  0  0  0  0  0  0  0  0  0  0
   19.4786   17.2796   22.2591 H   0  0  0  0  0  0  0  0  0  0  0  0
   18.4598   19.1137   20.5526 O   0  0  0  0  0  0  0  0  0  0  0  0
   17.5162   18.9019   20.7201 H   0  0  0  0  0  0  0  0  0  0  0  0
  1  2  1  0  0  0  0
  1  3  1  0  0  0  0
  1  4  1  0  0  0  0
  4  5  1  0  0  0  0
  4  6  1  0  0  0  0
  4  7  1  0  0  0  0
  7  8  1  0  0  0  0
  1  9  1  0  0  0  0
  7  9  1  0  0  0  0
  9 10  1  0  0  0  0
  9 11  1  0  0  0  0
  7 12  1  0  0  0  0
 12 13  1  0  0  0  0
M  END
> <VConfSearch Rank>
476

> <Conf_Id>
22

> <Delta U+W>
0.000

> <U+W>
-3.131

> <U>
-0.154

> <W>
-2.978

> <W(PB)>
-4.579

> <W(SA)>
1.601

> <Valence>
6.333

> <Coulomb>
-7.439

> <VdW>
0.952

> <VdW6>
-2.120

> <VdW12>
3.072

> <Bond>
0.065

> <Angle>
0.931

> <Pdih>
5.338

> <Idih>
0.000

> <Tether>
0.000

$$$$
VeraChem MOL file


 13 13  0  0  0  0  0  0  0  0999 V2000     
   20.8128   18.9221   21.6621 C   0  0  0  0  0  0  0  0  0  0  0  0
   21.6434   19.1023   22.3574 H   0  0  0  0  0  0  0  0  0  0  0  0
   21.2177   18.8395   20.6465 H   0  0  0  0  0  0  0  0  0  0  0  0
   19.5911   19.8831   21.8387 C   0  0  0  0  0  0  0  0  0  0  0  0
   18.9203   19.9353   20.9720 H   0  0  0  0  0  0  0  0  0  0  0  0
   19.8227   20.9023   22.1672 H   0  0  0  0  0  0  0  0  0  0  0  0
   19.1317   18.8969   22.9547 C   0  0  0  0  0  0  0  0  0  0  0  0
   19.6106   19.0706   23.9281 H   0  0  0  0  0  0  0  0  0  0  0  0
   19.8248   17.7918   22.1019 C   0  0  0  0  0  0  0  0  0  0  0  0
   19.2036   17.3843   21.2947 H   0  0  0  0  0  0  0  0  0  0  0  0
   20.2615   16.9597   22.6648 H   0  0  0  0  0  0  0  0  0  0  0  0
   17.7374   18.7590   23.1007 O   0  0  0  0  0  0  0  0  0  0  0  0
   17.4045   19.5875   23.5082 H   0  0  0  0  0  0  0  0  0  0  0  0
  1  2  1  0  0  0  0
  1  3  1  0  0  0  0
  1  4  1  0  0  0  0
  4  5  1  0  0  0  0
  4  6  1  0  0  0  0
  4  7  1  0  0  0  0
  7  8  1  0  0  0  0
  1  9  1  0  0  0  0
  7  9  1  0  0  0  0
  9 10  1  0  0  0  0
  9 11  1  0  0  0  0
  7 12  1  0  0  0  0
 12 13  1  0  0  0  0
M  END
> <VConfSearch Rank>
477

> <Conf_Id>
19

> <Delta U+W>
-0.011

> <U+W>
-3.142

> <U>
-0.154

> <W>
-2.989

> <W(PB)>
-4.588

> <W(SA)>
1.599

> <Valence>
6.334

> <Coulomb>
-7.439

> <VdW>
0.951

> <VdW6>
-2.120

> <VdW12>
3.072

> <Bond>
0.065

> <Angle>
0.930

> <Pdih>
5.339

> <Idih>
0.000

> <Tether>
0.000

$$$$
VeraChem MOL file


 13 13  0  0  0  0  0  0  0  0999 V2000     
   20.7689   19.0704   21.8051 C   0  0  0  0  0  0  0  0  0  0  0  0
   21.5367   18.4824   21.2887 H   0  0  0  0  0  0  0  0  0  0  0  0
   21.1198   20.1070   21.8920 H   0  0  0  0  0  0  0  0  0  0  0  0
   20.2117   18.4598   23.1339 C   0  0  0  0  0  0  0  0  0  0  0  0
   20.2024   17.3635   23.1620 H   0  0  0  0  0  0  0  0  0  0  0  0
   20.6640   18.8303   24.0605 H   0  0  0  0  0  0  0  0  0  0  0  0
   18.8436   19.1010   22.7436 C   0  0  0  0  0  0  0  0  0  0  0  0
   17.9639   18.5077   23.0246 H   0  0  0  0  0  0  0  0  0  0  0  0
   19.3080   18.9215   21.2644 C   0  0  0  0  0  0  0  0  0  0  0  0
   18.9756   19.6921   20.5601 H   0  0  0  0  0  0  0  0  0  0  0  0
   19.0798   17.9368   20.8386 H   0  0  0  0  0  0  0  0  0  0  0  0
   18.6753   20.4419   23.1583 O   0  0  0  0  0  0  0  0  0  0  0  0
   17.8720   20.7854   22.7123 H   0  0  0  0  0  0  0  0  0  0  0  0
  1  2  1  0  0  0  0
  1  3  1  0  0  0  0
  1  4  1  0  0  0  0
  4  5  1  0  0  0  0
  4  6  1  0  0  0  0
  4  7  1  0  0  0  0
  7  8  1  0  0  0  0
  1  9  1  0  0  0  0
  7  9  1  0  0  0  0
  9 10  1  0  0  0  0
  9 11  1  0  0  0  0
  7 12  1  0  0  0  0
 12 13  1  0  0  0  0
M  END
> <VConfSearch Rank>
478

> <Conf_Id>
20

> <Delta U+W>
1.030

> <U+W>
-2.101

> <U>
0.841

> <W>
-2.942

> <W(PB)>
-4.530

> <W(SA)>
1.587

> <Valence>
6.736

> <Coulomb>
-7.246

> <VdW>
1.352

> <VdW6>
-2.500

> <VdW12>
3.851

> <Bond>
0.063

> <Angle>
0.687

> <Pdih>
5.986

> <Idih>
0.000

> <Tether>
0.000

$$$$
VeraChem MOL file


 13 13  0  0  0  0  0  0  0  0999 V2000     
   19.6511   18.4689   23.3949 C   0  0  0  0  0  0  0  0  0  0  0  0
   20.1405   19.0108   24.2149 H   0  0  0  0  0  0  0  0  0  0  0  0
   19.1609   17.5788   23.8071 H   0  0  0  0  0  0  0  0  0  0  0  0
   20.5500   18.2374   22.1357 C   0  0  0  0  0  0  0  0  0  0  0  0
   21.6206   18.1031   22.3256 H   0  0  0  0  0  0  0  0  0  0  0  0
   20.2073   17.4354   21.4702 H   0  0  0  0  0  0  0  0  0  0  0  0
   20.1126   19.6719   21.7115 C   0  0  0  0  0  0  0  0  0  0  0  0
   20.7027   20.4723   22.1782 H   0  0  0  0  0  0  0  0  0  0  0  0
   18.7770   19.3600   22.4519 C   0  0  0  0  0  0  0  0  0  0  0  0
   18.0381   18.8090   21.8571 H   0  0  0  0  0  0  0  0  0  0  0  0
   18.2818   20.2173   22.9212 H   0  0  0  0  0  0  0  0  0  0  0  0
   19.9994   19.8839   20.3244 O   0  0  0  0  0  0  0  0  0  0  0  0
   19.4666   19.1438   19.9652 H   0  0  0  0  0  0  0  0  0  0  0  0
  1  2  1  0  0  0  0
  1  3  1  0  0  0  0
  1  4  1  0  0  0  0
  4  5  1  0  0  0  0
  4  6  1  0  0  0  0
  4  7  1  0  0  0  0
  7  8  1  0  0  0  0
  1  9  1  0  0  0  0
  7  9  1  0  0  0  0
  9 10  1  0  0  0  0
  9 11  1  0  0  0  0
  7 12  1  0  0  0  0
 12 13  1  0  0  0  0
M  END
> <VConfSearch Rank>
479

> <Conf_Id>
24

> <Delta U+W>
0.356

> <U+W>
-2.775

> <U>
-0.184

> <W>
-2.591

> <W(PB)>
-4.184

> <W(SA)>
1.593

> <Valence>
6.840

> <Coulomb>
-7.916

> <VdW>
0.893

> <VdW6>
-2.167

> <VdW12>
3.060

> <Bond>
0.059

> <Angle>
0.918

> <Pdih>
5.862

> <Idih>
0.000

> <Tether>
0.000

$$$$
VeraChem MOL file


 13 13  0  0  0  0  0  0  0  0999 V2000     
   19.9784   19.0422   23.2953 C   0  0  0  0  0  0  0  0  0  0  0  0
   20.3314   18.4972   24.1789 H   0  0  0  0  0  0  0  0  0  0  0  0
   19.8428   20.0961   23.5694 H   0  0  0  0  0  0  0  0  0  0  0  0
   18.7723   18.3998   22.5320 C   0  0  0  0  0  0  0  0  0  0  0  0
   18.7315   17.3052   22.5880 H   0  0  0  0  0  0  0  0  0  0  0  0
   17.7804   18.7980   22.7734 H   0  0  0  0  0  0  0  0  0  0  0  0
   19.4268   18.9462   21.2254 C   0  0  0  0  0  0  0  0  0  0  0  0
   19.3148   18.2969   20.3477 H   0  0  0  0  0  0  0  0  0  0  0  0
   20.7868   18.8036   21.9763 C   0  0  0  0  0  0  0  0  0  0  0  0
   21.2400   17.8080   21.8961 H   0  0  0  0  0  0  0  0  0  0  0  0
   21.5485   19.5533   21.7341 H   0  0  0  0  0  0  0  0  0  0  0  0
   19.0699   20.2708   20.8942 O   0  0  0  0  0  0  0  0  0  0  0  0
   19.1884   20.8008   21.7092 H   0  0  0  0  0  0  0  0  0  0  0  0
  1  2  1  0  0  0  0
  1  3  1  0  0  0  0
  1  4  1  0  0  0  0
  4  5  1  0  0  0  0
  4  6  1  0  0  0  0
  4  7  1  0  0  0  0
  7  8  1  0  0  0  0
  1  9  1  0  0  0  0
  7  9  1  0  0  0  0
  9 10  1  0  0  0  0
  9 11  1  0  0  0  0
  7 12  1  0  0  0  0
 12 13  1  0  0  0  0
M  END
> <VConfSearch Rank>
480

> <Conf_Id>
44

> <Delta U+W>
0.823

> <U+W>
-2.308

> <U>
0.039

> <W>
-2.348

> <W(PB)>
-3.918

> <W(SA)>
1.571

> <Valence>
7.320

> <Coulomb>
-8.530

> <VdW>
1.249

> <VdW6>
-2.615

> <VdW12>
3.864

> <Bond>
0.056

> <Angle>
0.694

> <Pdih>
6.570

> <Idih>
0.000

> <Tether>
0.000

$$$$
VeraChem MOL file


 13 13  0  0  0  0  0  0  0  0999 V2000     
   18.6219   18.9183   21.4525 C   0  0  0  0  0  0  0  0  0  0  0  0
   18.8885   18.8434   20.3900 H   0  0  0  0  0  0  0  0  0  0  0  0
   17.5347   18.8138   21.5492 H   0  0  0  0  0  0  0  0  0  0  0  0
   19.2653   20.1298   22.2046 C   0  0  0  0  0  0  0  0  0  0  0  0
   19.4253   21.0372   21.6122 H   0  0  0  0  0  0  0  0  0  0  0  0
   18.7686   20.4043   23.1436 H   0  0  0  0  0  0  0  0  0  0  0  0
   20.5083   19.2058   22.3780 C   0  0  0  0  0  0  0  0  0  0  0  0
   21.1760   19.1935   21.5056 H   0  0  0  0  0  0  0  0  0  0  0  0
   19.4853   18.0303   22.4082 C   0  0  0  0  0  0  0  0  0  0  0  0
   19.8381   17.0790   21.9949 H   0  0  0  0  0  0  0  0  0  0  0  0
   19.0349   17.8432   23.3910 H   0  0  0  0  0  0  0  0  0  0  0  0
   21.2407   19.3982   23.5659 O   0  0  0  0  0  0  0  0  0  0  0  0
   21.8852   18.6610   23.6325 H   0  0  0  0  0  0  0  0  0  0  0  0
  1  2  1  0  0  0  0
  1  3  1  0  0  0  0
  1  4  1  0  0  0  0
  4  5  1  0  0  0  0
  4  6  1  0  0  0  0
  4  7  1  0  0  0  0
  7  8  1  0  0  0  0
  1  9  1  0  0  0  0
  7  9  1  0  0  0  0
  9 10  1  0  0  0  0
  9 11  1  0  0  0  0
  7 12  1  0  0  0  0
 12 13  1  0  0  0  0
M  END
> <VConfSearch Rank>
481

> <Conf_Id>
22

> <Delta U+W>
0.000

> <U+W>
-3.131

> <U>
-0.154

> <W>
-2.978

> <W(PB)>
-4.579

> <W(SA)>
1.601

> <Valence>
6.333

> <Coulomb>
-7.439

> <VdW>
0.952

> <VdW6>
-2.120

> <VdW12>
3.072

> <Bond>
0.065

> <Angle>
0.931

> <Pdih>
5.338

> <Idih>
0.000

> <Tether>
0.000

$$$$
VeraChem MOL file


 13 13  0  0  0  0  0  0  0  0999 V2000     
   18.5922   18.4294   21.5985 C   0  0  0  0  0  0  0  0  0  0  0  0
   18.3059   19.0171   20.7163 H   0  0  0  0  0  0  0  0  0  0  0  0
   17.8795   17.6044   21.7163 H   0  0  0  0  0  0  0  0  0  0  0  0
   18.8829   19.2748   22.8822 C   0  0  0  0  0  0  0  0  0  0  0  0
   18.8450   18.7092   23.8216 H   0  0  0  0  0  0  0  0  0  0  0  0
   18.2953   20.1920   22.9989 H   0  0  0  0  0  0  0  0  0  0  0  0
   20.3142   19.4547   22.2920 C   0  0  0  0  0  0  0  0  0  0  0  0
   20.3926   20.2619   21.5508 H   0  0  0  0  0  0  0  0  0  0  0  0
   20.1068   18.0434   21.6642 C   0  0  0  0  0  0  0  0  0  0  0  0
   20.3397   17.2083   22.3365 H   0  0  0  0  0  0  0  0  0  0  0  0
   20.6043   17.8717   20.7035 H   0  0  0  0  0  0  0  0  0  0  0  0
   21.3508   19.5450   23.2416 O   0  0  0  0  0  0  0  0  0  0  0  0
   21.2728   20.4224   23.6745 H   0  0  0  0  0  0  0  0  0  0  0  0
  1  2  1  0  0  0  0
  1  3  1  0  0  0  0
  1  4  1  0  0  0  0
  4  5  1  0  0  0  0
  4  6  1  0  0  0  0
  4  7  1  0  0  0  0
  7  8  1  0  0  0  0
  1  9  1  0  0  0  0
  7  9  1  0  0  0  0
  9 10  1  0  0  0  0
  9 11  1  0  0  0  0
  7 12  1  0  0  0  0
 12 13  1  0  0  0  0
M  END
> <VConfSearch Rank>
482

> <Conf_Id>
19

> <Delta U+W>
-0.011

> <U+W>
-3.142

> <U>
-0.154

> <W>
-2.989

> <W(PB)>
-4.588

> <W(SA)>
1.599

> <Valence>
6.334

> <Coulomb>
-7.439

> <VdW>
0.951

> <VdW6>
-2.120

> <VdW12>
3.072

> <Bond>
0.065

> <Angle>
0.930

> <Pdih>
5.339

> <Idih>
0.000

> <Tether>
0.000

$$$$
VeraChem MOL file


 13 13  0  0  0  0  0  0  0  0999 V2000     
   20.0918   19.8999   21.5117 C   0  0  0  0  0  0  0  0  0  0  0  0
   20.8265   20.7053   21.3955 H   0  0  0  0  0  0  0  0  0  0  0  0
   19.5965   19.7344   20.5460 H   0  0  0  0  0  0  0  0  0  0  0  0
   19.1161   20.0283   22.7285 C   0  0  0  0  0  0  0  0  0  0  0  0
   19.5412   20.5399   23.6005 H   0  0  0  0  0  0  0  0  0  0  0  0
   18.1328   20.4609   22.5132 H   0  0  0  0  0  0  0  0  0  0  0  0
   19.1679   18.4709   22.8128 C   0  0  0  0  0  0  0  0  0  0  0  0
   19.1302   18.0668   23.8327 H   0  0  0  0  0  0  0  0  0  0  0  0
   20.6029   18.5973   22.2121 C   0  0  0  0  0  0  0  0  0  0  0  0
   20.9178   17.7859   21.5466 H   0  0  0  0  0  0  0  0  0  0  0  0
   21.3892   18.7621   22.9589 H   0  0  0  0  0  0  0  0  0  0  0  0
   18.2337   17.7994   21.9916 O   0  0  0  0  0  0  0  0  0  0  0  0
   18.4751   16.8487   21.9940 H   0  0  0  0  0  0  0  0  0  0  0  0
  1  2  1  0  0  0  0
  1  3  1  0  0  0  0
  1  4  1  0  0  0  0
  4  5  1  0  0  0  0
  4  6  1  0  0  0  0
  4  7  1  0  0  0  0
  7  8  1  0  0  0  0
  1  9  1  0  0  0  0
  7  9  1  0  0  0  0
  9 10  1  0  0  0  0
  9 11  1  0  0  0  0
  7 12  1  0  0  0  0
 12 13  1  0  0  0  0
M  END
> <VConfSearch Rank>
483

> <Conf_Id>
20

> <Delta U+W>
1.030

> <U+W>
-2.101

> <U>
0.841

> <W>
-2.942

> <W(PB)>
-4.530

> <W(SA)>
1.587

> <Valence>
6.736

> <Coulomb>
-7.246

> <VdW>
1.352

> <VdW6>
-2.500

> <VdW12>
3.851

> <Bond>
0.063

> <Angle>
0.687

> <Pdih>
5.986

> <Idih>
0.000

> <Tether>
0.000

$$$$
VeraChem MOL file


 13 13  0  0  0  0  0  0  0  0999 V2000     
   20.1602   18.9351   20.9991 C   0  0  0  0  0  0  0  0  0  0  0  0
   19.7266   19.6585   20.2960 H   0  0  0  0  0  0  0  0  0  0  0  0
   20.8960   18.3239   20.4630 H   0  0  0  0  0  0  0  0  0  0  0  0
   19.1145   18.1532   21.8608 C   0  0  0  0  0  0  0  0  0  0  0  0
   18.1509   17.9487   21.3812 H   0  0  0  0  0  0  0  0  0  0  0  0
   19.4910   17.2234   22.3047 H   0  0  0  0  0  0  0  0  0  0  0  0
   19.1505   19.3917   22.8063 C   0  0  0  0  0  0  0  0  0  0  0  0
   18.5001   20.2160   22.4835 H   0  0  0  0  0  0  0  0  0  0  0  0
   20.6350   19.5477   22.3580 C   0  0  0  0  0  0  0  0  0  0  0  0
   21.3514   18.9295   22.9130 H   0  0  0  0  0  0  0  0  0  0  0  0
   21.0143   20.5747   22.3175 H   0  0  0  0  0  0  0  0  0  0  0  0
   18.9578   19.1145   24.1730 O   0  0  0  0  0  0  0  0  0  0  0  0
   19.5603   18.3760   24.4021 H   0  0  0  0  0  0  0  0  0  0  0  0
  1  2  1  0  0  0  0
  1  3  1  0  0  0  0
  1  4  1  0  0  0  0
  4  5  1  0  0  0  0
  4  6  1  0  0  0  0
  4  7  1  0  0  0  0
  7  8  1  0  0  0  0
  1  9  1  0  0  0  0
  7  9  1  0  0  0  0
  9 10  1  0  0  0  0
  9 11  1  0  0  0  0
  7 12  1  0  0  0  0
 12 13  1  0  0  0  0
M  END
> <VConfSearch Rank>
484

> <Conf_Id>
24

> <Delta U+W>
0.356

> <U+W>
-2.775

> <U>
-0.184

> <W>
-2.591

> <W(PB)>
-4.184

> <W(SA)>
1.593

> <Valence>
6.840

> <Coulomb>
-7.916

> <VdW>
0.893

> <VdW6>
-2.167

> <VdW12>
3.060

> <Bond>
0.059

> <Angle>
0.918

> <Pdih>
5.862

> <Idih>
0.000

> <Tether>
0.000

$$$$
VeraChem MOL file


 13 13  0  0  0  0  0  0  0  0999 V2000     
   20.7723   19.2180   22.0081 C   0  0  0  0  0  0  0  0  0  0  0  0
   21.7356   19.5026   22.4480 H   0  0  0  0  0  0  0  0  0  0  0  0
   20.8980   19.1376   20.9209 H   0  0  0  0  0  0  0  0  0  0  0  0
   19.5351   20.0599   22.4674 C   0  0  0  0  0  0  0  0  0  0  0  0
   19.6083   20.4532   23.4887 H   0  0  0  0  0  0  0  0  0  0  0  0
   19.2312   20.8752   21.8013 H   0  0  0  0  0  0  0  0  0  0  0  0
   18.7101   18.7409   22.3510 C   0  0  0  0  0  0  0  0  0  0  0  0
   17.9217   18.6225   23.1054 H   0  0  0  0  0  0  0  0  0  0  0  0
   20.0458   18.0044   22.6785 C   0  0  0  0  0  0  0  0  0  0  0  0
   20.2442   17.8937   23.7516 H   0  0  0  0  0  0  0  0  0  0  0  0
   20.1864   17.0306   22.1963 H   0  0  0  0  0  0  0  0  0  0  0  0
   18.1904   18.4797   21.0652 O   0  0  0  0  0  0  0  0  0  0  0  0
   18.9327   18.5997   20.4376 H   0  0  0  0  0  0  0  0  0  0  0  0
  1  2  1  0  0  0  0
  1  3  1  0  0  0  0
  1  4  1  0  0  0  0
  4  5  1  0  0  0  0
  4  6  1  0  0  0  0
  4  7  1  0  0  0  0
  7  8  1  0  0  0  0
  1  9  1  0  0  0  0
  7  9  1  0  0  0  0
  9 10  1  0  0  0  0
  9 11  1  0  0  0  0
  7 12  1  0  0  0  0
 12 13  1  0  0  0  0
M  END
> <VConfSearch Rank>
485

> <Conf_Id>
44

> <Delta U+W>
0.823

> <U+W>
-2.308

> <U>
0.039

> <W>
-2.348

> <W(PB)>
-3.918

> <W(SA)>
1.571

> <Valence>
7.320

> <Coulomb>
-8.530

> <VdW>
1.249

> <VdW6>
-2.615

> <VdW12>
3.864

> <Bond>
0.056

> <Angle>
0.694

> <Pdih>
6.570

> <Idih>
0.000

> <Tether>
0.000

$$$$
VeraChem MOL file


 13 13  0  0  0  0  0  0  0  0999 V2000     
   20.3171   18.7016   21.1518 C   0  0  0  0  0  0  0  0  0  0  0  0
   20.4056   17.6155   21.0167 H   0  0  0  0  0  0  0  0  0  0  0  0
   20.7643   19.2003   20.2837 H   0  0  0  0  0  0  0  0  0  0  0  0
   20.7706   19.2257   22.5543 C   0  0  0  0  0  0  0  0  0  0  0  0
   21.5873   18.6763   23.0350 H   0  0  0  0  0  0  0  0  0  0  0  0
   20.9962   20.2987   22.5932 H   0  0  0  0  0  0  0  0  0  0  0  0
   19.3328   18.8508   23.0243 C   0  0  0  0  0  0  0  0  0  0  0  0
   19.2151   17.7904   23.2865 H   0  0  0  0  0  0  0  0  0  0  0  0
   18.8926   19.1953   21.5694 C   0  0  0  0  0  0  0  0  0  0  0  0
   18.0480   18.6188   21.1765 H   0  0  0  0  0  0  0  0  0  0  0  0
   18.7065   20.2616   21.3900 H   0  0  0  0  0  0  0  0  0  0  0  0
   18.7930   19.6775   24.0292 O   0  0  0  0  0  0  0  0  0  0  0  0
   17.8435   19.4453   24.1176 H   0  0  0  0  0  0  0  0  0  0  0  0
  1  2  1  0  0  0  0
  1  3  1  0  0  0  0
  1  4  1  0  0  0  0
  4  5  1  0  0  0  0
  4  6  1  0  0  0  0
  4  7  1  0  0  0  0
  7  8  1  0  0  0  0
  1  9  1  0  0  0  0
  7  9  1  0  0  0  0
  9 10  1  0  0  0  0
  9 11  1  0  0  0  0
  7 12  1  0  0  0  0
 12 13  1  0  0  0  0
M  END
> <VConfSearch Rank>
486

> <Conf_Id>
22

> <Delta U+W>
0.000

> <U+W>
-3.131

> <U>
-0.154

> <W>
-2.978

> <W(PB)>
-4.579

> <W(SA)>
1.601

> <Valence>
6.333

> <Coulomb>
-7.439

> <VdW>
0.952

> <VdW6>
-2.120

> <VdW12>
3.072

> <Bond>
0.065

> <Angle>
0.931

> <Pdih>
5.338

> <Idih>
0.000

> <Tether>
0.000

$$$$
VeraChem MOL file


 13 13  0  0  0  0  0  0  0  0999 V2000     
   20.2524   20.0078   21.8188 C   0  0  0  0  0  0  0  0  0  0  0  0
   20.5012   20.7141   22.6218 H   0  0  0  0  0  0  0  0  0  0  0  0
   20.5586   20.4443   20.8607 H   0  0  0  0  0  0  0  0  0  0  0  0
   18.7982   19.4341   21.8790 C   0  0  0  0  0  0  0  0  0  0  0  0
   18.4359   19.0044   20.9367 H   0  0  0  0  0  0  0  0  0  0  0  0
   18.0307   20.1062   22.2783 H   0  0  0  0  0  0  0  0  0  0  0  0
   19.3804   18.3940   22.8832 C   0  0  0  0  0  0  0  0  0  0  0  0
   19.4476   18.7612   23.9165 H   0  0  0  0  0  0  0  0  0  0  0  0
   20.7081   18.5340   22.0792 C   0  0  0  0  0  0  0  0  0  0  0  0
   20.7646   17.9050   21.1821 H   0  0  0  0  0  0  0  0  0  0  0  0
   21.6302   18.4078   22.6568 H   0  0  0  0  0  0  0  0  0  0  0  0
   18.7839   17.1184   22.8435 O   0  0  0  0  0  0  0  0  0  0  0  0
   17.8903   17.2029   23.2405 H   0  0  0  0  0  0  0  0  0  0  0  0
  1  2  1  0  0  0  0
  1  3  1  0  0  0  0
  1  4  1  0  0  0  0
  4  5  1  0  0  0  0
  4  6  1  0  0  0  0
  4  7  1  0  0  0  0
  7  8  1  0  0  0  0
  1  9  1  0  0  0  0
  7  9  1  0  0  0  0
  9 10  1  0  0  0  0
  9 11  1  0  0  0  0
  7 12  1  0  0  0  0
 12 13  1  0  0  0  0
M  END
> <VConfSearch Rank>
487

> <Conf_Id>
19

> <Delta U+W>
-0.011

> <U+W>
-3.142

> <U>
-0.154

> <W>
-2.989

> <W(PB)>
-4.588

> <W(SA)>
1.599

> <Valence>
6.334

> <Coulomb>
-7.439

> <VdW>
0.951

> <VdW6>
-2.120

> <VdW12>
3.072

> <Bond>
0.065

> <Angle>
0.930

> <Pdih>
5.339

> <Idih>
0.000

> <Tether>
0.000

$$$$
VeraChem MOL file


 13 13  0  0  0  0  0  0  0  0999 V2000     
   19.3957   19.8243   23.2120 C   0  0  0  0  0  0  0  0  0  0  0  0
   19.7559   20.2128   24.1718 H   0  0  0  0  0  0  0  0  0  0  0  0
   18.4872   20.3724   22.9300 H   0  0  0  0  0  0  0  0  0  0  0  0
   19.2761   18.2679   23.1004 C   0  0  0  0  0  0  0  0  0  0  0  0
   20.0058   17.7113   23.7008 H   0  0  0  0  0  0  0  0  0  0  0  0
   18.2805   17.8476   23.2805 H   0  0  0  0  0  0  0  0  0  0  0  0
   19.6787   18.4395   21.6024 C   0  0  0  0  0  0  0  0  0  0  0  0
   20.3059   17.6323   21.2023 H   0  0  0  0  0  0  0  0  0  0  0  0
   20.4626   19.7043   22.0735 C   0  0  0  0  0  0  0  0  0  0  0  0
   20.5021   20.5369   21.3625 H   0  0  0  0  0  0  0  0  0  0  0  0
   21.4804   19.4963   22.4254 H   0  0  0  0  0  0  0  0  0  0  0  0
   18.6024   18.6970   20.7230 O   0  0  0  0  0  0  0  0  0  0  0  0
   18.9884   18.9572   19.8596 H   0  0  0  0  0  0  0  0  0  0  0  0
  1  2  1  0  0  0  0
  1  3  1  0  0  0  0
  1  4  1  0  0  0  0
  4  5  1  0  0  0  0
  4  6  1  0  0  0  0
  4  7  1  0  0  0  0
  7  8  1  0  0  0  0
  1  9  1  0  0  0  0
  7  9  1  0  0  0  0
  9 10  1  0  0  0  0
  9 11  1  0  0  0  0
  7 12  1  0  0  0  0
 12 13  1  0  0  0  0
M  END
> <VConfSearch Rank>
488

> <Conf_Id>
20

> <Delta U+W>
1.030

> <U+W>
-2.101

> <U>
0.841

> <W>
-2.942

> <W(PB)>
-4.530

> <W(SA)>
1.587

> <Valence>
6.736

> <Coulomb>
-7.246

> <VdW>
1.352

> <VdW6>
-2.500

> <VdW12>
3.851

> <Bond>
0.063

> <Angle>
0.687

> <Pdih>
5.986

> <Idih>
0.000

> <Tether>
0.000

$$$$
VeraChem MOL file


 13 13  0  0  0  0  0  0  0  0999 V2000     
   20.5573   19.8970   21.9033 C   0  0  0  0  0  0  0  0  0  0  0  0
   21.0740   19.8367   20.9364 H   0  0  0  0  0  0  0  0  0  0  0  0
   20.8768   20.8131   22.4144 H   0  0  0  0  0  0  0  0  0  0  0  0
   20.6040   18.5842   22.7529 C   0  0  0  0  0  0  0  0  0  0  0  0
   21.5065   17.9723   22.6455 H   0  0  0  0  0  0  0  0  0  0  0  0
   20.3980   18.7231   23.8213 H   0  0  0  0  0  0  0  0  0  0  0  0
   19.3774   18.1358   21.9024 C   0  0  0  0  0  0  0  0  0  0  0  0
   19.6462   17.7009   20.9301 H   0  0  0  0  0  0  0  0  0  0  0  0
   19.0139   19.6499   21.8366 C   0  0  0  0  0  0  0  0  0  0  0  0
   18.4525   20.0271   22.7003 H   0  0  0  0  0  0  0  0  0  0  0  0
   18.5121   19.9793   20.9201 H   0  0  0  0  0  0  0  0  0  0  0  0
   18.4452   17.3189   22.5699 O   0  0  0  0  0  0  0  0  0  0  0  0
   18.2446   17.7546   23.4247 H   0  0  0  0  0  0  0  0  0  0  0  0
  1  2  1  0  0  0  0
  1  3  1  0  0  0  0
  1  4  1  0  0  0  0
  4  5  1  0  0  0  0
  4  6  1  0  0  0  0
  4  7  1  0  0  0  0
  7  8  1  0  0  0  0
  1  9  1  0  0  0  0
  7  9  1  0  0  0  0
  9 10  1  0  0  0  0
  9 11  1  0  0  0  0
  7 12  1  0  0  0  0
 12 13  1  0  0  0  0
M  END
> <VConfSearch Rank>
489

> <Conf_Id>
24

> <Delta U+W>
0.356

> <U+W>
-2.775

> <U>
-0.184

> <W>
-2.591

> <W(PB)>
-4.184

> <W(SA)>
1.593

> <Valence>
6.840

> <Coulomb>
-7.916

> <VdW>
0.893

> <VdW6>
-2.167

> <VdW12>
3.060

> <Bond>
0.059

> <Angle>
0.918

> <Pdih>
5.862

> <Idih>
0.000

> <Tether>
0.000

$$$$
VeraChem MOL file


 13 13  0  0  0  0  0  0  0  0999 V2000     
   19.4938   17.8701   22.3322 C   0  0  0  0  0  0  0  0  0  0  0  0
   18.7484   17.0691   22.2606 H   0  0  0  0  0  0  0  0  0  0  0  0
   20.4449   17.4303   22.6580 H   0  0  0  0  0  0  0  0  0  0  0  0
   19.0528   19.1462   23.1242 C   0  0  0  0  0  0  0  0  0  0  0  0
   17.9785   19.3618   23.0747 H   0  0  0  0  0  0  0  0  0  0  0  0
   19.3705   19.1986   24.1716 H   0  0  0  0  0  0  0  0  0  0  0  0
   19.9129   19.9612   22.1093 C   0  0  0  0  0  0  0  0  0  0  0  0
   19.5022   20.9431   21.8417 H   0  0  0  0  0  0  0  0  0  0  0  0
   19.5981   18.8204   21.0927 C   0  0  0  0  0  0  0  0  0  0  0  0
   18.6575   18.9561   20.5451 H   0  0  0  0  0  0  0  0  0  0  0  0
   20.3904   18.5892   20.3719 H   0  0  0  0  0  0  0  0  0  0  0  0
   21.2755   20.0862   22.4550 O   0  0  0  0  0  0  0  0  0  0  0  0
   21.5863   19.1857   22.6829 H   0  0  0  0  0  0  0  0  0  0  0  0
  1  2  1  0  0  0  0
  1  3  1  0  0  0  0
  1  4  1  0  0  0  0
  4  5  1  0  0  0  0
  4  6  1  0  0  0  0
  4  7  1  0  0  0  0
  7  8  1  0  0  0  0
  1  9  1  0  0  0  0
  7  9  1  0  0  0  0
  9 10  1  0  0  0  0
  9 11  1  0  0  0  0
  7 12  1  0  0  0  0
 12 13  1  0  0  0  0
M  END
> <VConfSearch Rank>
490

> <Conf_Id>
44

> <Delta U+W>
0.823

> <U+W>
-2.308

> <U>
0.039

> <W>
-2.348

> <W(PB)>
-3.918

> <W(SA)>
1.571

> <Valence>
7.320

> <Coulomb>
-8.530

> <VdW>
1.249

> <VdW6>
-2.615

> <VdW12>
3.864

> <Bond>
0.056

> <Angle>
0.694

> <Pdih>
6.570

> <Idih>
0.000

> <Tether>
0.000

$$$$
VeraChem MOL file


 13 13  0  0  0  0  0  0  0  0999 V2000     
   19.8471   20.0387   23.0952 C   0  0  0  0  0  0  0  0  0  0  0  0
   19.0080   20.1787   23.7895 H   0  0  0  0  0  0  0  0  0  0  0  0
   20.6356   20.7572   23.3492 H   0  0  0  0  0  0  0  0  0  0  0  0
   19.4426   19.9677   21.5857 C   0  0  0  0  0  0  0  0  0  0  0  0
   18.5768   20.5693   21.2881 H   0  0  0  0  0  0  0  0  0  0  0  0
   20.2620   20.1557   20.8808 H   0  0  0  0  0  0  0  0  0  0  0  0
   19.1586   18.4598   21.8582 C   0  0  0  0  0  0  0  0  0  0  0  0
   18.1680   18.2672   22.2926 H   0  0  0  0  0  0  0  0  0  0  0  0
   20.3038   18.5538   22.9112 C   0  0  0  0  0  0  0  0  0  0  0  0
   20.2010   17.9055   23.7883 H   0  0  0  0  0  0  0  0  0  0  0  0
   21.3133   18.4328   22.4989 H   0  0  0  0  0  0  0  0  0  0  0  0
   19.4062   17.5948   20.7741 O   0  0  0  0  0  0  0  0  0  0  0  0
   19.3498   16.6767   21.1162 H   0  0  0  0  0  0  0  0  0  0  0  0
  1  2  1  0  0  0  0
  1  3  1  0  0  0  0
  1  4  1  0  0  0  0
  4  5  1  0  0  0  0
  4  6  1  0  0  0  0
  4  7  1  0  0  0  0
  7  8  1  0  0  0  0
  1  9  1  0  0  0  0
  7  9  1  0  0  0  0
  9 10  1  0  0  0  0
  9 11  1  0  0  0  0
  7 12  1  0  0  0  0
 12 13  1  0  0  0  0
M  END
> <VConfSearch Rank>
491

> <Conf_Id>
22

> <Delta U+W>
0.000

> <U+W>
-3.131

> <U>
-0.154

> <W>
-2.978

> <W(PB)>
-4.579

> <W(SA)>
1.601

> <Valence>
6.333

> <Coulomb>
-7.439

> <VdW>
0.952

> <VdW6>
-2.120

> <VdW12>
3.072

> <Bond>
0.065

> <Angle>
0.931

> <Pdih>
5.338

> <Idih>
0.000

> <Tether>
0.000

$$$$
VeraChem MOL file


 13 13  0  0  0  0  0  0  0  0999 V2000     
   19.3848   17.6625   21.9532 C   0  0  0  0  0  0  0  0  0  0  0  0
   19.5987   16.9731   22.7806 H   0  0  0  0  0  0  0  0  0  0  0  0
   19.0686   17.0767   21.0819 H   0  0  0  0  0  0  0  0  0  0  0  0
   20.4916   18.7371   21.6937 C   0  0  0  0  0  0  0  0  0  0  0  0
   20.4545   19.2024   20.7008 H   0  0  0  0  0  0  0  0  0  0  0  0
   21.5221   18.4276   21.8998 H   0  0  0  0  0  0  0  0  0  0  0  0
   19.7896   19.5556   22.8190 C   0  0  0  0  0  0  0  0  0  0  0  0
   20.0885   19.2640   23.8352 H   0  0  0  0  0  0  0  0  0  0  0  0
   18.4740   18.8767   22.3320 C   0  0  0  0  0  0  0  0  0  0  0  0
   17.9939   19.3746   21.4804 H   0  0  0  0  0  0  0  0  0  0  0  0
   17.7190   18.6926   23.1040 H   0  0  0  0  0  0  0  0  0  0  0  0
   19.8374   20.9552   22.6658 O   0  0  0  0  0  0  0  0  0  0  0  0
   20.7594   21.2364   22.8504 H   0  0  0  0  0  0  0  0  0  0  0  0
  1  2  1  0  0  0  0
  1  3  1  0  0  0  0
  1  4  1  0  0  0  0
  4  5  1  0  0  0  0
  4  6  1  0  0  0  0
  4  7  1  0  0  0  0
  7  8  1  0  0  0  0
  1  9  1  0  0  0  0
  7  9  1  0  0  0  0
  9 10  1  0  0  0  0
  9 11  1  0  0  0  0
  7 12  1  0  0  0  0
 12 13  1  0  0  0  0
M  END
> <VConfSearch Rank>
492

> <Conf_Id>
19

> <Delta U+W>
-0.011

> <U+W>
-3.142

> <U>
-0.154

> <W>
-2.989

> <W(PB)>
-4.588

> <W(SA)>
1.599

> <Valence>
6.334

> <Coulomb>
-7.439

> <VdW>
0.951

> <VdW6>
-2.120

> <VdW12>
3.072

> <Bond>
0.065

> <Angle>
0.930

> <Pdih>
5.339

> <Idih>
0.000

> <Tether>
0.000

$$$$
VeraChem MOL file


 13 13  0  0  0  0  0  0  0  0999 V2000     
   20.4412   19.9708   22.1297 C   0  0  0  0  0  0  0  0  0  0  0  0
   21.1487   20.6384   22.6353 H   0  0  0  0  0  0  0  0  0  0  0  0
   20.5110   20.1401   21.0473 H   0  0  0  0  0  0  0  0  0  0  0  0
   18.9811   19.9609   22.6928 C   0  0  0  0  0  0  0  0  0  0  0  0
   18.9073   20.1569   23.7693 H   0  0  0  0  0  0  0  0  0  0  0  0
   18.2595   20.5985   22.1701 H   0  0  0  0  0  0  0  0  0  0  0  0
   18.9469   18.4472   22.3146 C   0  0  0  0  0  0  0  0  0  0  0  0
   18.3797   17.8150   23.0100 H   0  0  0  0  0  0  0  0  0  0  0  0
   20.4886   18.4662   22.5571 C   0  0  0  0  0  0  0  0  0  0  0  0
   21.0831   17.8038   21.9181 H   0  0  0  0  0  0  0  0  0  0  0  0
   20.7809   18.2999   23.6010 H   0  0  0  0  0  0  0  0  0  0  0  0
   18.5548   18.1753   20.9840 O   0  0  0  0  0  0  0  0  0  0  0  0
   18.7389   17.2268   20.8148 H   0  0  0  0  0  0  0  0  0  0  0  0
  1  2  1  0  0  0  0
  1  3  1  0  0  0  0
  1  4  1  0  0  0  0
  4  5  1  0  0  0  0
  4  6  1  0  0  0  0
  4  7  1  0  0  0  0
  7  8  1  0  0  0  0
  1  9  1  0  0  0  0
  7  9  1  0  0  0  0
  9 10  1  0  0  0  0
  9 11  1  0  0  0  0
  7 12  1  0  0  0  0
 12 13  1  0  0  0  0
M  END
> <VConfSearch Rank>
493

> <Conf_Id>
20

> <Delta U+W>
1.030

> <U+W>
-2.101

> <U>
0.841

> <W>
-2.942

> <W(PB)>
-4.530

> <W(SA)>
1.587

> <Valence>
6.736

> <Coulomb>
-7.246

> <VdW>
1.352

> <VdW6>
-2.500

> <VdW12>
3.851

> <Bond>
0.063

> <Angle>
0.687

> <Pdih>
5.986

> <Idih>
0.000

> <Tether>
0.000

$$$$
VeraChem MOL file


 13 13  0  0  0  0  0  0  0  0999 V2000     
   19.6376   20.0113   21.4970 C   0  0  0  0  0  0  0  0  0  0  0  0
   19.7667   19.9147   20.4108 H   0  0  0  0  0  0  0  0  0  0  0  0
   19.4313   21.0621   21.7328 H   0  0  0  0  0  0  0  0  0  0  0  0
   20.7512   19.3210   22.3519 C   0  0  0  0  0  0  0  0  0  0  0  0
   21.7552   19.3053   21.9137 H   0  0  0  0  0  0  0  0  0  0  0  0
   20.8238   19.6813   23.3854 H   0  0  0  0  0  0  0  0  0  0  0  0
   19.9128   18.0198   22.1695 C   0  0  0  0  0  0  0  0  0  0  0  0
   20.1011   17.4995   21.2205 H   0  0  0  0  0  0  0  0  0  0  0  0
   18.6709   18.9608   22.1367 C   0  0  0  0  0  0  0  0  0  0  0  0
   18.2785   19.2407   23.1221 H   0  0  0  0  0  0  0  0  0  0  0  0
   17.8376   18.6271   21.5084 H   0  0  0  0  0  0  0  0  0  0  0  0
   19.9578   17.1157   23.2477 O   0  0  0  0  0  0  0  0  0  0  0  0
   19.7840   17.6334   24.0616 H   0  0  0  0  0  0  0  0  0  0  0  0
  1  2  1  0  0  0  0
  1  3  1  0  0  0  0
  1  4  1  0  0  0  0
  4  5  1  0  0  0  0
  4  6  1  0  0  0  0
  4  7  1  0  0  0  0
  7  8  1  0  0  0  0
  1  9  1  0  0  0  0
  7  9  1  0  0  0  0
  9 10  1  0  0  0  0
  9 11  1  0  0  0  0
  7 12  1  0  0  0  0
 12 13  1  0  0  0  0
M  END
> <VConfSearch Rank>
494

> <Conf_Id>
24

> <Delta U+W>
0.356

> <U+W>
-2.775

> <U>
-0.184

> <W>
-2.591

> <W(PB)>
-4.184

> <W(SA)>
1.593

> <Valence>
6.840

> <Coulomb>
-7.916

> <VdW>
0.893

> <VdW6>
-2.167

> <VdW12>
3.060

> <Bond>
0.059

> <Angle>
0.918

> <Pdih>
5.862

> <Idih>
0.000

> <Tether>
0.000

$$$$
VeraChem MOL file


 13 13  0  0  0  0  0  0  0  0999 V2000     
   20.6131   19.1456   22.8330 C   0  0  0  0  0  0  0  0  0  0  0  0
   21.0811   19.7667   23.6061 H   0  0  0  0  0  0  0  0  0  0  0  0
   21.3272   18.3676   22.5344 H   0  0  0  0  0  0  0  0  0  0  0  0
   19.9460   19.9178   21.6461 C   0  0  0  0  0  0  0  0  0  0  0  0
   19.5450   20.9028   21.9144 H   0  0  0  0  0  0  0  0  0  0  0  0
   20.5501   20.0234   20.7380 H   0  0  0  0  0  0  0  0  0  0  0  0
   18.8787   18.7800   21.6264 C   0  0  0  0  0  0  0  0  0  0  0  0
   17.8601   19.1081   21.3827 H   0  0  0  0  0  0  0  0  0  0  0  0
   19.1706   18.6282   23.1514 C   0  0  0  0  0  0  0  0  0  0  0  0
   18.5795   19.2971   23.7888 H   0  0  0  0  0  0  0  0  0  0  0  0
   19.0997   17.6114   23.5537 H   0  0  0  0  0  0  0  0  0  0  0  0
   19.2244   17.6580   20.8433 O   0  0  0  0  0  0  0  0  0  0  0  0
   20.1364   17.4113   21.1017 H   0  0  0  0  0  0  0  0  0  0  0  0
  1  2  1  0  0  0  0
  1  3  1  0  0  0  0
  1  4  1  0  0  0  0
  4  5  1  0  0  0  0
  4  6  1  0  0  0  0
  4  7  1  0  0  0  0
  7  8  1  0  0  0  0
  1  9  1  0  0  0  0
  7  9  1  0  0  0  0
  9 10  1  0  0  0  0
  9 11  1  0  0  0  0
  7 12  1  0  0  0  0
 12 13  1  0  0  0  0
M  END
> <VConfSearch Rank>
495

> <Conf_Id>
44

> <Delta U+W>
0.823

> <U+W>
-2.308

> <U>
0.039

> <W>
-2.348

> <W(PB)>
-3.918

> <W(SA)>
1.571

> <Valence>
7.320

> <Coulomb>
-8.530

> <VdW>
1.249

> <VdW6>
-2.615

> <VdW12>
3.864

> <Bond>
0.056

> <Angle>
0.694

> <Pdih>
6.570

> <Idih>
0.000

> <Tether>
0.000

$$$$
VeraChem MOL file


 13 13  0  0  0  0  0  0  0  0999 V2000     
   18.7601   19.9800   22.4492 C   0  0  0  0  0  0  0  0  0  0  0  0
   18.6399   20.2522   23.5062 H   0  0  0  0  0  0  0  0  0  0  0  0
   18.1073   20.6219   21.8458 H   0  0  0  0  0  0  0  0  0  0  0  0
   18.6774   18.4458   22.1550 C   0  0  0  0  0  0  0  0  0  0  0  0
   18.0094   17.8649   22.8002 H   0  0  0  0  0  0  0  0  0  0  0  0
   18.4694   18.1888   21.1090 H   0  0  0  0  0  0  0  0  0  0  0  0
   20.1874   18.4141   22.5396 C   0  0  0  0  0  0  0  0  0  0  0  0
   20.3676   18.3543   23.6217 H   0  0  0  0  0  0  0  0  0  0  0  0
   20.2440   19.8630   21.9680 C   0  0  0  0  0  0  0  0  0  0  0  0
   20.9611   20.5383   22.4475 H   0  0  0  0  0  0  0  0  0  0  0  0
   20.3787   19.9191   20.8806 H   0  0  0  0  0  0  0  0  0  0  0  0
   20.9648   17.4632   21.8497 O   0  0  0  0  0  0  0  0  0  0  0  0
   21.9055   17.6522   22.0558 H   0  0  0  0  0  0  0  0  0  0  0  0
  1  2  1  0  0  0  0
  1  3  1  0  0  0  0
  1  4  1  0  0  0  0
  4  5  1  0  0  0  0
  4  6  1  0  0  0  0
  4  7  1  0  0  0  0
  7  8  1  0  0  0  0
  1  9  1  0  0  0  0
  7  9  1  0  0  0  0
  9 10  1  0  0  0  0
  9 11  1  0  0  0  0
  7 12  1  0  0  0  0
 12 13  1  0  0  0  0
M  END
> <VConfSearch Rank>
496

> <Conf_Id>
22

> <Delta U+W>
0.000

> <U+W>
-3.131

> <U>
-0.154

> <W>
-2.978

> <W(PB)>
-4.579

> <W(SA)>
1.601

> <Valence>
6.333

> <Coulomb>
-7.439

> <VdW>
0.952

> <VdW6>
-2.120

> <VdW12>
3.072

> <Bond>
0.065

> <Angle>
0.931

> <Pdih>
5.338

> <Idih>
0.000

> <Tether>
0.000

$$$$
VeraChem MOL file


 13 13  0  0  0  0  0  0  0  0999 V2000     
   19.8846   17.6317   22.2049 C   0  0  0  0  0  0  0  0  0  0  0  0
   19.4486   17.1279   21.3322 H   0  0  0  0  0  0  0  0  0  0  0  0
   20.3773   16.8803   22.8333 H   0  0  0  0  0  0  0  0  0  0  0  0
   18.9190   18.6175   22.9419 C   0  0  0  0  0  0  0  0  0  0  0  0
   19.2143   18.8658   23.9690 H   0  0  0  0  0  0  0  0  0  0  0  0
   17.8573   18.3475   22.9356 H   0  0  0  0  0  0  0  0  0  0  0  0
   19.3619   19.6597   21.8709 C   0  0  0  0  0  0  0  0  0  0  0  0
   18.8144   19.5834   20.9214 H   0  0  0  0  0  0  0  0  0  0  0  0
   20.7267   18.9072   21.8713 C   0  0  0  0  0  0  0  0  0  0  0  0
   21.4186   19.2214   22.6626 H   0  0  0  0  0  0  0  0  0  0  0  0
   21.2645   18.8958   20.9170 H   0  0  0  0  0  0  0  0  0  0  0  0
   19.4108   20.9959   22.3142 O   0  0  0  0  0  0  0  0  0  0  0  0
   18.4841   21.3003   22.4227 H   0  0  0  0  0  0  0  0  0  0  0  0
  1  2  1  0  0  0  0
  1  3  1  0  0  0  0
  1  4  1  0  0  0  0
  4  5  1  0  0  0  0
  4  6  1  0  0  0  0
  4  7  1  0  0  0  0
  7  8  1  0  0  0  0
  1  9  1  0  0  0  0
  7  9  1  0  0  0  0
  9 10  1  0  0  0  0
  9 11  1  0  0  0  0
  7 12  1  0  0  0  0
 12 13  1  0  0  0  0
M  END
> <VConfSearch Rank>
497

> <Conf_Id>
19

> <Delta U+W>
-0.011

> <U+W>
-3.142

> <U>
-0.154

> <W>
-2.989

> <W(PB)>
-4.588

> <W(SA)>
1.599

> <Valence>
6.334

> <Coulomb>
-7.439

> <VdW>
0.951

> <VdW6>
-2.120

> <VdW12>
3.072

> <Bond>
0.065

> <Angle>
0.930

> <Pdih>
5.339

> <Idih>
0.000

> <Tether>
0.000

$$$$
VeraChem MOL file


 13 13  0  0  0  0  0  0  0  0999 V2000     
   18.5571   19.2854   21.7258 C   0  0  0  0  0  0  0  0  0  0  0  0
   17.4665   19.2127   21.8117 H   0  0  0  0  0  0  0  0  0  0  0  0
   18.8011   19.8300   20.8043 H   0  0  0  0  0  0  0  0  0  0  0  0
   19.3537   17.9530   21.9231 C   0  0  0  0  0  0  0  0  0  0  0  0
   18.8843   17.2399   22.6116 H   0  0  0  0  0  0  0  0  0  0  0  0
   19.6371   17.4217   21.0078 H   0  0  0  0  0  0  0  0  0  0  0  0
   20.4708   18.8281   22.5726 C   0  0  0  0  0  0  0  0  0  0  0  0
   21.0009   18.3484   23.4055 H   0  0  0  0  0  0  0  0  0  0  0  0
   19.3161   19.7880   22.9986 C   0  0  0  0  0  0  0  0  0  0  0  0
   19.5627   20.8552   23.0207 H   0  0  0  0  0  0  0  0  0  0  0  0
   18.8369   19.5200   23.9481 H   0  0  0  0  0  0  0  0  0  0  0  0
   21.4000   19.3792   21.6610 O   0  0  0  0  0  0  0  0  0  0  0  0
   21.9345   20.0380   22.1534 H   0  0  0  0  0  0  0  0  0  0  0  0
  1  2  1  0  0  0  0
  1  3  1  0  0  0  0
  1  4  1  0  0  0  0
  4  5  1  0  0  0  0
  4  6  1  0  0  0  0
  4  7  1  0  0  0  0
  7  8  1  0  0  0  0
  1  9  1  0  0  0  0
  7  9  1  0  0  0  0
  9 10  1  0  0  0  0
  9 11  1  0  0  0  0
  7 12  1  0  0  0  0
 12 13  1  0  0  0  0
M  END
> <VConfSearch Rank>
498

> <Conf_Id>
20

> <Delta U+W>
1.030

> <U+W>
-2.101

> <U>
0.841

> <W>
-2.942

> <W(PB)>
-4.530

> <W(SA)>
1.587

> <Valence>
6.736

> <Coulomb>
-7.246

> <VdW>
1.352

> <VdW6>
-2.500

> <VdW12>
3.851

> <Bond>
0.063

> <Angle>
0.687

> <Pdih>
5.986

> <Idih>
0.000

> <Tether>
0.000

$$$$
VeraChem MOL file


 13 13  0  0  0  0  0  0  0  0999 V2000     
   19.2314   18.3598   23.2245 C   0  0  0  0  0  0  0  0  0  0  0  0
   18.3850   18.8437   23.7297 H   0  0  0  0  0  0  0  0  0  0  0  0
   19.4536   17.4173   23.7390 H   0  0  0  0  0  0  0  0  0  0  0  0
   20.4530   19.2980   22.9510 C   0  0  0  0  0  0  0  0  0  0  0  0
   20.6282   20.0889   23.6887 H   0  0  0  0  0  0  0  0  0  0  0  0
   21.3989   18.7748   22.7645 H   0  0  0  0  0  0  0  0  0  0  0  0
   19.6789   19.7283   21.6685 C   0  0  0  0  0  0  0  0  0  0  0  0
   18.9231   20.5056   21.8458 H   0  0  0  0  0  0  0  0  0  0  0  0
   19.1045   18.2795   21.6674 C   0  0  0  0  0  0  0  0  0  0  0  0
   19.7490   17.5286   21.1940 H   0  0  0  0  0  0  0  0  0  0  0  0
   18.0888   18.1708   21.2714 H   0  0  0  0  0  0  0  0  0  0  0  0
   20.4817   20.0611   20.5611 O   0  0  0  0  0  0  0  0  0  0  0  0
   21.1326   19.3363   20.4524 H   0  0  0  0  0  0  0  0  0  0  0  0
  1  2  1  0  0  0  0
  1  3  1  0  0  0  0
  1  4  1  0  0  0  0
  4  5  1  0  0  0  0
  4  6  1  0  0  0  0
  4  7  1  0  0  0  0
  7  8  1  0  0  0  0
  1  9  1  0  0  0  0
  7  9  1  0  0  0  0
  9 10  1  0  0  0  0
  9 11  1  0  0  0  0
  7 12  1  0  0  0  0
 12 13  1  0  0  0  0
M  END
> <VConfSearch Rank>
499

> <Conf_Id>
24

> <Delta U+W>
0.356

> <U+W>
-2.775

> <U>
-0.184

> <W>
-2.591

> <W(PB)>
-4.184

> <W(SA)>
1.593

> <Valence>
6.840

> <Coulomb>
-7.916

> <VdW>
0.893

> <VdW6>
-2.167

> <VdW12>
3.060

> <Bond>
0.059

> <Angle>
0.918

> <Pdih>
5.862

> <Idih>
0.000

> <Tether>
0.000

$$$$
VeraChem MOL file


 13 13  0  0  0  0  0  0  0  0999 V2000     
   19.3901   17.9206   22.4768 C   0  0  0  0  0  0  0  0  0  0  0  0
   18.5573   17.2510   22.7229 H   0  0  0  0  0  0  0  0  0  0  0  0
   20.3201   17.3384   22.4956 H   0  0  0  0  0  0  0  0  0  0  0  0
   19.4412   19.2690   23.2702 C   0  0  0  0  0  0  0  0  0  0  0  0
   18.4596   19.6564   23.5694 H   0  0  0  0  0  0  0  0  0  0  0  0
   20.1050   19.2921   24.1417 H   0  0  0  0  0  0  0  0  0  0  0  0
   20.0070   19.9094   21.9649 C   0  0  0  0  0  0  0  0  0  0  0  0
   19.6773   20.9391   21.7765 H   0  0  0  0  0  0  0  0  0  0  0  0
   19.1975   18.8131   21.2054 C   0  0  0  0  0  0  0  0  0  0  0  0
   18.1563   19.0887   20.9984 H   0  0  0  0  0  0  0  0  0  0  0  0
   19.6493   18.4394   20.2797 H   0  0  0  0  0  0  0  0  0  0  0  0
   21.4078   19.8174   21.8200 O   0  0  0  0  0  0  0  0  0  0  0  0
   21.6432   18.8835   21.9984 H   0  0  0  0  0  0  0  0  0  0  0  0
  1  2  1  0  0  0  0
  1  3  1  0  0  0  0
  1  4  1  0  0  0  0
  4  5  1  0  0  0  0
  4  6  1  0  0  0  0
  4  7  1  0  0  0  0
  7  8  1  0  0  0  0
  1  9  1  0  0  0  0
  7  9  1  0  0  0  0
  9 10  1  0  0  0  0
  9 11  1  0  0  0  0
  7 12  1  0  0  0  0
 12 13  1  0  0  0  0
M  END
> <VConfSearch Rank>
500

> <Conf_Id>
44

> <Delta U+W>
0.823

> <U+W>
-2.308

> <U>
0.039

> <W>
-2.348

> <W(PB)>
-3.918

> <W(SA)>
1.571

> <Valence>
7.320

> <Coulomb>
-8.530

> <VdW>
1.249

> <VdW6>
-2.615

> <VdW12>
3.864

> <Bond>
0.056

> <Angle>
0.694

> <Pdih>
6.570

> <Idih>
0.000

> <Tether>
0.000

$$$$
VeraChem MOL file


 13 13  0  0  0  0  0  0  0  0999 V2000     
   19.0788   18.2200   21.4010 C   0  0  0  0  0  0  0  0  0  0  0  0
   19.2612   17.1603   21.6232 H   0  0  0  0  0  0  0  0  0  0  0  0
   18.3988   18.2861   20.5433 H   0  0  0  0  0  0  0  0  0  0  0  0
   20.3672   19.1041   21.3259 C   0  0  0  0  0  0  0  0  0  0  0  0
   21.2710   18.6111   20.9515 H   0  0  0  0  0  0  0  0  0  0  0  0
   20.2407   20.0573   20.7977 H   0  0  0  0  0  0  0  0  0  0  0  0
   20.2423   19.2036   22.8762 C   0  0  0  0  0  0  0  0  0  0  0  0
   20.6741   18.3466   23.4111 H   0  0  0  0  0  0  0  0  0  0  0  0
   18.7051   19.0945   22.6431 C   0  0  0  0  0  0  0  0  0  0  0  0
   18.1364   18.5920   23.4332 H   0  0  0  0  0  0  0  0  0  0  0  0
   18.2120   20.0447   22.4027 H   0  0  0  0  0  0  0  0  0  0  0  0
   20.6820   20.4178   23.4391 O   0  0  0  0  0  0  0  0  0  0  0  0
   20.4030   20.4198   24.3801 H   0  0  0  0  0  0  0  0  0  0  0  0
  1  2  1  0  0  0  0
  1  3  1  0  0  0  0
  1  4  1  0  0  0  0
  4  5  1  0  0  0  0
  4  6  1  0  0  0  0
  4  7  1  0  0  0  0
  7  8  1  0  0  0  0
  1  9  1  0  0  0  0
  7  9  1  0  0  0  0
  9 10  1  0  0  0  0
  9 11  1  0  0  0  0
  7 12  1  0  0  0  0
 12 13  1  0  0  0  0
M  END
> <VConfSearch Rank>
501

> <Conf_Id>
22

> <Delta U+W>
0.000

> <U+W>
-3.131

> <U>
-0.154

> <W>
-2.978

> <W(PB)>
-4.579

> <W(SA)>
1.601

> <Valence>
6.333

> <Coulomb>
-7.439

> <VdW>
0.952

> <VdW6>
-2.120

> <VdW12>
3.072

> <Bond>
0.065

> <Angle>
0.931

> <Pdih>
5.338

> <Idih>
0.000

> <Tether>
0.000

$$$$
VeraChem MOL file


 13 13  0  0  0  0  0  0  0  0999 V2000     
   20.8375   19.4535   22.1879 C   0  0  0  0  0  0  0  0  0  0  0  0
   20.9667   20.3223   22.8466 H   0  0  0  0  0  0  0  0  0  0  0  0
   21.7630   19.3042   21.6191 H   0  0  0  0  0  0  0  0  0  0  0  0
   19.5124   19.4537   21.3563 C   0  0  0  0  0  0  0  0  0  0  0  0
   19.5208   18.7923   20.4809 H   0  0  0  0  0  0  0  0  0  0  0  0
   19.1339   20.4359   21.0525 H   0  0  0  0  0  0  0  0  0  0  0  0
   18.8570   18.8361   22.6283 C   0  0  0  0  0  0  0  0  0  0  0  0
   18.5677   19.5776   23.3856 H   0  0  0  0  0  0  0  0  0  0  0  0
   20.2486   18.1839   22.8871 C   0  0  0  0  0  0  0  0  0  0  0  0
   20.4166   17.2429   22.3488 H   0  0  0  0  0  0  0  0  0  0  0  0
   20.5196   18.0415   23.9389 H   0  0  0  0  0  0  0  0  0  0  0  0
   17.8041   17.9322   22.3854 O   0  0  0  0  0  0  0  0  0  0  0  0
   17.0341   18.4582   22.0796 H   0  0  0  0  0  0  0  0  0  0  0  0
  1  2  1  0  0  0  0
  1  3  1  0  0  0  0
  1  4  1  0  0  0  0
  4  5  1  0  0  0  0
  4  6  1  0  0  0  0
  4  7  1  0  0  0  0
  7  8  1  0  0  0  0
  1  9  1  0  0  0  0
  7  9  1  0  0  0  0
  9 10  1  0  0  0  0
  9 11  1  0  0  0  0
  7 12  1  0  0  0  0
 12 13  1  0  0  0  0
M  END
> <VConfSearch Rank>
502

> <Conf_Id>
19

> <Delta U+W>
-0.011

> <U+W>
-3.142

> <U>
-0.154

> <W>
-2.989

> <W(PB)>
-4.588

> <W(SA)>
1.599

> <Valence>
6.334

> <Coulomb>
-7.439

> <VdW>
0.951

> <VdW6>
-2.120

> <VdW12>
3.072

> <Bond>
0.065

> <Angle>
0.930

> <Pdih>
5.339

> <Idih>
0.000

> <Tether>
0.000

$$$$
VeraChem MOL file


 13 13  0  0  0  0  0  0  0  0999 V2000     
   18.8380   19.7186   22.9470 C   0  0  0  0  0  0  0  0  0  0  0  0
   17.7896   19.8316   23.2473 H   0  0  0  0  0  0  0  0  0  0  0  0
   19.4415   20.4535   23.4955 H   0  0  0  0  0  0  0  0  0  0  0  0
   19.1119   19.6729   21.4069 C   0  0  0  0  0  0  0  0  0  0  0  0
   18.3004   19.2350   20.8132 H   0  0  0  0  0  0  0  0  0  0  0  0
   19.4142   20.6187   20.9436 H   0  0  0  0  0  0  0  0  0  0  0  0
   20.2693   18.6799   21.7383 C   0  0  0  0  0  0  0  0  0  0  0  0
   20.4204   17.8887   20.9927 H   0  0  0  0  0  0  0  0  0  0  0  0
   19.4077   18.2614   22.9706 C   0  0  0  0  0  0  0  0  0  0  0  0
   19.9639   17.9776   23.8709 H   0  0  0  0  0  0  0  0  0  0  0  0
   18.6674   17.4810   22.7564 H   0  0  0  0  0  0  0  0  0  0  0  0
   21.5049   19.2903   22.0530 O   0  0  0  0  0  0  0  0  0  0  0  0
   22.0927   18.5903   22.4087 H   0  0  0  0  0  0  0  0  0  0  0  0
  1  2  1  0  0  0  0
  1  3  1  0  0  0  0
  1  4  1  0  0  0  0
  4  5  1  0  0  0  0
  4  6  1  0  0  0  0
  4  7  1  0  0  0  0
  7  8  1  0  0  0  0
  1  9  1  0  0  0  0
  7  9  1  0  0  0  0
  9 10  1  0  0  0  0
  9 11  1  0  0  0  0
  7 12  1  0  0  0  0
 12 13  1  0  0  0  0
M  END
> <VConfSearch Rank>
503

> <Conf_Id>
20

> <Delta U+W>
1.030

> <U+W>
-2.101

> <U>
0.841

> <W>
-2.942

> <W(PB)>
-4.530

> <W(SA)>
1.587

> <Valence>
6.736

> <Coulomb>
-7.246

> <VdW>
1.352

> <VdW6>
-2.500

> <VdW12>
3.851

> <Bond>
0.063

> <Angle>
0.687

> <Pdih>
5.986

> <Idih>
0.000

> <Tether>
0.000

$$$$
VeraChem MOL file


 13 13  0  0  0  0  0  0  0  0999 V2000     
   19.0839   17.8632   22.3345 C   0  0  0  0  0  0  0  0  0  0  0  0
   19.6469   16.9297   22.4659 H   0  0  0  0  0  0  0  0  0  0  0  0
   18.0126   17.6293   22.3389 H   0  0  0  0  0  0  0  0  0  0  0  0
   19.5847   18.7694   21.1618 C   0  0  0  0  0  0  0  0  0  0  0  0
   20.0003   18.2474   20.2928 H   0  0  0  0  0  0  0  0  0  0  0  0
   18.8547   19.5096   20.8117 H   0  0  0  0  0  0  0  0  0  0  0  0
   20.6257   19.3107   22.1876 C   0  0  0  0  0  0  0  0  0  0  0  0
   21.5193   18.6798   22.2886 H   0  0  0  0  0  0  0  0  0  0  0  0
   19.5351   19.0358   23.2666 C   0  0  0  0  0  0  0  0  0  0  0  0
   18.7940   19.8356   23.3870 H   0  0  0  0  0  0  0  0  0  0  0  0
   19.9069   18.7491   24.2565 H   0  0  0  0  0  0  0  0  0  0  0  0
   20.9883   20.6613   22.0252 O   0  0  0  0  0  0  0  0  0  0  0  0
   20.1560   21.1720   21.9410 H   0  0  0  0  0  0  0  0  0  0  0  0
  1  2  1  0  0  0  0
  1  3  1  0  0  0  0
  1  4  1  0  0  0  0
  4  5  1  0  0  0  0
  4  6  1  0  0  0  0
  4  7  1  0  0  0  0
  7  8  1  0  0  0  0
  1  9  1  0  0  0  0
  7  9  1  0  0  0  0
  9 10  1  0  0  0  0
  9 11  1  0  0  0  0
  7 12  1  0  0  0  0
 12 13  1  0  0  0  0
M  END
> <VConfSearch Rank>
504

> <Conf_Id>
24

> <Delta U+W>
0.356

> <U+W>
-2.775

> <U>
-0.184

> <W>
-2.591

> <W(PB)>
-4.184

> <W(SA)>
1.593

> <Valence>
6.840

> <Coulomb>
-7.916

> <VdW>
0.893

> <VdW6>
-2.167

> <VdW12>
3.060

> <Bond>
0.059

> <Angle>
0.918

> <Pdih>
5.862

> <Idih>
0.000

> <Tether>
0.000

$$$$
VeraChem MOL file


 13 13  0  0  0  0  0  0  0  0999 V2000     
   19.0941   18.1672   21.6977 C   0  0  0  0  0  0  0  0  0  0  0  0
   18.2786   17.9496   20.9978 H   0  0  0  0  0  0  0  0  0  0  0  0
   19.5065   17.2154   22.0560 H   0  0  0  0  0  0  0  0  0  0  0  0
   18.7725   19.2096   22.8203 C   0  0  0  0  0  0  0  0  0  0  0  0
   18.0410   19.9745   22.5325 H   0  0  0  0  0  0  0  0  0  0  0  0
   18.4813   18.7978   23.7931 H   0  0  0  0  0  0  0  0  0  0  0  0
   20.2579   19.6692   22.6915 C   0  0  0  0  0  0  0  0  0  0  0  0
   20.4202   20.7462   22.8266 H   0  0  0  0  0  0  0  0  0  0  0  0
   20.1597   19.2029   21.2060 C   0  0  0  0  0  0  0  0  0  0  0  0
   19.7683   19.9662   20.5224 H   0  0  0  0  0  0  0  0  0  0  0  0
   21.0759   18.7853   20.7736 H   0  0  0  0  0  0  0  0  0  0  0  0
   21.1731   18.9407   23.4811 O   0  0  0  0  0  0  0  0  0  0  0  0
   20.9826   17.9933   23.3213 H   0  0  0  0  0  0  0  0  0  0  0  0
  1  2  1  0  0  0  0
  1  3  1  0  0  0  0
  1  4  1  0  0  0  0
  4  5  1  0  0  0  0
  4  6  1  0  0  0  0
  4  7  1  0  0  0  0
  7  8  1  0  0  0  0
  1  9  1  0  0  0  0
  7  9  1  0  0  0  0
  9 10  1  0  0  0  0
  9 11  1  0  0  0  0
  7 12  1  0  0  0  0
 12 13  1  0  0  0  0
M  END
> <VConfSearch Rank>
505

> <Conf_Id>
44

> <Delta U+W>
0.823

> <U+W>
-2.308

> <U>
0.039

> <W>
-2.348

> <W(PB)>
-3.918

> <W(SA)>
1.571

> <Valence>
7.320

> <Coulomb>
-8.530

> <VdW>
1.249

> <VdW6>
-2.615

> <VdW12>
3.864

> <Bond>
0.056

> <Angle>
0.694

> <Pdih>
6.570

> <Idih>
0.000

> <Tether>
0.000

$$$$
VeraChem MOL file


 13 13  0  0  0  0  0  0  0  0999 V2000     
   20.5348   19.0563   21.2542 C   0  0  0  0  0  0  0  0  0  0  0  0
   20.6597   18.0786   20.7703 H   0  0  0  0  0  0  0  0  0  0  0  0
   21.1488   19.7921   20.7213 H   0  0  0  0  0  0  0  0  0  0  0  0
   20.6807   19.0390   22.8117 C   0  0  0  0  0  0  0  0  0  0  0  0
   21.3841   18.3071   23.2235 H   0  0  0  0  0  0  0  0  0  0  0  0
   20.8831   20.0171   23.2655 H   0  0  0  0  0  0  0  0  0  0  0  0
   19.1800   18.6188   22.8260 C   0  0  0  0  0  0  0  0  0  0  0  0
   19.0200   17.5426   22.6739 H   0  0  0  0  0  0  0  0  0  0  0  0
   19.0500   19.4676   21.5253 C   0  0  0  0  0  0  0  0  0  0  0  0
   18.3114   19.1157   20.7967 H   0  0  0  0  0  0  0  0  0  0  0  0
   18.8956   20.5406   21.6947 H   0  0  0  0  0  0  0  0  0  0  0  0
   18.4346   19.0848   23.9268 O   0  0  0  0  0  0  0  0  0  0  0  0
   17.4898   18.8977   23.7382 H   0  0  0  0  0  0  0  0  0  0  0  0
  1  2  1  0  0  0  0
  1  3  1  0  0  0  0
  1  4  1  0  0  0  0
  4  5  1  0  0  0  0
  4  6  1  0  0  0  0
  4  7  1  0  0  0  0
  7  8  1  0  0  0  0
  1  9  1  0  0  0  0
  7  9  1  0  0  0  0
  9 10  1  0  0  0  0
  9 11  1  0  0  0  0
  7 12  1  0  0  0  0
 12 13  1  0  0  0  0
M  END
> <VConfSearch Rank>
506

> <Conf_Id>
22

> <Delta U+W>
0.000

> <U+W>
-3.131

> <U>
-0.154

> <W>
-2.978

> <W(PB)>
-4.579

> <W(SA)>
1.601

> <Valence>
6.333

> <Coulomb>
-7.439

> <VdW>
0.952

> <VdW6>
-2.120

> <VdW12>
3.072

> <Bond>
0.065

> <Angle>
0.931

> <Pdih>
5.338

> <Idih>
0.000

> <Tether>
0.000

$$$$
VeraChem MOL file


 13 13  0  0  0  0  0  0  0  0999 V2000     
   20.8493   18.6944   22.6926 C   0  0  0  0  0  0  0  0  0  0  0  0
   21.6020   18.6332   21.8955 H   0  0  0  0  0  0  0  0  0  0  0  0
   21.3379   18.4889   23.6525 H   0  0  0  0  0  0  0  0  0  0  0  0
   19.5303   17.9023   22.4096 C   0  0  0  0  0  0  0  0  0  0  0  0
   18.9269   17.6844   23.2997 H   0  0  0  0  0  0  0  0  0  0  0  0
   19.6359   16.9840   21.8216 H   0  0  0  0  0  0  0  0  0  0  0  0
   19.0833   19.1686   21.6185 C   0  0  0  0  0  0  0  0  0  0  0  0
   19.4661   19.2097   20.5895 H   0  0  0  0  0  0  0  0  0  0  0  0
   19.9443   19.9693   22.6415 C   0  0  0  0  0  0  0  0  0  0  0  0
   19.4301   20.2062   23.5812 H   0  0  0  0  0  0  0  0  0  0  0  0
   20.4145   20.8812   22.2576 H   0  0  0  0  0  0  0  0  0  0  0  0
   17.7018   19.4423   21.6496 O   0  0  0  0  0  0  0  0  0  0  0  0
   17.2596   18.7699   21.0878 H   0  0  0  0  0  0  0  0  0  0  0  0
  1  2  1  0  0  0  0
  1  3  1  0  0  0  0
  1  4  1  0  0  0  0
  4  5  1  0  0  0  0
  4  6  1  0  0  0  0
  4  7  1  0  0  0  0
  7  8  1  0  0  0  0
  1  9  1  0  0  0  0
  7  9  1  0  0  0  0
  9 10  1  0  0  0  0
  9 11  1  0  0  0  0
  7 12  1  0  0  0  0
 12 13  1  0  0  0  0
M  END
> <VConfSearch Rank>
507

> <Conf_Id>
19

> <Delta U+W>
-0.011

> <U+W>
-3.142

> <U>
-0.154

> <W>
-2.989

> <W(PB)>
-4.588

> <W(SA)>
1.599

> <Valence>
6.334

> <Coulomb>
-7.439

> <VdW>
0.951

> <VdW6>
-2.120

> <VdW12>
3.072

> <Bond>
0.065

> <Angle>
0.930

> <Pdih>
5.339

> <Idih>
0.000

> <Tether>
0.000

$$$$
VeraChem MOL file


 13 13  0  0  0  0  0  0  0  0999 V2000     
   20.0189   20.1091   22.7850 C   0  0  0  0  0  0  0  0  0  0  0  0
   20.4848   21.0820   22.5897 H   0  0  0  0  0  0  0  0  0  0  0  0
   19.7245   20.0666   23.8418 H   0  0  0  0  0  0  0  0  0  0  0  0
   20.8061   18.8547   22.2791 C   0  0  0  0  0  0  0  0  0  0  0  0
   21.4051   19.0270   21.3767 H   0  0  0  0  0  0  0  0  0  0  0  0
   21.4302   18.3463   23.0223 H   0  0  0  0  0  0  0  0  0  0  0  0
   19.4123   18.2075   22.0073 C   0  0  0  0  0  0  0  0  0  0  0  0
   19.3726   17.5635   21.1194 H   0  0  0  0  0  0  0  0  0  0  0  0
   18.9037   19.6657   21.7808 C   0  0  0  0  0  0  0  0  0  0  0  0
   17.8719   19.8674   22.0892 H   0  0  0  0  0  0  0  0  0  0  0  0
   19.0414   20.0352   20.7574 H   0  0  0  0  0  0  0  0  0  0  0  0
   18.8401   17.5406   23.1146 O   0  0  0  0  0  0  0  0  0  0  0  0
   17.9101   17.3342   22.8807 H   0  0  0  0  0  0  0  0  0  0  0  0
  1  2  1  0  0  0  0
  1  3  1  0  0  0  0
  1  4  1  0  0  0  0
  4  5  1  0  0  0  0
  4  6  1  0  0  0  0
  4  7  1  0  0  0  0
  7  8  1  0  0  0  0
  1  9  1  0  0  0  0
  7  9  1  0  0  0  0
  9 10  1  0  0  0  0
  9 11  1  0  0  0  0
  7 12  1  0  0  0  0
 12 13  1  0  0  0  0
M  END
> <VConfSearch Rank>
508

> <Conf_Id>
20

> <Delta U+W>
1.030

> <U+W>
-2.101

> <U>
0.841

> <W>
-2.942

> <W(PB)>
-4.530

> <W(SA)>
1.587

> <Valence>
6.736

> <Coulomb>
-7.246

> <VdW>
1.352

> <VdW6>
-2.500

> <VdW12>
3.851

> <Bond>
0.063

> <Angle>
0.687

> <Pdih>
5.986

> <Idih>
0.000

> <Tether>
0.000

$$$$
VeraChem MOL file


 13 13  0  0  0  0  0  0  0  0999 V2000     
   20.8867   18.3711   22.1460 C   0  0  0  0  0  0  0  0  0  0  0  0
   21.7724   18.9920   21.9571 H   0  0  0  0  0  0  0  0  0  0  0  0
   21.2056   17.3262   22.2406 H   0  0  0  0  0  0  0  0  0  0  0  0
   19.6834   18.6378   21.1827 C   0  0  0  0  0  0  0  0  0  0  0  0
   19.9410   18.9368   20.1607 H   0  0  0  0  0  0  0  0  0  0  0  0
   18.9457   17.8271   21.1368 H   0  0  0  0  0  0  0  0  0  0  0  0
   19.3201   19.7992   22.1564 C   0  0  0  0  0  0  0  0  0  0  0  0
   19.8776   20.7270   21.9686 H   0  0  0  0  0  0  0  0  0  0  0  0
   19.9413   18.9056   23.2720 C   0  0  0  0  0  0  0  0  0  0  0  0
   19.2613   18.1548   23.6931 H   0  0  0  0  0  0  0  0  0  0  0  0
   20.4268   19.4412   24.0953 H   0  0  0  0  0  0  0  0  0  0  0  0
   17.9446   20.0665   22.2920 O   0  0  0  0  0  0  0  0  0  0  0  0
   17.5020   19.2076   22.4568 H   0  0  0  0  0  0  0  0  0  0  0  0
  1  2  1  0  0  0  0
  1  3  1  0  0  0  0
  1  4  1  0  0  0  0
  4  5  1  0  0  0  0
  4  6  1  0  0  0  0
  4  7  1  0  0  0  0
  7  8  1  0  0  0  0
  1  9  1  0  0  0  0
  7  9  1  0  0  0  0
  9 10  1  0  0  0  0
  9 11  1  0  0  0  0
  7 12  1  0  0  0  0
 12 13  1  0  0  0  0
M  END
> <VConfSearch Rank>
509

> <Conf_Id>
24

> <Delta U+W>
0.356

> <U+W>
-2.775

> <U>
-0.184

> <W>
-2.591

> <W(PB)>
-4.184

> <W(SA)>
1.593

> <Valence>
6.840

> <Coulomb>
-7.916

> <VdW>
0.893

> <VdW6>
-2.167

> <VdW12>
3.060

> <Bond>
0.059

> <Angle>
0.918

> <Pdih>
5.862

> <Idih>
0.000

> <Tether>
0.000

$$$$
VeraChem MOL file


 13 13  0  0  0  0  0  0  0  0999 V2000     
   19.0839   18.8538   21.2706 C   0  0  0  0  0  0  0  0  0  0  0  0
   18.2749   19.2666   20.6562 H   0  0  0  0  0  0  0  0  0  0  0  0
   19.4681   17.9519   20.7772 H   0  0  0  0  0  0  0  0  0  0  0  0
   18.7686   18.6869   22.7947 C   0  0  0  0  0  0  0  0  0  0  0  0
   18.0599   19.4226   23.1942 H   0  0  0  0  0  0  0  0  0  0  0  0
   18.4521   17.6884   23.1162 H   0  0  0  0  0  0  0  0  0  0  0  0
   20.2661   19.0425   23.0495 C   0  0  0  0  0  0  0  0  0  0  0  0
   20.4514   19.6350   23.9545 H   0  0  0  0  0  0  0  0  0  0  0  0
   20.1812   19.8709   21.7303 C   0  0  0  0  0  0  0  0  0  0  0  0
   19.8189   20.8969   21.8688 H   0  0  0  0  0  0  0  0  0  0  0  0
   21.0943   19.9029   21.1253 H   0  0  0  0  0  0  0  0  0  0  0  0
   21.1512   17.9442   23.0025 O   0  0  0  0  0  0  0  0  0  0  0  0
   20.9413   17.4553   22.1801 H   0  0  0  0  0  0  0  0  0  0  0  0
  1  2  1  0  0  0  0
  1  3  1  0  0  0  0
  1  4  1  0  0  0  0
  4  5  1  0  0  0  0
  4  6  1  0  0  0  0
  4  7  1  0  0  0  0
  7  8  1  0  0  0  0
  1  9  1  0  0  0  0
  7  9  1  0  0  0  0
  9 10  1  0  0  0  0
  9 11  1  0  0  0  0
  7 12  1  0  0  0  0
 12 13  1  0  0  0  0
M  END
> <VConfSearch Rank>
510

> <Conf_Id>
44

> <Delta U+W>
0.823

> <U+W>
-2.308

> <U>
0.039

> <W>
-2.348

> <W(PB)>
-3.918

> <W(SA)>
1.571

> <Valence>
7.320

> <Coulomb>
-8.530

> <VdW>
1.249

> <VdW6>
-2.615

> <VdW12>
3.864

> <Bond>
0.056

> <Angle>
0.694

> <Pdih>
6.570

> <Idih>
0.000

> <Tether>
0.000

$$$$
VeraChem MOL file


 13 13  0  0  0  0  0  0  0  0999 V2000     
   20.2934   18.7216   23.3645 C   0  0  0  0  0  0  0  0  0  0  0  0
   21.2271   18.1686   23.1978 H   0  0  0  0  0  0  0  0  0  0  0  0
   20.1761   18.8948   24.4409 H   0  0  0  0  0  0  0  0  0  0  0  0
   19.0458   18.1381   22.6226 C   0  0  0  0  0  0  0  0  0  0  0  0
   19.0254   17.0507   22.4924 H   0  0  0  0  0  0  0  0  0  0  0  0
   18.0782   18.4637   23.0242 H   0  0  0  0  0  0  0  0  0  0  0  0
   19.5442   18.9584   21.3947 C   0  0  0  0  0  0  0  0  0  0  0  0
   20.3232   18.4506   20.8096 H   0  0  0  0  0  0  0  0  0  0  0  0
   20.0986   19.9703   22.4425 C   0  0  0  0  0  0  0  0  0  0  0  0
   21.0109   20.5044   22.1549 H   0  0  0  0  0  0  0  0  0  0  0  0
   19.3630   20.6984   22.8067 H   0  0  0  0  0  0  0  0  0  0  0  0
   18.5311   19.4572   20.5524 O   0  0  0  0  0  0  0  0  0  0  0  0
   18.9558   20.0810   19.9249 H   0  0  0  0  0  0  0  0  0  0  0  0
  1  2  1  0  0  0  0
  1  3  1  0  0  0  0
  1  4  1  0  0  0  0
  4  5  1  0  0  0  0
  4  6  1  0  0  0  0
  4  7  1  0  0  0  0
  7  8  1  0  0  0  0
  1  9  1  0  0  0  0
  7  9  1  0  0  0  0
  9 10  1  0  0  0  0
  9 11  1  0  0  0  0
  7 12  1  0  0  0  0
 12 13  1  0  0  0  0
M  END
> <VConfSearch Rank>
511

> <Conf_Id>
22

> <Delta U+W>
0.000

> <U+W>
-3.131

> <U>
-0.154

> <W>
-2.978

> <W(PB)>
-4.579

> <W(SA)>
1.601

> <Valence>
6.333

> <Coulomb>
-7.439

> <VdW>
0.952

> <VdW6>
-2.120

> <VdW12>
3.072

> <Bond>
0.065

> <Angle>
0.931

> <Pdih>
5.338

> <Idih>
0.000

> <Tether>
0.000

$$$$
VeraChem MOL file


 13 13  0  0  0  0  0  0  0  0999 V2000     
   18.6312   18.9586   21.3835 C   0  0  0  0  0  0  0  0  0  0  0  0
   17.9135   18.1380   21.5145 H   0  0  0  0  0  0  0  0  0  0  0  0
   18.3266   19.5552   20.5154 H   0  0  0  0  0  0  0  0  0  0  0  0
   20.1342   18.5270   21.4273 C   0  0  0  0  0  0  0  0  0  0  0  0
   20.8311   19.2482   20.9823 H   0  0  0  0  0  0  0  0  0  0  0  0
   20.3611   17.5294   21.0355 H   0  0  0  0  0  0  0  0  0  0  0  0
   19.9935   18.6334   22.9759 C   0  0  0  0  0  0  0  0  0  0  0  0
   19.5596   17.7406   23.4466 H   0  0  0  0  0  0  0  0  0  0  0  0
   18.9551   19.7592   22.6878 C   0  0  0  0  0  0  0  0  0  0  0  0
   19.3942   20.7508   22.5216 H   0  0  0  0  0  0  0  0  0  0  0  0
   18.1397   19.8521   23.4134 H   0  0  0  0  0  0  0  0  0  0  0  0
   21.1542   19.0453   23.6597 O   0  0  0  0  0  0  0  0  0  0  0  0
   21.7881   18.2965   23.6336 H   0  0  0  0  0  0  0  0  0  0  0  0
  1  2  1  0  0  0  0
  1  3  1  0  0  0  0
  1  4  1  0  0  0  0
  4  5  1  0  0  0  0
  4  6  1  0  0  0  0
  4  7  1  0  0  0  0
  7  8  1  0  0  0  0
  1  9  1  0  0  0  0
  7  9  1  0  0  0  0
  9 10  1  0  0  0  0
  9 11  1  0  0  0  0
  7 12  1  0  0  0  0
 12 13  1  0  0  0  0
M  END
> <VConfSearch Rank>
512

> <Conf_Id>
19

> <Delta U+W>
-0.011

> <U+W>
-3.142

> <U>
-0.154

> <W>
-2.989

> <W(PB)>
-4.588

> <W(SA)>
1.599

> <Valence>
6.334

> <Coulomb>
-7.439

> <VdW>
0.951

> <VdW6>
-2.120

> <VdW12>
3.072

> <Bond>
0.065

> <Angle>
0.930

> <Pdih>
5.339

> <Idih>
0.000

> <Tether>
0.000

$$$$
VeraChem MOL file


 13 13  0  0  0  0  0  0  0  0999 V2000     
   19.1223   18.0249   22.7260 C   0  0  0  0  0  0  0  0  0  0  0  0
   18.3680   17.6180   23.4098 H   0  0  0  0  0  0  0  0  0  0  0  0
   19.5753   17.1946   22.1688 H   0  0  0  0  0  0  0  0  0  0  0  0
   20.1506   19.0250   23.3516 C   0  0  0  0  0  0  0  0  0  0  0  0
   19.7569   19.6215   24.1834 H   0  0  0  0  0  0  0  0  0  0  0  0
   21.1147   18.5992   23.6512 H   0  0  0  0  0  0  0  0  0  0  0  0
   20.1320   19.7580   21.9740 C   0  0  0  0  0  0  0  0  0  0  0  0
   20.2244   20.8500   22.0360 H   0  0  0  0  0  0  0  0  0  0  0  0
   18.6685   19.2322   21.8398 C   0  0  0  0  0  0  0  0  0  0  0  0
   18.3384   18.9855   20.8247 H   0  0  0  0  0  0  0  0  0  0  0  0
   17.9148   19.8789   22.3053 H   0  0  0  0  0  0  0  0  0  0  0  0
   21.0395   19.2492   21.0172 O   0  0  0  0  0  0  0  0  0  0  0  0
   20.8163   19.6627   20.1562 H   0  0  0  0  0  0  0  0  0  0  0  0
  1  2  1  0  0  0  0
  1  3  1  0  0  0  0
  1  4  1  0  0  0  0
  4  5  1  0  0  0  0
  4  6  1  0  0  0  0
  4  7  1  0  0  0  0
  7  8  1  0  0  0  0
  1  9  1  0  0  0  0
  7  9  1  0  0  0  0
  9 10  1  0  0  0  0
  9 11  1  0  0  0  0
  7 12  1  0  0  0  0
 12 13  1  0  0  0  0
M  END
> <VConfSearch Rank>
513

> <Conf_Id>
20

> <Delta U+W>
1.030

> <U+W>
-2.101

> <U>
0.841

> <W>
-2.942

> <W(PB)>
-4.530

> <W(SA)>
1.587

> <Valence>
6.736

> <Coulomb>
-7.246

> <VdW>
1.352

> <VdW6>
-2.500

> <VdW12>
3.851

> <Bond>
0.063

> <Angle>
0.687

> <Pdih>
5.986

> <Idih>
0.000

> <Tether>
0.000

$$$$
VeraChem MOL file


 13 13  0  0  0  0  0  0  0  0999 V2000     
   20.7065   18.1210   22.0415 C   0  0  0  0  0  0  0  0  0  0  0  0
   20.7440   17.2373   22.6921 H   0  0  0  0  0  0  0  0  0  0  0  0
   21.5568   18.0830   21.3502 H   0  0  0  0  0  0  0  0  0  0  0  0
   20.4908   19.4767   22.7918 C   0  0  0  0  0  0  0  0  0  0  0  0
   20.9251   19.5469   23.7951 H   0  0  0  0  0  0  0  0  0  0  0  0
   20.7801   20.3671   22.2199 H   0  0  0  0  0  0  0  0  0  0  0  0
   18.9733   19.1261   22.7343 C   0  0  0  0  0  0  0  0  0  0  0  0
   18.6427   18.4512   23.5355 H   0  0  0  0  0  0  0  0  0  0  0  0
   19.3086   18.3996   21.3968 C   0  0  0  0  0  0  0  0  0  0  0  0
   19.3336   19.0492   20.5132 H   0  0  0  0  0  0  0  0  0  0  0  0
   18.6989   17.5186   21.1681 H   0  0  0  0  0  0  0  0  0  0  0  0
   18.1025   20.2266   22.6225 O   0  0  0  0  0  0  0  0  0  0  0  0
   18.4456   20.7894   21.8971 H   0  0  0  0  0  0  0  0  0  0  0  0
  1  2  1  0  0  0  0
  1  3  1  0  0  0  0
  1  4  1  0  0  0  0
  4  5  1  0  0  0  0
  4  6  1  0  0  0  0
  4  7  1  0  0  0  0
  7  8  1  0  0  0  0
  1  9  1  0  0  0  0
  7  9  1  0  0  0  0
  9 10  1  0  0  0  0
  9 11  1  0  0  0  0
  7 12  1  0  0  0  0
 12 13  1  0  0  0  0
M  END
> <VConfSearch Rank>
514

> <Conf_Id>
24

> <Delta U+W>
0.356

> <U+W>
-2.775

> <U>
-0.184

> <W>
-2.591

> <W(PB)>
-4.184

> <W(SA)>
1.593

> <Valence>
6.840

> <Coulomb>
-7.916

> <VdW>
0.893

> <VdW6>
-2.167

> <VdW12>
3.060

> <Bond>
0.059

> <Angle>
0.918

> <Pdih>
5.862

> <Idih>
0.000

> <Tether>
0.000

$$$$
VeraChem MOL file


 13 13  0  0  0  0  0  0  0  0999 V2000     
   19.0990   19.0216   23.1633 C   0  0  0  0  0  0  0  0  0  0  0  0
   18.5316   18.4545   23.9108 H   0  0  0  0  0  0  0  0  0  0  0  0
   19.0931   20.0799   23.4536 H   0  0  0  0  0  0  0  0  0  0  0  0
   18.7261   18.7469   21.6681 C   0  0  0  0  0  0  0  0  0  0  0  0
   18.3690   17.7290   21.4696 H   0  0  0  0  0  0  0  0  0  0  0  0
   18.0308   19.4562   21.2053 H   0  0  0  0  0  0  0  0  0  0  0  0
   20.2371   18.9651   21.3469 C   0  0  0  0  0  0  0  0  0  0  0  0
   20.6351   18.3269   20.5476 H   0  0  0  0  0  0  0  0  0  0  0  0
   20.5077   18.4480   22.7937 C   0  0  0  0  0  0  0  0  0  0  0  0
   20.5874   17.3568   22.8712 H   0  0  0  0  0  0  0  0  0  0  0  0
   21.3631   18.8971   23.3107 H   0  0  0  0  0  0  0  0  0  0  0  0
   20.6057   20.3084   21.1202 O   0  0  0  0  0  0  0  0  0  0  0  0
   20.2260   20.8275   21.8589 H   0  0  0  0  0  0  0  0  0  0  0  0
  1  2  1  0  0  0  0
  1  3  1  0  0  0  0
  1  4  1  0  0  0  0
  4  5  1  0  0  0  0
  4  6  1  0  0  0  0
  4  7  1  0  0  0  0
  7  8  1  0  0  0  0
  1  9  1  0  0  0  0
  7  9  1  0  0  0  0
  9 10  1  0  0  0  0
  9 11  1  0  0  0  0
  7 12  1  0  0  0  0
 12 13  1  0  0  0  0
M  END
> <VConfSearch Rank>
515

> <Conf_Id>
44

> <Delta U+W>
0.823

> <U+W>
-2.308

> <U>
0.039

> <W>
-2.348

> <W(PB)>
-3.918

> <W(SA)>
1.571

> <Valence>
7.320

> <Coulomb>
-8.530

> <VdW>
1.249

> <VdW6>
-2.615

> <VdW12>
3.864

> <Bond>
0.056

> <Angle>
0.694

> <Pdih>
6.570

> <Idih>
0.000

> <Tether>
0.000

$$$$
VeraChem MOL file


 13 13  0  0  0  0  0  0  0  0999 V2000     
   18.7171   18.8324   23.1396 C   0  0  0  0  0  0  0  0  0  0  0  0
   18.1526   17.9067   22.9660 H   0  0  0  0  0  0  0  0  0  0  0  0
   18.3484   19.3001   24.0603 H   0  0  0  0  0  0  0  0  0  0  0  0
   18.8364   19.7698   21.8929 C   0  0  0  0  0  0  0  0  0  0  0  0
   17.9871   19.7649   21.2011 H   0  0  0  0  0  0  0  0  0  0  0  0
   19.0981   20.8100   22.1232 H   0  0  0  0  0  0  0  0  0  0  0  0
   20.0459   18.8745   21.4874 C   0  0  0  0  0  0  0  0  0  0  0  0
   19.7586   17.9538   20.9613 H   0  0  0  0  0  0  0  0  0  0  0  0
   20.2698   18.6848   23.0181 C   0  0  0  0  0  0  0  0  0  0  0  0
   20.6879   17.7195   23.3240 H   0  0  0  0  0  0  0  0  0  0  0  0
   20.8451   19.4867   23.4975 H   0  0  0  0  0  0  0  0  0  0  0  0
   21.0839   19.5380   20.8041 O   0  0  0  0  0  0  0  0  0  0  0  0
   21.8419   18.9166   20.7529 H   0  0  0  0  0  0  0  0  0  0  0  0
  1  2  1  0  0  0  0
  1  3  1  0  0  0  0
  1  4  1  0  0  0  0
  4  5  1  0  0  0  0
  4  6  1  0  0  0  0
  4  7  1  0  0  0  0
  7  8  1  0  0  0  0
  1  9  1  0  0  0  0
  7  9  1  0  0  0  0
  9 10  1  0  0  0  0
  9 11  1  0  0  0  0
  7 12  1  0  0  0  0
 12 13  1  0  0  0  0
M  END
> <VConfSearch Rank>
516

> <Conf_Id>
22

> <Delta U+W>
0.000

> <U+W>
-3.131

> <U>
-0.154

> <W>
-2.978

> <W(PB)>
-4.579

> <W(SA)>
1.601

> <Valence>
6.333

> <Coulomb>
-7.439

> <VdW>
0.952

> <VdW6>
-2.120

> <VdW12>
3.072

> <Bond>
0.065

> <Angle>
0.931

> <Pdih>
5.338

> <Idih>
0.000

> <Tether>
0.000

$$$$
VeraChem MOL file


 13 13  0  0  0  0  0  0  0  0999 V2000     
   18.9816   18.2042   23.1410 C   0  0  0  0  0  0  0  0  0  0  0  0
   19.2474   17.1392   23.1188 H   0  0  0  0  0  0  0  0  0  0  0  0
   18.1942   18.3534   23.8894 H   0  0  0  0  0  0  0  0  0  0  0  0
   18.7249   18.8442   21.7368 C   0  0  0  0  0  0  0  0  0  0  0  0
   18.1549   19.7815   21.7578 H   0  0  0  0  0  0  0  0  0  0  0  0
   18.2904   18.1841   20.9781 H   0  0  0  0  0  0  0  0  0  0  0  0
   20.2713   19.0282   21.6729 C   0  0  0  0  0  0  0  0  0  0  0  0
   20.8136   18.1322   21.3409 H   0  0  0  0  0  0  0  0  0  0  0  0
   20.2005   19.1814   23.2222 C   0  0  0  0  0  0  0  0  0  0  0  0
   19.9562   20.1935   23.5681 H   0  0  0  0  0  0  0  0  0  0  0  0
   21.0735   18.8206   23.7769 H   0  0  0  0  0  0  0  0  0  0  0  0
   20.7143   20.1686   20.9746 O   0  0  0  0  0  0  0  0  0  0  0  0
   20.5592   20.0032   20.0197 H   0  0  0  0  0  0  0  0  0  0  0  0
  1  2  1  0  0  0  0
  1  3  1  0  0  0  0
  1  4  1  0  0  0  0
  4  5  1  0  0  0  0
  4  6  1  0  0  0  0
  4  7  1  0  0  0  0
  7  8  1  0  0  0  0
  1  9  1  0  0  0  0
  7  9  1  0  0  0  0
  9 10  1  0  0  0  0
  9 11  1  0  0  0  0
  7 12  1  0  0  0  0
 12 13  1  0  0  0  0
M  END
> <VConfSearch Rank>
517

> <Conf_Id>
19

> <Delta U+W>
-0.011

> <U+W>
-3.142

> <U>
-0.154

> <W>
-2.989

> <W(PB)>
-4.588

> <W(SA)>
1.599

> <Valence>
6.334

> <Coulomb>
-7.439

> <VdW>
0.951

> <VdW6>
-2.120

> <VdW12>
3.072

> <Bond>
0.065

> <Angle>
0.930

> <Pdih>
5.339

> <Idih>
0.000

> <Tether>
0.000

$$$$
VeraChem MOL file


 13 13  0  0  0  0  0  0  0  0999 V2000     
   20.0694   19.3477   23.3940 C   0  0  0  0  0  0  0  0  0  0  0  0
   19.8793   19.9112   24.3150 H   0  0  0  0  0  0  0  0  0  0  0  0
   20.9895   18.7631   23.5237 H   0  0  0  0  0  0  0  0  0  0  0  0
   20.0012   20.1642   22.0607 C   0  0  0  0  0  0  0  0  0  0  0  0
   19.2969   21.0047   22.0775 H   0  0  0  0  0  0  0  0  0  0  0  0
   20.9591   20.5175   21.6633 H   0  0  0  0  0  0  0  0  0  0  0  0
   19.4327   18.8666   21.4061 C   0  0  0  0  0  0  0  0  0  0  0  0
   18.6745   19.0397   20.6315 H   0  0  0  0  0  0  0  0  0  0  0  0
   18.8597   18.5377   22.8202 C   0  0  0  0  0  0  0  0  0  0  0  0
   18.8223   17.4760   23.0878 H   0  0  0  0  0  0  0  0  0  0  0  0
   17.8782   18.9840   23.0216 H   0  0  0  0  0  0  0  0  0  0  0  0
   20.4102   17.9619   20.9326 O   0  0  0  0  0  0  0  0  0  0  0  0
   19.9487   17.1255   20.7100 H   0  0  0  0  0  0  0  0  0  0  0  0
  1  2  1  0  0  0  0
  1  3  1  0  0  0  0
  1  4  1  0  0  0  0
  4  5  1  0  0  0  0
  4  6  1  0  0  0  0
  4  7  1  0  0  0  0
  7  8  1  0  0  0  0
  1  9  1  0  0  0  0
  7  9  1  0  0  0  0
  9 10  1  0  0  0  0
  9 11  1  0  0  0  0
  7 12  1  0  0  0  0
 12 13  1  0  0  0  0
M  END
> <VConfSearch Rank>
518

> <Conf_Id>
20

> <Delta U+W>
1.030

> <U+W>
-2.101

> <U>
0.841

> <W>
-2.942

> <W(PB)>
-4.530

> <W(SA)>
1.587

> <Valence>
6.736

> <Coulomb>
-7.246

> <VdW>
1.352

> <VdW6>
-2.500

> <VdW12>
3.851

> <Bond>
0.063

> <Angle>
0.687

> <Pdih>
5.986

> <Idih>
0.000

> <Tether>
0.000

$$$$
VeraChem MOL file


 13 13  0  0  0  0  0  0  0  0999 V2000     
   19.7812   19.1612   23.4764 C   0  0  0  0  0  0  0  0  0  0  0  0
   18.8303   19.3402   23.9953 H   0  0  0  0  0  0  0  0  0  0  0  0
   20.5943   19.2051   24.2109 H   0  0  0  0  0  0  0  0  0  0  0  0
   19.9848   20.0047   22.1747 C   0  0  0  0  0  0  0  0  0  0  0  0
   19.5322   21.0024   22.1710 H   0  0  0  0  0  0  0  0  0  0  0  0
   21.0270   20.0897   21.8430 H   0  0  0  0  0  0  0  0  0  0  0  0
   19.1619   18.8857   21.4678 C   0  0  0  0  0  0  0  0  0  0  0  0
   18.0742   19.0070   21.5627 H   0  0  0  0  0  0  0  0  0  0  0  0
   19.7827   17.9210   22.5229 C   0  0  0  0  0  0  0  0  0  0  0  0
   20.7797   17.5403   22.2689 H   0  0  0  0  0  0  0  0  0  0  0  0
   19.1516   17.0785   22.8266 H   0  0  0  0  0  0  0  0  0  0  0  0
   19.5169   18.6277   20.1302 O   0  0  0  0  0  0  0  0  0  0  0  0
   20.4919   18.5293   20.1077 H   0  0  0  0  0  0  0  0  0  0  0  0
  1  2  1  0  0  0  0
  1  3  1  0  0  0  0
  1  4  1  0  0  0  0
  4  5  1  0  0  0  0
  4  6  1  0  0  0  0
  4  7  1  0  0  0  0
  7  8  1  0  0  0  0
  1  9  1  0  0  0  0
  7  9  1  0  0  0  0
  9 10  1  0  0  0  0
  9 11  1  0  0  0  0
  7 12  1  0  0  0  0
 12 13  1  0  0  0  0
M  END
> <VConfSearch Rank>
519

> <Conf_Id>
24

> <Delta U+W>
0.356

> <U+W>
-2.775

> <U>
-0.184

> <W>
-2.591

> <W(PB)>
-4.184

> <W(SA)>
1.593

> <Valence>
6.840

> <Coulomb>
-7.916

> <VdW>
0.893

> <VdW6>
-2.167

> <VdW12>
3.060

> <Bond>
0.059

> <Angle>
0.918

> <Pdih>
5.862

> <Idih>
0.000

> <Tether>
0.000

$$$$
VeraChem MOL file


 13 13  0  0  0  0  0  0  0  0999 V2000     
   19.6101   20.0497   22.5171 C   0  0  0  0  0  0  0  0  0  0  0  0
   20.0367   20.8552   23.1265 H   0  0  0  0  0  0  0  0  0  0  0  0
   18.7402   20.4463   21.9783 H   0  0  0  0  0  0  0  0  0  0  0  0
   19.3647   18.6908   23.2542 C   0  0  0  0  0  0  0  0  0  0  0  0
   20.0670   18.4848   24.0711 H   0  0  0  0  0  0  0  0  0  0  0  0
   18.3461   18.5156   23.6183 H   0  0  0  0  0  0  0  0  0  0  0  0
   19.7354   17.9980   21.9063 C   0  0  0  0  0  0  0  0  0  0  0  0
   20.2873   17.0550   22.0096 H   0  0  0  0  0  0  0  0  0  0  0  0
   20.6244   19.2505   21.6324 C   0  0  0  0  0  0  0  0  0  0  0  0
   21.6356   19.1818   22.0516 H   0  0  0  0  0  0  0  0  0  0  0  0
   20.7023   19.5626   20.5849 H   0  0  0  0  0  0  0  0  0  0  0  0
   18.6574   17.8304   21.0111 O   0  0  0  0  0  0  0  0  0  0  0  0
   18.2046   18.6974   20.9587 H   0  0  0  0  0  0  0  0  0  0  0  0
  1  2  1  0  0  0  0
  1  3  1  0  0  0  0
  1  4  1  0  0  0  0
  4  5  1  0  0  0  0
  4  6  1  0  0  0  0
  4  7  1  0  0  0  0
  7  8  1  0  0  0  0
  1  9  1  0  0  0  0
  7  9  1  0  0  0  0
  9 10  1  0  0  0  0
  9 11  1  0  0  0  0
  7 12  1  0  0  0  0
 12 13  1  0  0  0  0
M  END
> <VConfSearch Rank>
520

> <Conf_Id>
44

> <Delta U+W>
0.823

> <U+W>
-2.308

> <U>
0.039

> <W>
-2.348

> <W(PB)>
-3.918

> <W(SA)>
1.571

> <Valence>
7.320

> <Coulomb>
-8.530

> <VdW>
1.249

> <VdW6>
-2.615

> <VdW12>
3.864

> <Bond>
0.056

> <Angle>
0.694

> <Pdih>
6.570

> <Idih>
0.000

> <Tether>
0.000

$$$$
VeraChem MOL file


 13 13  0  0  0  0  0  0  0  0999 V2000     
   20.9288   18.9408   22.6212 C   0  0  0  0  0  0  0  0  0  0  0  0
   21.0701   19.0099   23.7079 H   0  0  0  0  0  0  0  0  0  0  0  0
   21.9018   18.7507   22.1528 H   0  0  0  0  0  0  0  0  0  0  0  0
   20.0799   20.0970   21.9968 C   0  0  0  0  0  0  0  0  0  0  0  0
   20.1683   21.0767   22.4789 H   0  0  0  0  0  0  0  0  0  0  0  0
   20.2023   20.2242   20.9140 H   0  0  0  0  0  0  0  0  0  0  0  0
   18.8409   19.2472   22.4110 C   0  0  0  0  0  0  0  0  0  0  0  0
   18.5406   19.3838   23.4590 H   0  0  0  0  0  0  0  0  0  0  0  0
   19.7559   18.0084   22.1715 C   0  0  0  0  0  0  0  0  0  0  0  0
   19.5596   17.1390   22.8085 H   0  0  0  0  0  0  0  0  0  0  0  0
   19.8093   17.6763   21.1272 H   0  0  0  0  0  0  0  0  0  0  0  0
   17.7273   19.3487   21.5542 O   0  0  0  0  0  0  0  0  0  0  0  0
   17.0879   18.6552   21.8252 H   0  0  0  0  0  0  0  0  0  0  0  0
  1  2  1  0  0  0  0
  1  3  1  0  0  0  0
  1  4  1  0  0  0  0
  4  5  1  0  0  0  0
  4  6  1  0  0  0  0
  4  7  1  0  0  0  0
  7  8  1  0  0  0  0
  1  9  1  0  0  0  0
  7  9  1  0  0  0  0
  9 10  1  0  0  0  0
  9 11  1  0  0  0  0
  7 12  1  0  0  0  0
 12 13  1  0  0  0  0
M  END
> <VConfSearch Rank>
521

> <Conf_Id>
22

> <Delta U+W>
0.000

> <U+W>
-3.131

> <U>
-0.154

> <W>
-2.978

> <W(PB)>
-4.579

> <W(SA)>
1.601

> <Valence>
6.333

> <Coulomb>
-7.439

> <VdW>
0.952

> <VdW6>
-2.120

> <VdW12>
3.072

> <Bond>
0.065

> <Angle>
0.931

> <Pdih>
5.338

> <Idih>
0.000

> <Tether>
0.000

$$$$
VeraChem MOL file


 13 13  0  0  0  0  0  0  0  0999 V2000     
   18.5529   19.2409   21.5508 C   0  0  0  0  0  0  0  0  0  0  0  0
   18.7725   19.8202   20.6442 H   0  0  0  0  0  0  0  0  0  0  0  0
   17.4656   19.1334   21.6431 H   0  0  0  0  0  0  0  0  0  0  0  0
   19.3073   19.7222   22.8340 C   0  0  0  0  0  0  0  0  0  0  0  0
   18.8653   19.3835   23.7793 H   0  0  0  0  0  0  0  0  0  0  0  0
   19.5049   20.7976   22.9023 H   0  0  0  0  0  0  0  0  0  0  0  0
   20.4889   18.8450   22.3207 C   0  0  0  0  0  0  0  0  0  0  0  0
   21.1203   19.3418   21.5713 H   0  0  0  0  0  0  0  0  0  0  0  0
   19.3888   17.9277   21.7067 C   0  0  0  0  0  0  0  0  0  0  0  0
   18.9668   17.1943   22.4050 H   0  0  0  0  0  0  0  0  0  0  0  0
   19.6605   17.4142   20.7780 H   0  0  0  0  0  0  0  0  0  0  0  0
   21.2781   18.2498   23.3244 O   0  0  0  0  0  0  0  0  0  0  0  0
   21.8102   18.9637   23.7373 H   0  0  0  0  0  0  0  0  0  0  0  0
  1  2  1  0  0  0  0
  1  3  1  0  0  0  0
  1  4  1  0  0  0  0
  4  5  1  0  0  0  0
  4  6  1  0  0  0  0
  4  7  1  0  0  0  0
  7  8  1  0  0  0  0
  1  9  1  0  0  0  0
  7  9  1  0  0  0  0
  9 10  1  0  0  0  0
  9 11  1  0  0  0  0
  7 12  1  0  0  0  0
 12 13  1  0  0  0  0
M  END
> <VConfSearch Rank>
522

> <Conf_Id>
19

> <Delta U+W>
-0.011

> <U+W>
-3.142

> <U>
-0.154

> <W>
-2.989

> <W(PB)>
-4.588

> <W(SA)>
1.599

> <Valence>
6.334

> <Coulomb>
-7.439

> <VdW>
0.951

> <VdW6>
-2.120

> <VdW12>
3.072

> <Bond>
0.065

> <Angle>
0.930

> <Pdih>
5.339

> <Idih>
0.000

> <Tether>
0.000

$$$$
VeraChem MOL file


 13 13  0  0  0  0  0  0  0  0999 V2000     
   20.3194   18.8749   21.2735 C   0  0  0  0  0  0  0  0  0  0  0  0
   20.3009   18.6931   20.1925 H   0  0  0  0  0  0  0  0  0  0  0  0
   21.3625   19.0055   21.5898 H   0  0  0  0  0  0  0  0  0  0  0  0
   19.4938   17.8783   22.1535 C   0  0  0  0  0  0  0  0  0  0  0  0
   18.6043   17.4664   21.6617 H   0  0  0  0  0  0  0  0  0  0  0  0
   20.0576   17.0547   22.6053 H   0  0  0  0  0  0  0  0  0  0  0  0
   19.2026   19.0935   23.0883 C   0  0  0  0  0  0  0  0  0  0  0  0
   18.2031   19.0920   23.5419 H   0  0  0  0  0  0  0  0  0  0  0  0
   19.3366   19.9708   21.8043 C   0  0  0  0  0  0  0  0  0  0  0  0
   19.7632   20.9697   21.9479 H   0  0  0  0  0  0  0  0  0  0  0  0
   18.4088   20.0664   21.2272 H   0  0  0  0  0  0  0  0  0  0  0  0
   20.1830   19.3306   24.0786 O   0  0  0  0  0  0  0  0  0  0  0  0
   19.9860   20.2038   24.4796 H   0  0  0  0  0  0  0  0  0  0  0  0
  1  2  1  0  0  0  0
  1  3  1  0  0  0  0
  1  4  1  0  0  0  0
  4  5  1  0  0  0  0
  4  6  1  0  0  0  0
  4  7  1  0  0  0  0
  7  8  1  0  0  0  0
  1  9  1  0  0  0  0
  7  9  1  0  0  0  0
  9 10  1  0  0  0  0
  9 11  1  0  0  0  0
  7 12  1  0  0  0  0
 12 13  1  0  0  0  0
M  END
> <VConfSearch Rank>
523

> <Conf_Id>
20

> <Delta U+W>
1.030

> <U+W>
-2.101

> <U>
0.841

> <W>
-2.942

> <W(PB)>
-4.530

> <W(SA)>
1.587

> <Valence>
6.736

> <Coulomb>
-7.246

> <VdW>
1.352

> <VdW6>
-2.500

> <VdW12>
3.851

> <Bond>
0.063

> <Angle>
0.687

> <Pdih>
5.986

> <Idih>
0.000

> <Tether>
0.000

$$$$
VeraChem MOL file


 13 13  0  0  0  0  0  0  0  0999 V2000     
   19.8528   20.2131   22.4231 C   0  0  0  0  0  0  0  0  0  0  0  0
   19.0248   20.8603   22.1052 H   0  0  0  0  0  0  0  0  0  0  0  0
   20.6306   20.8379   22.8781 H   0  0  0  0  0  0  0  0  0  0  0  0
   20.3371   19.1919   21.3415 C   0  0  0  0  0  0  0  0  0  0  0  0
   20.2617   19.5213   20.2993 H   0  0  0  0  0  0  0  0  0  0  0  0
   21.3430   18.7884   21.5111 H   0  0  0  0  0  0  0  0  0  0  0  0
   19.1744   18.2877   21.8513 C   0  0  0  0  0  0  0  0  0  0  0  0
   18.1978   18.5293   21.4101 H   0  0  0  0  0  0  0  0  0  0  0  0
   19.4200   18.9511   23.2401 C   0  0  0  0  0  0  0  0  0  0  0  0
   20.2209   18.4938   23.8341 H   0  0  0  0  0  0  0  0  0  0  0  0
   18.5346   19.0679   23.8747 H   0  0  0  0  0  0  0  0  0  0  0  0
   19.4158   16.9021   21.7921 O   0  0  0  0  0  0  0  0  0  0  0  0
   20.2949   16.7480   22.1973 H   0  0  0  0  0  0  0  0  0  0  0  0
  1  2  1  0  0  0  0
  1  3  1  0  0  0  0
  1  4  1  0  0  0  0
  4  5  1  0  0  0  0
  4  6  1  0  0  0  0
  4  7  1  0  0  0  0
  7  8  1  0  0  0  0
  1  9  1  0  0  0  0
  7  9  1  0  0  0  0
  9 10  1  0  0  0  0
  9 11  1  0  0  0  0
  7 12  1  0  0  0  0
 12 13  1  0  0  0  0
M  END
> <VConfSearch Rank>
524

> <Conf_Id>
24

> <Delta U+W>
0.356

> <U+W>
-2.775

> <U>
-0.184

> <W>
-2.591

> <W(PB)>
-4.184

> <W(SA)>
1.593

> <Valence>
6.840

> <Coulomb>
-7.916

> <VdW>
0.893

> <VdW6>
-2.167

> <VdW12>
3.060

> <Bond>
0.059

> <Angle>
0.918

> <Pdih>
5.862

> <Idih>
0.000

> <Tether>
0.000

$$$$
VeraChem MOL file


 13 13  0  0  0  0  0  0  0  0999 V2000     
   19.2199   18.4492   23.0868 C   0  0  0  0  0  0  0  0  0  0  0  0
   19.3961   17.9013   24.0201 H   0  0  0  0  0  0  0  0  0  0  0  0
   18.1366   18.5301   22.9317 H   0  0  0  0  0  0  0  0  0  0  0  0
   20.0285   17.9558   21.8407 C   0  0  0  0  0  0  0  0  0  0  0  0
   21.0078   17.5225   22.0782 H   0  0  0  0  0  0  0  0  0  0  0  0
   19.5023   17.2755   21.1616 H   0  0  0  0  0  0  0  0  0  0  0  0
   20.0844   19.4512   21.3996 C   0  0  0  0  0  0  0  0  0  0  0  0
   21.0173   19.7512   20.9054 H   0  0  0  0  0  0  0  0  0  0  0  0
   20.0108   19.7898   22.9208 C   0  0  0  0  0  0  0  0  0  0  0  0
   20.9857   19.8062   23.4231 H   0  0  0  0  0  0  0  0  0  0  0  0
   19.4692   20.7059   23.1818 H   0  0  0  0  0  0  0  0  0  0  0  0
   18.9758   19.8864   20.6424 O   0  0  0  0  0  0  0  0  0  0  0  0
   18.1774   19.5929   21.1278 H   0  0  0  0  0  0  0  0  0  0  0  0
  1  2  1  0  0  0  0
  1  3  1  0  0  0  0
  1  4  1  0  0  0  0
  4  5  1  0  0  0  0
  4  6  1  0  0  0  0
  4  7  1  0  0  0  0
  7  8  1  0  0  0  0
  1  9  1  0  0  0  0
  7  9  1  0  0  0  0
  9 10  1  0  0  0  0
  9 11  1  0  0  0  0
  7 12  1  0  0  0  0
 12 13  1  0  0  0  0
M  END
> <VConfSearch Rank>
525

> <Conf_Id>
44

> <Delta U+W>
0.823

> <U+W>
-2.308

> <U>
0.039

> <W>
-2.348

> <W(PB)>
-3.918

> <W(SA)>
1.571

> <Valence>
7.320

> <Coulomb>
-8.530

> <VdW>
1.249

> <VdW6>
-2.615

> <VdW12>
3.864

> <Bond>
0.056

> <Angle>
0.694

> <Pdih>
6.570

> <Idih>
0.000

> <Tether>
0.000

$$$$
VeraChem MOL file


 13 13  0  0  0  0  0  0  0  0999 V2000     
   20.0488   18.2877   23.2609 C   0  0  0  0  0  0  0  0  0  0  0  0
   19.2152   17.9420   23.8864 H   0  0  0  0  0  0  0  0  0  0  0  0
   20.9786   17.8495   23.6426 H   0  0  0  0  0  0  0  0  0  0  0  0
   20.0735   19.8295   22.9973 C   0  0  0  0  0  0  0  0  0  0  0  0
   19.6908   20.4643   23.8038 H   0  0  0  0  0  0  0  0  0  0  0  0
   21.0425   20.2240   22.6672 H   0  0  0  0  0  0  0  0  0  0  0  0
   19.0730   19.5252   21.8418 C   0  0  0  0  0  0  0  0  0  0  0  0
   18.0282   19.4416   22.1712 H   0  0  0  0  0  0  0  0  0  0  0  0
   19.8093   18.1569   21.7204 C   0  0  0  0  0  0  0  0  0  0  0  0
   19.1938   17.3098   21.3983 H   0  0  0  0  0  0  0  0  0  0  0  0
   20.7215   18.1825   21.1113 H   0  0  0  0  0  0  0  0  0  0  0  0
   19.1772   20.3675   20.7174 O   0  0  0  0  0  0  0  0  0  0  0  0
   18.6203   19.9776   20.0096 H   0  0  0  0  0  0  0  0  0  0  0  0
  1  2  1  0  0  0  0
  1  3  1  0  0  0  0
  1  4  1  0  0  0  0
  4  5  1  0  0  0  0
  4  6  1  0  0  0  0
  4  7  1  0  0  0  0
  7  8  1  0  0  0  0
  1  9  1  0  0  0  0
  7  9  1  0  0  0  0
  9 10  1  0  0  0  0
  9 11  1  0  0  0  0
  7 12  1  0  0  0  0
 12 13  1  0  0  0  0
M  END
> <VConfSearch Rank>
526

> <Conf_Id>
22

> <Delta U+W>
0.000

> <U+W>
-3.131

> <U>
-0.154

> <W>
-2.978

> <W(PB)>
-4.579

> <W(SA)>
1.601

> <Valence>
6.333

> <Coulomb>
-7.439

> <VdW>
0.952

> <VdW6>
-2.120

> <VdW12>
3.072

> <Bond>
0.065

> <Angle>
0.931

> <Pdih>
5.338

> <Idih>
0.000

> <Tether>
0.000

$$$$
VeraChem MOL file


 13 13  0  0  0  0  0  0  0  0999 V2000     
   18.6337   18.6318   23.0605 C   0  0  0  0  0  0  0  0  0  0  0  0
   18.3828   17.5629   23.0757 H   0  0  0  0  0  0  0  0  0  0  0  0
   17.9289   19.1664   23.7084 H   0  0  0  0  0  0  0  0  0  0  0  0
   18.8467   19.2340   21.6325 C   0  0  0  0  0  0  0  0  0  0  0  0
   18.7706   20.3273   21.5803 H   0  0  0  0  0  0  0  0  0  0  0  0
   18.2398   18.7995   20.8305 H   0  0  0  0  0  0  0  0  0  0  0  0
   20.3027   18.6912   21.7535 C   0  0  0  0  0  0  0  0  0  0  0  0
   20.4056   17.6288   21.4932 H   0  0  0  0  0  0  0  0  0  0  0  0
   20.1490   18.9515   23.2823 C   0  0  0  0  0  0  0  0  0  0  0  0
   20.3609   19.9826   23.5914 H   0  0  0  0  0  0  0  0  0  0  0  0
   20.6965   18.2671   23.9394 H   0  0  0  0  0  0  0  0  0  0  0  0
   21.2890   19.4623   21.1075 O   0  0  0  0  0  0  0  0  0  0  0  0
   21.1758   19.3291   20.1418 H   0  0  0  0  0  0  0  0  0  0  0  0
  1  2  1  0  0  0  0
  1  3  1  0  0  0  0
  1  4  1  0  0  0  0
  4  5  1  0  0  0  0
  4  6  1  0  0  0  0
  4  7  1  0  0  0  0
  7  8  1  0  0  0  0
  1  9  1  0  0  0  0
  7  9  1  0  0  0  0
  9 10  1  0  0  0  0
  9 11  1  0  0  0  0
  7 12  1  0  0  0  0
 12 13  1  0  0  0  0
M  END
> <VConfSearch Rank>
527

> <Conf_Id>
19

> <Delta U+W>
-0.011

> <U+W>
-3.142

> <U>
-0.154

> <W>
-2.989

> <W(PB)>
-4.588

> <W(SA)>
1.599

> <Valence>
6.334

> <Coulomb>
-7.439

> <VdW>
0.951

> <VdW6>
-2.120

> <VdW12>
3.072

> <Bond>
0.065

> <Angle>
0.930

> <Pdih>
5.339

> <Idih>
0.000

> <Tether>
0.000

$$$$
VeraChem MOL file


 13 13  0  0  0  0  0  0  0  0999 V2000     
   19.8835   19.9168   21.4378 C   0  0  0  0  0  0  0  0  0  0  0  0
   20.4710   20.8161   21.2187 H   0  0  0  0  0  0  0  0  0  0  0  0
   19.3341   19.6271   20.5326 H   0  0  0  0  0  0  0  0  0  0  0  0
   19.0143   19.9622   22.7384 C   0  0  0  0  0  0  0  0  0  0  0  0
   19.4324   20.5780   23.5438 H   0  0  0  0  0  0  0  0  0  0  0  0
   17.9604   20.2297   22.6037 H   0  0  0  0  0  0  0  0  0  0  0  0
   19.3141   18.4371   22.8782 C   0  0  0  0  0  0  0  0  0  0  0  0
   19.4322   18.0873   23.9119 H   0  0  0  0  0  0  0  0  0  0  0  0
   20.6517   18.7455   22.1353 C   0  0  0  0  0  0  0  0  0  0  0  0
   21.0266   17.9562   21.4745 H   0  0  0  0  0  0  0  0  0  0  0  0
   21.4674   19.0666   22.7944 H   0  0  0  0  0  0  0  0  0  0  0  0
   18.4245   17.5895   22.1794 O   0  0  0  0  0  0  0  0  0  0  0  0
   18.8095   16.6875   22.1954 H   0  0  0  0  0  0  0  0  0  0  0  0
  1  2  1  0  0  0  0
  1  3  1  0  0  0  0
  1  4  1  0  0  0  0
  4  5  1  0  0  0  0
  4  6  1  0  0  0  0
  4  7  1  0  0  0  0
  7  8  1  0  0  0  0
  1  9  1  0  0  0  0
  7  9  1  0  0  0  0
  9 10  1  0  0  0  0
  9 11  1  0  0  0  0
  7 12  1  0  0  0  0
 12 13  1  0  0  0  0
M  END
> <VConfSearch Rank>
528

> <Conf_Id>
20

> <Delta U+W>
1.030

> <U+W>
-2.101

> <U>
0.841

> <W>
-2.942

> <W(PB)>
-4.530

> <W(SA)>
1.587

> <Valence>
6.736

> <Coulomb>
-7.246

> <VdW>
1.352

> <VdW6>
-2.500

> <VdW12>
3.851

> <Bond>
0.063

> <Angle>
0.687

> <Pdih>
5.986

> <Idih>
0.000

> <Tether>
0.000

$$$$
VeraChem MOL file


 13 13  0  0  0  0  0  0  0  0999 V2000     
   19.6327   20.2047   22.4645 C   0  0  0  0  0  0  0  0  0  0  0  0
   19.9579   20.5635   23.4499 H   0  0  0  0  0  0  0  0  0  0  0  0
   19.2606   21.0590   21.8863 H   0  0  0  0  0  0  0  0  0  0  0  0
   18.7074   18.9438   22.5002 C   0  0  0  0  0  0  0  0  0  0  0  0
   18.0426   18.8580   23.3669 H   0  0  0  0  0  0  0  0  0  0  0  0
   18.1196   18.7817   21.5883 H   0  0  0  0  0  0  0  0  0  0  0  0
   20.0317   18.1259   22.5796 C   0  0  0  0  0  0  0  0  0  0  0  0
   20.4435   18.0449   23.5948 H   0  0  0  0  0  0  0  0  0  0  0  0
   20.6588   19.2760   21.7352 C   0  0  0  0  0  0  0  0  0  0  0  0
   20.5072   19.1882   20.6523 H   0  0  0  0  0  0  0  0  0  0  0  0
   21.7175   19.4836   21.9261 H   0  0  0  0  0  0  0  0  0  0  0  0
   20.0016   16.8646   21.9550 O   0  0  0  0  0  0  0  0  0  0  0  0
   19.6275   16.9989   21.0590 H   0  0  0  0  0  0  0  0  0  0  0  0
  1  2  1  0  0  0  0
  1  3  1  0  0  0  0
  1  4  1  0  0  0  0
  4  5  1  0  0  0  0
  4  6  1  0  0  0  0
  4  7  1  0  0  0  0
  7  8  1  0  0  0  0
  1  9  1  0  0  0  0
  7  9  1  0  0  0  0
  9 10  1  0  0  0  0
  9 11  1  0  0  0  0
  7 12  1  0  0  0  0
 12 13  1  0  0  0  0
M  END
> <VConfSearch Rank>
529

> <Conf_Id>
24

> <Delta U+W>
0.356

> <U+W>
-2.775

> <U>
-0.184

> <W>
-2.591

> <W(PB)>
-4.184

> <W(SA)>
1.593

> <Valence>
6.840

> <Coulomb>
-7.916

> <VdW>
0.893

> <VdW6>
-2.167

> <VdW12>
3.060

> <Bond>
0.059

> <Angle>
0.918

> <Pdih>
5.862

> <Idih>
0.000

> <Tether>
0.000

$$$$
VeraChem MOL file


 13 13  0  0  0  0  0  0  0  0999 V2000     
   20.6489   19.4094   22.6095 C   0  0  0  0  0  0  0  0  0  0  0  0
   21.7434   19.3438   22.6200 H   0  0  0  0  0  0  0  0  0  0  0  0
   20.3456   20.2458   23.2520 H   0  0  0  0  0  0  0  0  0  0  0  0
   19.8808   18.0699   22.8662 C   0  0  0  0  0  0  0  0  0  0  0  0
   20.4073   17.1719   22.5206 H   0  0  0  0  0  0  0  0  0  0  0  0
   19.5375   17.8987   23.8927 H   0  0  0  0  0  0  0  0  0  0  0  0
   18.8063   18.6014   21.8677 C   0  0  0  0  0  0  0  0  0  0  0  0
   18.3449   17.8325   21.2351 H   0  0  0  0  0  0  0  0  0  0  0  0
   19.9756   19.3866   21.1966 C   0  0  0  0  0  0  0  0  0  0  0  0
   20.5254   18.8115   20.4416 H   0  0  0  0  0  0  0  0  0  0  0  0
   19.7148   20.3616   20.7698 H   0  0  0  0  0  0  0  0  0  0  0  0
   17.8072   19.4109   22.4494 O   0  0  0  0  0  0  0  0  0  0  0  0
   18.2741   20.0739   22.9988 H   0  0  0  0  0  0  0  0  0  0  0  0
  1  2  1  0  0  0  0
  1  3  1  0  0  0  0
  1  4  1  0  0  0  0
  4  5  1  0  0  0  0
  4  6  1  0  0  0  0
  4  7  1  0  0  0  0
  7  8  1  0  0  0  0
  1  9  1  0  0  0  0
  7  9  1  0  0  0  0
  9 10  1  0  0  0  0
  9 11  1  0  0  0  0
  7 12  1  0  0  0  0
 12 13  1  0  0  0  0
M  END
> <VConfSearch Rank>
530

> <Conf_Id>
44

> <Delta U+W>
0.823

> <U+W>
-2.308

> <U>
0.039

> <W>
-2.348

> <W(PB)>
-3.918

> <W(SA)>
1.571

> <Valence>
7.320

> <Coulomb>
-8.530

> <VdW>
1.249

> <VdW6>
-2.615

> <VdW12>
3.864

> <Bond>
0.056

> <Angle>
0.694

> <Pdih>
6.570

> <Idih>
0.000

> <Tether>
0.000

$$$$
VeraChem MOL file


 13 13  0  0  0  0  0  0  0  0999 V2000     
   19.3006   20.3022   22.3935 C   0  0  0  0  0  0  0  0  0  0  0  0
   19.3126   20.6430   23.4372 H   0  0  0  0  0  0  0  0  0  0  0  0
   19.0278   21.1484   21.7517 H   0  0  0  0  0  0  0  0  0  0  0  0
   18.5140   18.9724   22.1484 C   0  0  0  0  0  0  0  0  0  0  0  0
   17.6467   18.7974   22.7943 H   0  0  0  0  0  0  0  0  0  0  0  0
   18.2187   18.7983   21.1062 H   0  0  0  0  0  0  0  0  0  0  0  0
   19.8314   18.2570   22.5742 C   0  0  0  0  0  0  0  0  0  0  0  0
   19.9540   18.1655   23.6621 H   0  0  0  0  0  0  0  0  0  0  0  0
   20.5624   19.4872   21.9565 C   0  0  0  0  0  0  0  0  0  0  0  0
   21.5077   19.7699   22.4324 H   0  0  0  0  0  0  0  0  0  0  0  0
   20.7166   19.4284   20.8718 H   0  0  0  0  0  0  0  0  0  0  0  0
   20.0809   17.0254   21.9374 O   0  0  0  0  0  0  0  0  0  0  0  0
   20.9993   16.7627   22.1623 H   0  0  0  0  0  0  0  0  0  0  0  0
  1  2  1  0  0  0  0
  1  3  1  0  0  0  0
  1  4  1  0  0  0  0
  4  5  1  0  0  0  0
  4  6  1  0  0  0  0
  4  7  1  0  0  0  0
  7  8  1  0  0  0  0
  1  9  1  0  0  0  0
  7  9  1  0  0  0  0
  9 10  1  0  0  0  0
  9 11  1  0  0  0  0
  7 12  1  0  0  0  0
 12 13  1  0  0  0  0
M  END
> <VConfSearch Rank>
531

> <Conf_Id>
22

> <Delta U+W>
0.000

> <U+W>
-3.131

> <U>
-0.154

> <W>
-2.978

> <W(PB)>
-4.579

> <W(SA)>
1.601

> <Valence>
6.333

> <Coulomb>
-7.439

> <VdW>
0.952

> <VdW6>
-2.120

> <VdW12>
3.072

> <Bond>
0.065

> <Angle>
0.931

> <Pdih>
5.338

> <Idih>
0.000

> <Tether>
0.000

$$$$
VeraChem MOL file


 13 13  0  0  0  0  0  0  0  0999 V2000     
   18.9610   18.7602   21.1202 C   0  0  0  0  0  0  0  0  0  0  0  0
   19.2068   19.5058   20.3526 H   0  0  0  0  0  0  0  0  0  0  0  0
   18.1707   18.1061   20.7330 H   0  0  0  0  0  0  0  0  0  0  0  0
   18.7276   19.3467   22.5516 C   0  0  0  0  0  0  0  0  0  0  0  0
   18.1752   18.6871   23.2325 H   0  0  0  0  0  0  0  0  0  0  0  0
   18.2866   20.3486   22.5962 H   0  0  0  0  0  0  0  0  0  0  0  0
   20.2776   19.2788   22.6998 C   0  0  0  0  0  0  0  0  0  0  0  0
   20.8054   20.1372   22.2621 H   0  0  0  0  0  0  0  0  0  0  0  0
   20.1976   18.0421   21.7548 C   0  0  0  0  0  0  0  0  0  0  0  0
   19.9698   17.0965   22.2622 H   0  0  0  0  0  0  0  0  0  0  0  0
   21.0592   17.8898   21.0957 H   0  0  0  0  0  0  0  0  0  0  0  0
   20.7476   19.0131   24.0010 O   0  0  0  0  0  0  0  0  0  0  0  0
   20.5969   19.8223   24.5354 H   0  0  0  0  0  0  0  0  0  0  0  0
  1  2  1  0  0  0  0
  1  3  1  0  0  0  0
  1  4  1  0  0  0  0
  4  5  1  0  0  0  0
  4  6  1  0  0  0  0
  4  7  1  0  0  0  0
  7  8  1  0  0  0  0
  1  9  1  0  0  0  0
  7  9  1  0  0  0  0
  9 10  1  0  0  0  0
  9 11  1  0  0  0  0
  7 12  1  0  0  0  0
 12 13  1  0  0  0  0
M  END
> <VConfSearch Rank>
532

> <Conf_Id>
19

> <Delta U+W>
-0.011

> <U+W>
-3.142

> <U>
-0.154

> <W>
-2.989

> <W(PB)>
-4.588

> <W(SA)>
1.599

> <Valence>
6.334

> <Coulomb>
-7.439

> <VdW>
0.951

> <VdW6>
-2.120

> <VdW12>
3.072

> <Bond>
0.065

> <Angle>
0.930

> <Pdih>
5.339

> <Idih>
0.000

> <Tether>
0.000

$$$$
VeraChem MOL file


 13 13  0  0  0  0  0  0  0  0999 V2000     
   18.7626   18.2298   22.5667 C   0  0  0  0  0  0  0  0  0  0  0  0
   17.6843   18.0565   22.6624 H   0  0  0  0  0  0  0  0  0  0  0  0
   19.2875   17.2816   22.7413 H   0  0  0  0  0  0  0  0  0  0  0  0
   19.3377   19.4471   23.3646 C   0  0  0  0  0  0  0  0  0  0  0  0
   18.6369   20.2814   23.4893 H   0  0  0  0  0  0  0  0  0  0  0  0
   19.7849   19.2165   24.3378 H   0  0  0  0  0  0  0  0  0  0  0  0
   20.3411   19.6261   22.1828 C   0  0  0  0  0  0  0  0  0  0  0  0
   20.5900   20.6691   21.9485 H   0  0  0  0  0  0  0  0  0  0  0  0
   19.2248   19.0031   21.2872 C   0  0  0  0  0  0  0  0  0  0  0  0
   19.5697   18.3852   20.4508 H   0  0  0  0  0  0  0  0  0  0  0  0
   18.4960   19.7298   20.9080 H   0  0  0  0  0  0  0  0  0  0  0  0
   21.5232   18.8578   22.2846 O   0  0  0  0  0  0  0  0  0  0  0  0
   21.9830   18.9158   21.4201 H   0  0  0  0  0  0  0  0  0  0  0  0
  1  2  1  0  0  0  0
  1  3  1  0  0  0  0
  1  4  1  0  0  0  0
  4  5  1  0  0  0  0
  4  6  1  0  0  0  0
  4  7  1  0  0  0  0
  7  8  1  0  0  0  0
  1  9  1  0  0  0  0
  7  9  1  0  0  0  0
  9 10  1  0  0  0  0
  9 11  1  0  0  0  0
  7 12  1  0  0  0  0
 12 13  1  0  0  0  0
M  END
> <VConfSearch Rank>
533

> <Conf_Id>
20

> <Delta U+W>
1.030

> <U+W>
-2.101

> <U>
0.841

> <W>
-2.942

> <W(PB)>
-4.530

> <W(SA)>
1.587

> <Valence>
6.736

> <Coulomb>
-7.246

> <VdW>
1.352

> <VdW6>
-2.500

> <VdW12>
3.851

> <Bond>
0.063

> <Angle>
0.687

> <Pdih>
5.986

> <Idih>
0.000

> <Tether>
0.000

$$$$
VeraChem MOL file


 13 13  0  0  0  0  0  0  0  0999 V2000     
   18.6831   18.8103   21.5116 C   0  0  0  0  0  0  0  0  0  0  0  0
   18.1685   19.7164   21.1653 H   0  0  0  0  0  0  0  0  0  0  0  0
   18.1292   17.9345   21.1530 H   0  0  0  0  0  0  0  0  0  0  0  0
   19.0584   18.8115   23.0303 C   0  0  0  0  0  0  0  0  0  0  0  0
   18.3721   19.3462   23.6962 H   0  0  0  0  0  0  0  0  0  0  0  0
   19.2572   17.8190   23.4532 H   0  0  0  0  0  0  0  0  0  0  0  0
   20.3275   19.6019   22.5902 C   0  0  0  0  0  0  0  0  0  0  0  0
   20.1596   20.6810   22.4712 H   0  0  0  0  0  0  0  0  0  0  0  0
   20.2268   18.7979   21.2588 C   0  0  0  0  0  0  0  0  0  0  0  0
   20.6869   17.8024   21.2857 H   0  0  0  0  0  0  0  0  0  0  0  0
   20.5725   19.3207   20.3602 H   0  0  0  0  0  0  0  0  0  0  0  0
   21.4846   19.3619   23.3553 O   0  0  0  0  0  0  0  0  0  0  0  0
   21.5824   18.3892   23.4272 H   0  0  0  0  0  0  0  0  0  0  0  0
  1  2  1  0  0  0  0
  1  3  1  0  0  0  0
  1  4  1  0  0  0  0
  4  5  1  0  0  0  0
  4  6  1  0  0  0  0
  4  7  1  0  0  0  0
  7  8  1  0  0  0  0
  1  9  1  0  0  0  0
  7  9  1  0  0  0  0
  9 10  1  0  0  0  0
  9 11  1  0  0  0  0
  7 12  1  0  0  0  0
 12 13  1  0  0  0  0
M  END
> <VConfSearch Rank>
534

> <Conf_Id>
24

> <Delta U+W>
0.356

> <U+W>
-2.775

> <U>
-0.184

> <W>
-2.591

> <W(PB)>
-4.184

> <W(SA)>
1.593

> <Valence>
6.840

> <Coulomb>
-7.916

> <VdW>
0.893

> <VdW6>
-2.167

> <VdW12>
3.060

> <Bond>
0.059

> <Angle>
0.918

> <Pdih>
5.862

> <Idih>
0.000

> <Tether>
0.000

$$$$
VeraChem MOL file


 13 13  0  0  0  0  0  0  0  0999 V2000     
   19.8645   17.8958   21.9238 C   0  0  0  0  0  0  0  0  0  0  0  0
   20.6080   17.1331   21.6633 H   0  0  0  0  0  0  0  0  0  0  0  0
   18.8699   17.4325   21.9002 H   0  0  0  0  0  0  0  0  0  0  0  0
   19.9771   19.2529   21.1519 C   0  0  0  0  0  0  0  0  0  0  0  0
   20.9980   19.5217   20.8542 H   0  0  0  0  0  0  0  0  0  0  0  0
   19.3188   19.3713   20.2840 H   0  0  0  0  0  0  0  0  0  0  0  0
   19.4977   19.9367   22.4697 C   0  0  0  0  0  0  0  0  0  0  0  0
   19.9518   20.9150   22.6727 H   0  0  0  0  0  0  0  0  0  0  0  0
   20.1685   18.7373   23.2081 C   0  0  0  0  0  0  0  0  0  0  0  0
   21.2363   18.8797   23.4146 H   0  0  0  0  0  0  0  0  0  0  0  0
   19.6768   18.4069   24.1299 H   0  0  0  0  0  0  0  0  0  0  0  0
   18.0966   20.0150   22.6197 O   0  0  0  0  0  0  0  0  0  0  0  0
   17.7479   19.1200   22.4277 H   0  0  0  0  0  0  0  0  0  0  0  0
  1  2  1  0  0  0  0
  1  3  1  0  0  0  0
  1  4  1  0  0  0  0
  4  5  1  0  0  0  0
  4  6  1  0  0  0  0
  4  7  1  0  0  0  0
  7  8  1  0  0  0  0
  1  9  1  0  0  0  0
  7  9  1  0  0  0  0
  9 10  1  0  0  0  0
  9 11  1  0  0  0  0
  7 12  1  0  0  0  0
 12 13  1  0  0  0  0
M  END
> <VConfSearch Rank>
535

> <Conf_Id>
44

> <Delta U+W>
0.823

> <U+W>
-2.308

> <U>
0.039

> <W>
-2.348

> <W(PB)>
-3.918

> <W(SA)>
1.571

> <Valence>
7.320

> <Coulomb>
-8.530

> <VdW>
1.249

> <VdW6>
-2.615

> <VdW12>
3.864

> <Bond>
0.056

> <Angle>
0.694

> <Pdih>
6.570

> <Idih>
0.000

> <Tether>
0.000

$$$$
VeraChem MOL file


 13 13  0  0  0  0  0  0  0  0999 V2000     
   20.2379   19.9989   22.9566 C   0  0  0  0  0  0  0  0  0  0  0  0
   19.8193   20.1035   23.9663 H   0  0  0  0  0  0  0  0  0  0  0  0
   21.0673   20.7074   22.8460 H   0  0  0  0  0  0  0  0  0  0  0  0
   19.1780   19.9968   21.8060 C   0  0  0  0  0  0  0  0  0  0  0  0
   18.2843   20.6085   21.9704 H   0  0  0  0  0  0  0  0  0  0  0  0
   19.5802   20.2202   20.8100 H   0  0  0  0  0  0  0  0  0  0  0  0
   19.0249   18.4768   22.1143 C   0  0  0  0  0  0  0  0  0  0  0  0
   18.3456   18.2608   22.9503 H   0  0  0  0  0  0  0  0  0  0  0  0
   20.5295   18.5257   22.5183 C   0  0  0  0  0  0  0  0  0  0  0  0
   20.8333   17.8369   23.3142 H   0  0  0  0  0  0  0  0  0  0  0  0
   21.2300   18.4275   21.6796 H   0  0  0  0  0  0  0  0  0  0  0  0
   18.7253   17.6641   21.0033 O   0  0  0  0  0  0  0  0  0  0  0  0
   18.8170   16.7308   21.2928 H   0  0  0  0  0  0  0  0  0  0  0  0
  1  2  1  0  0  0  0
  1  3  1  0  0  0  0
  1  4  1  0  0  0  0
  4  5  1  0  0  0  0
  4  6  1  0  0  0  0
  4  7  1  0  0  0  0
  7  8  1  0  0  0  0
  1  9  1  0  0  0  0
  7  9  1  0  0  0  0
  9 10  1  0  0  0  0
  9 11  1  0  0  0  0
  7 12  1  0  0  0  0
 12 13  1  0  0  0  0
M  END
> <VConfSearch Rank>
536

> <Conf_Id>
22

> <Delta U+W>
0.000

> <U+W>
-3.131

> <U>
-0.154

> <W>
-2.978

> <W(PB)>
-4.579

> <W(SA)>
1.601

> <Valence>
6.333

> <Coulomb>
-7.439

> <VdW>
0.952

> <VdW6>
-2.120

> <VdW12>
3.072

> <Bond>
0.065

> <Angle>
0.931

> <Pdih>
5.338

> <Idih>
0.000

> <Tether>
0.000

$$$$
VeraChem MOL file


 13 13  0  0  0  0  0  0  0  0999 V2000     
   20.2618   19.9751   21.7558 C   0  0  0  0  0  0  0  0  0  0  0  0
   20.1609   20.0767   20.6672 H   0  0  0  0  0  0  0  0  0  0  0  0
   20.9205   20.7713   22.1225 H   0  0  0  0  0  0  0  0  0  0  0  0
   20.5916   18.5281   22.2504 C   0  0  0  0  0  0  0  0  0  0  0  0
   21.0100   18.4744   23.2633 H   0  0  0  0  0  0  0  0  0  0  0  0
   21.2087   17.9186   21.5812 H   0  0  0  0  0  0  0  0  0  0  0  0
   19.0547   18.2816   22.1709 C   0  0  0  0  0  0  0  0  0  0  0  0
   18.6956   18.0259   21.1645 H   0  0  0  0  0  0  0  0  0  0  0  0
   18.9112   19.7927   22.5240 C   0  0  0  0  0  0  0  0  0  0  0  0
   18.9590   20.0151   23.5972 H   0  0  0  0  0  0  0  0  0  0  0  0
   18.0396   20.3008   22.0973 H   0  0  0  0  0  0  0  0  0  0  0  0
   18.5373   17.3875   23.1287 O   0  0  0  0  0  0  0  0  0  0  0  0
   18.8312   16.4864   22.8740 H   0  0  0  0  0  0  0  0  0  0  0  0
  1  2  1  0  0  0  0
  1  3  1  0  0  0  0
  1  4  1  0  0  0  0
  4  5  1  0  0  0  0
  4  6  1  0  0  0  0
  4  7  1  0  0  0  0
  7  8  1  0  0  0  0
  1  9  1  0  0  0  0
  7  9  1  0  0  0  0
  9 10  1  0  0  0  0
  9 11  1  0  0  0  0
  7 12  1  0  0  0  0
 12 13  1  0  0  0  0
M  END
> <VConfSearch Rank>
537

> <Conf_Id>
19

> <Delta U+W>
-0.011

> <U+W>
-3.142

> <U>
-0.154

> <W>
-2.989

> <W(PB)>
-4.588

> <W(SA)>
1.599

> <Valence>
6.334

> <Coulomb>
-7.439

> <VdW>
0.951

> <VdW6>
-2.120

> <VdW12>
3.072

> <Bond>
0.065

> <Angle>
0.930

> <Pdih>
5.339

> <Idih>
0.000

> <Tether>
0.000

$$$$
VeraChem MOL file


 13 13  0  0  0  0  0  0  0  0999 V2000     
   20.1655   20.1070   22.6330 C   0  0  0  0  0  0  0  0  0  0  0  0
   20.3187   20.8026   23.4664 H   0  0  0  0  0  0  0  0  0  0  0  0
   20.7669   20.4444   21.7788 H   0  0  0  0  0  0  0  0  0  0  0  0
   18.6782   19.7655   22.2857 C   0  0  0  0  0  0  0  0  0  0  0  0
   17.9949   19.7842   23.1434 H   0  0  0  0  0  0  0  0  0  0  0  0
   18.2305   20.3416   21.4684 H   0  0  0  0  0  0  0  0  0  0  0  0
   19.1927   18.3412   21.9089 C   0  0  0  0  0  0  0  0  0  0  0  0
   18.4991   17.5257   22.1512 H   0  0  0  0  0  0  0  0  0  0  0  0
   20.3107   18.5858   22.9702 C   0  0  0  0  0  0  0  0  0  0  0  0
   21.2858   18.1364   22.7523 H   0  0  0  0  0  0  0  0  0  0  0  0
   20.0235   18.3185   23.9944 H   0  0  0  0  0  0  0  0  0  0  0  0
   19.6511   18.2071   20.5785 O   0  0  0  0  0  0  0  0  0  0  0  0
   20.1041   17.3395   20.5131 H   0  0  0  0  0  0  0  0  0  0  0  0
  1  2  1  0  0  0  0
  1  3  1  0  0  0  0
  1  4  1  0  0  0  0
  4  5  1  0  0  0  0
  4  6  1  0  0  0  0
  4  7  1  0  0  0  0
  7  8  1  0  0  0  0
  1  9  1  0  0  0  0
  7  9  1  0  0  0  0
  9 10  1  0  0  0  0
  9 11  1  0  0  0  0
  7 12  1  0  0  0  0
 12 13  1  0  0  0  0
M  END
> <VConfSearch Rank>
538

> <Conf_Id>
20

> <Delta U+W>
1.030

> <U+W>
-2.101

> <U>
0.841

> <W>
-2.942

> <W(PB)>
-4.530

> <W(SA)>
1.587

> <Valence>
6.736

> <Coulomb>
-7.246

> <VdW>
1.352

> <VdW6>
-2.500

> <VdW12>
3.851

> <Bond>
0.063

> <Angle>
0.687

> <Pdih>
5.986

> <Idih>
0.000

> <Tether>
0.000

$$$$
VeraChem MOL file


 13 13  0  0  0  0  0  0  0  0999 V2000     
   18.8228   19.5941   22.8272 C   0  0  0  0  0  0  0  0  0  0  0  0
   17.8763   19.0728   23.0222 H   0  0  0  0  0  0  0  0  0  0  0  0
   18.7521   20.6108   23.2318 H   0  0  0  0  0  0  0  0  0  0  0  0
   19.3448   19.4741   21.3574 C   0  0  0  0  0  0  0  0  0  0  0  0
   18.5783   19.4096   20.5773 H   0  0  0  0  0  0  0  0  0  0  0  0
   20.0777   20.2374   21.0684 H   0  0  0  0  0  0  0  0  0  0  0  0
   19.9590   18.1171   21.8164 C   0  0  0  0  0  0  0  0  0  0  0  0
   19.2488   17.2793   21.7976 H   0  0  0  0  0  0  0  0  0  0  0  0
   20.1057   18.7875   23.2157 C   0  0  0  0  0  0  0  0  0  0  0  0
   21.0087   19.3974   23.3421 H   0  0  0  0  0  0  0  0  0  0  0  0
   20.0112   18.1168   24.0768 H   0  0  0  0  0  0  0  0  0  0  0  0
   21.1667   17.7573   21.1889 O   0  0  0  0  0  0  0  0  0  0  0  0
   21.7566   18.5387   21.2361 H   0  0  0  0  0  0  0  0  0  0  0  0
  1  2  1  0  0  0  0
  1  3  1  0  0  0  0
  1  4  1  0  0  0  0
  4  5  1  0  0  0  0
  4  6  1  0  0  0  0
  4  7  1  0  0  0  0
  7  8  1  0  0  0  0
  1  9  1  0  0  0  0
  7  9  1  0  0  0  0
  9 10  1  0  0  0  0
  9 11  1  0  0  0  0
  7 12  1  0  0  0  0
 12 13  1  0  0  0  0
M  END
> <VConfSearch Rank>
539

> <Conf_Id>
24

> <Delta U+W>
0.356

> <U+W>
-2.775

> <U>
-0.184

> <W>
-2.591

> <W(PB)>
-4.184

> <W(SA)>
1.593

> <Valence>
6.840

> <Coulomb>
-7.916

> <VdW>
0.893

> <VdW6>
-2.167

> <VdW12>
3.060

> <Bond>
0.059

> <Angle>
0.918

> <Pdih>
5.862

> <Idih>
0.000

> <Tether>
0.000

$$$$
VeraChem MOL file


 13 13  0  0  0  0  0  0  0  0999 V2000     
   19.7465   17.8476   22.2531 C   0  0  0  0  0  0  0  0  0  0  0  0
   20.0584   16.9327   21.7353 H   0  0  0  0  0  0  0  0  0  0  0  0
   19.2986   17.5661   23.2146 H   0  0  0  0  0  0  0  0  0  0  0  0
   18.9052   18.8600   21.4061 C   0  0  0  0  0  0  0  0  0  0  0  0
   19.1353   18.8550   20.3337 H   0  0  0  0  0  0  0  0  0  0  0  0
   17.8177   18.8063   21.5291 H   0  0  0  0  0  0  0  0  0  0  0  0
   19.6270   19.9880   22.2065 C   0  0  0  0  0  0  0  0  0  0  0  0
   19.8474   20.8945   21.6284 H   0  0  0  0  0  0  0  0  0  0  0  0
   20.8168   18.9869   22.3336 C   0  0  0  0  0  0  0  0  0  0  0  0
   21.5156   19.0130   21.4886 H   0  0  0  0  0  0  0  0  0  0  0  0
   21.3931   19.0436   23.2638 H   0  0  0  0  0  0  0  0  0  0  0  0
   19.0112   20.3331   23.4286 O   0  0  0  0  0  0  0  0  0  0  0  0
   18.8390   19.4912   23.8986 H   0  0  0  0  0  0  0  0  0  0  0  0
  1  2  1  0  0  0  0
  1  3  1  0  0  0  0
  1  4  1  0  0  0  0
  4  5  1  0  0  0  0
  4  6  1  0  0  0  0
  4  7  1  0  0  0  0
  7  8  1  0  0  0  0
  1  9  1  0  0  0  0
  7  9  1  0  0  0  0
  9 10  1  0  0  0  0
  9 11  1  0  0  0  0
  7 12  1  0  0  0  0
 12 13  1  0  0  0  0
M  END
> <VConfSearch Rank>
540

> <Conf_Id>
44

> <Delta U+W>
0.823

> <U+W>
-2.308

> <U>
0.039

> <W>
-2.348

> <W(PB)>
-3.918

> <W(SA)>
1.571

> <Valence>
7.320

> <Coulomb>
-8.530

> <VdW>
1.249

> <VdW6>
-2.615

> <VdW12>
3.864

> <Bond>
0.056

> <Angle>
0.694

> <Pdih>
6.570

> <Idih>
0.000

> <Tether>
0.000

$$$$
VeraChem MOL file


 13 13  0  0  0  0  0  0  0  0999 V2000     
   20.4257   18.8551   23.3116 C   0  0  0  0  0  0  0  0  0  0  0  0
   21.4079   19.3403   23.2387 H   0  0  0  0  0  0  0  0  0  0  0  0
   20.3400   18.3840   24.2981 H   0  0  0  0  0  0  0  0  0  0  0  0
   20.0460   17.9588   22.0869 C   0  0  0  0  0  0  0  0  0  0  0  0
   20.8755   17.4491   21.5850 H   0  0  0  0  0  0  0  0  0  0  0  0
   19.2489   17.2301   22.2801 H   0  0  0  0  0  0  0  0  0  0  0  0
   19.5627   19.2831   21.4223 C   0  0  0  0  0  0  0  0  0  0  0  0
   20.3682   19.8599   20.9476 H   0  0  0  0  0  0  0  0  0  0  0  0
   19.2198   19.7484   22.8698 C   0  0  0  0  0  0  0  0  0  0  0  0
   19.3190   20.8222   23.0627 H   0  0  0  0  0  0  0  0  0  0  0  0
   18.2420   19.4123   23.2370 H   0  0  0  0  0  0  0  0  0  0  0  0
   18.4611   19.1539   20.5538 O   0  0  0  0  0  0  0  0  0  0  0  0
   18.1559   20.0606   20.3346 H   0  0  0  0  0  0  0  0  0  0  0  0
  1  2  1  0  0  0  0
  1  3  1  0  0  0  0
  1  4  1  0  0  0  0
  4  5  1  0  0  0  0
  4  6  1  0  0  0  0
  4  7  1  0  0  0  0
  7  8  1  0  0  0  0
  1  9  1  0  0  0  0
  7  9  1  0  0  0  0
  9 10  1  0  0  0  0
  9 11  1  0  0  0  0
  7 12  1  0  0  0  0
 12 13  1  0  0  0  0
M  END
> <VConfSearch Rank>
541

> <Conf_Id>
22

> <Delta U+W>
0.000

> <U+W>
-3.131

> <U>
-0.154

> <W>
-2.978

> <W(PB)>
-4.579

> <W(SA)>
1.601

> <Valence>
6.333

> <Coulomb>
-7.439

> <VdW>
0.952

> <VdW6>
-2.120

> <VdW12>
3.072

> <Bond>
0.065

> <Angle>
0.931

> <Pdih>
5.338

> <Idih>
0.000

> <Tether>
0.000

$$$$
VeraChem MOL file


 13 13  0  0  0  0  0  0  0  0999 V2000     
   18.9013   18.6795   21.1733 C   0  0  0  0  0  0  0  0  0  0  0  0
   19.3836   17.9915   20.4664 H   0  0  0  0  0  0  0  0  0  0  0  0
   17.9480   19.0109   20.7446 H   0  0  0  0  0  0  0  0  0  0  0  0
   19.8332   19.8064   21.7293 C   0  0  0  0  0  0  0  0  0  0  0  0
   19.3054   20.6670   22.1587 H   0  0  0  0  0  0  0  0  0  0  0  0
   20.6076   20.1724   21.0463 H   0  0  0  0  0  0  0  0  0  0  0  0
   20.2934   18.7431   22.7718 C   0  0  0  0  0  0  0  0  0  0  0  0
   21.0726   18.0631   22.4009 H   0  0  0  0  0  0  0  0  0  0  0  0
   18.8495   18.1692   22.6512 C   0  0  0  0  0  0  0  0  0  0  0  0
   18.1070   18.6701   23.2848 H   0  0  0  0  0  0  0  0  0  0  0  0
   18.7546   17.0863   22.7859 H   0  0  0  0  0  0  0  0  0  0  0  0
   20.6355   19.2514   24.0403 O   0  0  0  0  0  0  0  0  0  0  0  0
   21.4905   19.7234   23.9435 H   0  0  0  0  0  0  0  0  0  0  0  0
  1  2  1  0  0  0  0
  1  3  1  0  0  0  0
  1  4  1  0  0  0  0
  4  5  1  0  0  0  0
  4  6  1  0  0  0  0
  4  7  1  0  0  0  0
  7  8  1  0  0  0  0
  1  9  1  0  0  0  0
  7  9  1  0  0  0  0
  9 10  1  0  0  0  0
  9 11  1  0  0  0  0
  7 12  1  0  0  0  0
 12 13  1  0  0  0  0
M  END
> <VConfSearch Rank>
542

> <Conf_Id>
19

> <Delta U+W>
-0.011

> <U+W>
-3.142

> <U>
-0.154

> <W>
-2.989

> <W(PB)>
-4.588

> <W(SA)>
1.599

> <Valence>
6.334

> <Coulomb>
-7.439

> <VdW>
0.951

> <VdW6>
-2.120

> <VdW12>
3.072

> <Bond>
0.065

> <Angle>
0.930

> <Pdih>
5.339

> <Idih>
0.000

> <Tether>
0.000

$$$$
VeraChem MOL file


 13 13  0  0  0  0  0  0  0  0999 V2000     
   18.5858   18.4136   22.1701 C   0  0  0  0  0  0  0  0  0  0  0  0
   18.1428   17.4110   22.1452 H   0  0  0  0  0  0  0  0  0  0  0  0
   17.7772   19.1555   22.1392 H   0  0  0  0  0  0  0  0  0  0  0  0
   19.7487   18.6778   21.1568 C   0  0  0  0  0  0  0  0  0  0  0  0
   20.3541   17.7949   20.9187 H   0  0  0  0  0  0  0  0  0  0  0  0
   19.4681   19.1732   20.2208 H   0  0  0  0  0  0  0  0  0  0  0  0
   20.3671   19.6004   22.2532 C   0  0  0  0  0  0  0  0  0  0  0  0
   21.4637   19.5853   22.2981 H   0  0  0  0  0  0  0  0  0  0  0  0
   19.6575   18.6655   23.2821 C   0  0  0  0  0  0  0  0  0  0  0  0
   19.2959   19.1464   24.1977 H   0  0  0  0  0  0  0  0  0  0  0  0
   20.2407   17.7790   23.5596 H   0  0  0  0  0  0  0  0  0  0  0  0
   19.9019   20.9351   22.2391 O   0  0  0  0  0  0  0  0  0  0  0  0
   20.2182   21.3619   23.0636 H   0  0  0  0  0  0  0  0  0  0  0  0
  1  2  1  0  0  0  0
  1  3  1  0  0  0  0
  1  4  1  0  0  0  0
  4  5  1  0  0  0  0
  4  6  1  0  0  0  0
  4  7  1  0  0  0  0
  7  8  1  0  0  0  0
  1  9  1  0  0  0  0
  7  9  1  0  0  0  0
  9 10  1  0  0  0  0
  9 11  1  0  0  0  0
  7 12  1  0  0  0  0
 12 13  1  0  0  0  0
M  END
> <VConfSearch Rank>
543

> <Conf_Id>
20

> <Delta U+W>
1.030

> <U+W>
-2.101

> <U>
0.841

> <W>
-2.942

> <W(PB)>
-4.530

> <W(SA)>
1.587

> <Valence>
6.736

> <Coulomb>
-7.246

> <VdW>
1.352

> <VdW6>
-2.500

> <VdW12>
3.851

> <Bond>
0.063

> <Angle>
0.687

> <Pdih>
5.986

> <Idih>
0.000

> <Tether>
0.000

$$$$
VeraChem MOL file


 13 13  0  0  0  0  0  0  0  0999 V2000     
   19.9207   19.0535   23.4781 C   0  0  0  0  0  0  0  0  0  0  0  0
   20.8331   18.6202   23.9088 H   0  0  0  0  0  0  0  0  0  0  0  0
   19.3306   19.5014   24.2865 H   0  0  0  0  0  0  0  0  0  0  0  0
   19.1444   18.1073   22.5036 C   0  0  0  0  0  0  0  0  0  0  0  0
   19.1947   17.0364   22.7293 H   0  0  0  0  0  0  0  0  0  0  0  0
   18.0958   18.3830   22.3368 H   0  0  0  0  0  0  0  0  0  0  0  0
   20.1365   18.6168   21.4148 C   0  0  0  0  0  0  0  0  0  0  0  0
   21.0996   18.0885   21.4095 H   0  0  0  0  0  0  0  0  0  0  0  0
   20.1546   19.9518   22.2189 C   0  0  0  0  0  0  0  0  0  0  0  0
   19.3318   20.6398   21.9884 H   0  0  0  0  0  0  0  0  0  0  0  0
   21.0971   20.5099   22.1931 H   0  0  0  0  0  0  0  0  0  0  0  0
   19.6114   18.7032   20.1115 O   0  0  0  0  0  0  0  0  0  0  0  0
   18.7582   19.1809   20.1788 H   0  0  0  0  0  0  0  0  0  0  0  0
  1  2  1  0  0  0  0
  1  3  1  0  0  0  0
  1  4  1  0  0  0  0
  4  5  1  0  0  0  0
  4  6  1  0  0  0  0
  4  7  1  0  0  0  0
  7  8  1  0  0  0  0
  1  9  1  0  0  0  0
  7  9  1  0  0  0  0
  9 10  1  0  0  0  0
  9 11  1  0  0  0  0
  7 12  1  0  0  0  0
 12 13  1  0  0  0  0
M  END
> <VConfSearch Rank>
544

> <Conf_Id>
24

> <Delta U+W>
0.356

> <U+W>
-2.775

> <U>
-0.184

> <W>
-2.591

> <W(PB)>
-4.184

> <W(SA)>
1.593

> <Valence>
6.840

> <Coulomb>
-7.916

> <VdW>
0.893

> <VdW6>
-2.167

> <VdW12>
3.060

> <Bond>
0.059

> <Angle>
0.918

> <Pdih>
5.862

> <Idih>
0.000

> <Tether>
0.000

$$$$
VeraChem MOL file


 13 13  0  0  0  0  0  0  0  0999 V2000     
   18.8606   19.2852   22.8975 C   0  0  0  0  0  0  0  0  0  0  0  0
   17.9689   18.9645   23.4493 H   0  0  0  0  0  0  0  0  0  0  0  0
   19.0183   20.3548   23.0854 H   0  0  0  0  0  0  0  0  0  0  0  0
   18.9204   18.8654   21.3908 C   0  0  0  0  0  0  0  0  0  0  0  0
   18.4102   17.9217   21.1625 H   0  0  0  0  0  0  0  0  0  0  0  0
   18.5968   19.6204   20.6656 H   0  0  0  0  0  0  0  0  0  0  0  0
   20.4618   18.7243   21.5863 C   0  0  0  0  0  0  0  0  0  0  0  0
   20.9247   17.9046   21.0220 H   0  0  0  0  0  0  0  0  0  0  0  0
   20.1330   18.3909   23.0745 C   0  0  0  0  0  0  0  0  0  0  0  0
   19.9201   17.3309   23.2590 H   0  0  0  0  0  0  0  0  0  0  0  0
   20.8649   18.7329   23.8148 H   0  0  0  0  0  0  0  0  0  0  0  0
   21.1939   19.9155   21.3947 O   0  0  0  0  0  0  0  0  0  0  0  0
   20.7382   20.6069   21.9177 H   0  0  0  0  0  0  0  0  0  0  0  0
  1  2  1  0  0  0  0
  1  3  1  0  0  0  0
  1  4  1  0  0  0  0
  4  5  1  0  0  0  0
  4  6  1  0  0  0  0
  4  7  1  0  0  0  0
  7  8  1  0  0  0  0
  1  9  1  0  0  0  0
  7  9  1  0  0  0  0
  9 10  1  0  0  0  0
  9 11  1  0  0  0  0
  7 12  1  0  0  0  0
 12 13  1  0  0  0  0
M  END
> <VConfSearch Rank>
545

> <Conf_Id>
44

> <Delta U+W>
0.823

> <U+W>
-2.308

> <U>
0.039

> <W>
-2.348

> <W(PB)>
-3.918

> <W(SA)>
1.571

> <Valence>
7.320

> <Coulomb>
-8.530

> <VdW>
1.249

> <VdW6>
-2.615

> <VdW12>
3.864

> <Bond>
0.056

> <Angle>
0.694

> <Pdih>
6.570

> <Idih>
0.000

> <Tether>
0.000

$$$$
VeraChem MOL file


 13 13  0  0  0  0  0  0  0  0999 V2000     
   19.0051   19.6117   21.2586 C   0  0  0  0  0  0  0  0  0  0  0  0
   18.5310   20.5614   21.5391 H   0  0  0  0  0  0  0  0  0  0  0  0
   18.8269   19.4328   20.1915 H   0  0  0  0  0  0  0  0  0  0  0  0
   18.6922   18.4157   22.2173 C   0  0  0  0  0  0  0  0  0  0  0  0
   17.7029   18.4190   22.6876 H   0  0  0  0  0  0  0  0  0  0  0  0
   18.8760   17.4227   21.7888 H   0  0  0  0  0  0  0  0  0  0  0  0
   19.8592   18.9683   23.0900 C   0  0  0  0  0  0  0  0  0  0  0  0
   19.5618   19.7859   23.7609 H   0  0  0  0  0  0  0  0  0  0  0  0
   20.4831   19.4490   21.7450 C   0  0  0  0  0  0  0  0  0  0  0  0
   21.0780   20.3675   21.7953 H   0  0  0  0  0  0  0  0  0  0  0  0
   21.0596   18.6835   21.2106 H   0  0  0  0  0  0  0  0  0  0  0  0
   20.6035   17.9957   23.7861 O   0  0  0  0  0  0  0  0  0  0  0  0
   21.3933   18.4448   24.1573 H   0  0  0  0  0  0  0  0  0  0  0  0
  1  2  1  0  0  0  0
  1  3  1  0  0  0  0
  1  4  1  0  0  0  0
  4  5  1  0  0  0  0
  4  6  1  0  0  0  0
  4  7  1  0  0  0  0
  7  8  1  0  0  0  0
  1  9  1  0  0  0  0
  7  9  1  0  0  0  0
  9 10  1  0  0  0  0
  9 11  1  0  0  0  0
  7 12  1  0  0  0  0
 12 13  1  0  0  0  0
M  END
> <VConfSearch Rank>
546

> <Conf_Id>
22

> <Delta U+W>
0.000

> <U+W>
-3.131

> <U>
-0.154

> <W>
-2.978

> <W(PB)>
-4.579

> <W(SA)>
1.601

> <Valence>
6.333

> <Coulomb>
-7.439

> <VdW>
0.952

> <VdW6>
-2.120

> <VdW12>
3.072

> <Bond>
0.065

> <Angle>
0.931

> <Pdih>
5.338

> <Idih>
0.000

> <Tether>
0.000

$$$$
VeraChem MOL file


 13 13  0  0  0  0  0  0  0  0999 V2000     
   20.6853   18.4936   21.5828 C   0  0  0  0  0  0  0  0  0  0  0  0
   20.7181   18.8386   20.5410 H   0  0  0  0  0  0  0  0  0  0  0  0
   21.5396   17.8291   21.7589 H   0  0  0  0  0  0  0  0  0  0  0  0
   19.2916   17.9601   22.0522 C   0  0  0  0  0  0  0  0  0  0  0  0
   19.3215   17.3263   22.9473 H   0  0  0  0  0  0  0  0  0  0  0  0
   18.6832   17.4634   21.2885 H   0  0  0  0  0  0  0  0  0  0  0  0
   18.9484   19.4551   22.3286 C   0  0  0  0  0  0  0  0  0  0  0  0
   18.6142   20.0076   21.4397 H   0  0  0  0  0  0  0  0  0  0  0  0
   20.4659   19.6254   22.6403 C   0  0  0  0  0  0  0  0  0  0  0  0
   20.7519   19.3587   23.6653 H   0  0  0  0  0  0  0  0  0  0  0  0
   20.8950   20.6037   22.3979 H   0  0  0  0  0  0  0  0  0  0  0  0
   18.0811   19.6836   23.4149 O   0  0  0  0  0  0  0  0  0  0  0  0
   17.1863   19.3891   23.1394 H   0  0  0  0  0  0  0  0  0  0  0  0
  1  2  1  0  0  0  0
  1  3  1  0  0  0  0
  1  4  1  0  0  0  0
  4  5  1  0  0  0  0
  4  6  1  0  0  0  0
  4  7  1  0  0  0  0
  7  8  1  0  0  0  0
  1  9  1  0  0  0  0
  7  9  1  0  0  0  0
  9 10  1  0  0  0  0
  9 11  1  0  0  0  0
  7 12  1  0  0  0  0
 12 13  1  0  0  0  0
M  END
> <VConfSearch Rank>
547

> <Conf_Id>
19

> <Delta U+W>
-0.011

> <U+W>
-3.142

> <U>
-0.154

> <W>
-2.989

> <W(PB)>
-4.588

> <W(SA)>
1.599

> <Valence>
6.334

> <Coulomb>
-7.439

> <VdW>
0.951

> <VdW6>
-2.120

> <VdW12>
3.072

> <Bond>
0.065

> <Angle>
0.930

> <Pdih>
5.339

> <Idih>
0.000

> <Tether>
0.000

$$$$
VeraChem MOL file


 13 13  0  0  0  0  0  0  0  0999 V2000     
   20.6344   19.4868   22.8513 C   0  0  0  0  0  0  0  0  0  0  0  0
   21.6943   19.3082   23.0678 H   0  0  0  0  0  0  0  0  0  0  0  0
   20.3545   20.4690   23.2540 H   0  0  0  0  0  0  0  0  0  0  0  0
   19.6509   18.3280   23.2236 C   0  0  0  0  0  0  0  0  0  0  0  0
   20.0839   17.3229   23.1520 H   0  0  0  0  0  0  0  0  0  0  0  0
   19.1402   18.4215   24.1884 H   0  0  0  0  0  0  0  0  0  0  0  0
   18.8218   18.7576   21.9733 C   0  0  0  0  0  0  0  0  0  0  0  0
   18.3475   17.9286   21.4323 H   0  0  0  0  0  0  0  0  0  0  0  0
   20.1815   19.2361   21.3746 C   0  0  0  0  0  0  0  0  0  0  0  0
   20.1371   20.1203   20.7291 H   0  0  0  0  0  0  0  0  0  0  0  0
   20.7439   18.4512   20.8544 H   0  0  0  0  0  0  0  0  0  0  0  0
   17.8787   19.7839   22.2089 O   0  0  0  0  0  0  0  0  0  0  0  0
   17.5529   20.0856   21.3342 H   0  0  0  0  0  0  0  0  0  0  0  0
  1  2  1  0  0  0  0
  1  3  1  0  0  0  0
  1  4  1  0  0  0  0
  4  5  1  0  0  0  0
  4  6  1  0  0  0  0
  4  7  1  0  0  0  0
  7  8  1  0  0  0  0
  1  9  1  0  0  0  0
  7  9  1  0  0  0  0
  9 10  1  0  0  0  0
  9 11  1  0  0  0  0
  7 12  1  0  0  0  0
 12 13  1  0  0  0  0
M  END
> <VConfSearch Rank>
548

> <Conf_Id>
20

> <Delta U+W>
1.030

> <U+W>
-2.101

> <U>
0.841

> <W>
-2.942

> <W(PB)>
-4.530

> <W(SA)>
1.587

> <Valence>
6.736

> <Coulomb>
-7.246

> <VdW>
1.352

> <VdW6>
-2.500

> <VdW12>
3.851

> <Bond>
0.063

> <Angle>
0.687

> <Pdih>
5.986

> <Idih>
0.000

> <Tether>
0.000

$$$$
VeraChem MOL file


 13 13  0  0  0  0  0  0  0  0999 V2000     
   19.8391   17.8149   21.6305 C   0  0  0  0  0  0  0  0  0  0  0  0
   20.6607   17.1497   21.9272 H   0  0  0  0  0  0  0  0  0  0  0  0
   19.2486   17.3162   20.8526 H   0  0  0  0  0  0  0  0  0  0  0  0
   20.2674   19.2890   21.3291 C   0  0  0  0  0  0  0  0  0  0  0  0
   21.2682   19.4230   20.9039 H   0  0  0  0  0  0  0  0  0  0  0  0
   19.5498   19.8599   20.7270 H   0  0  0  0  0  0  0  0  0  0  0  0
   20.1511   19.5077   22.8679 C   0  0  0  0  0  0  0  0  0  0  0  0
   21.0434   19.1987   23.4291 H   0  0  0  0  0  0  0  0  0  0  0  0
   19.0298   18.4261   22.8217 C   0  0  0  0  0  0  0  0  0  0  0  0
   18.0357   18.8042   22.5531 H   0  0  0  0  0  0  0  0  0  0  0  0
   18.9376   17.7981   23.7146 H   0  0  0  0  0  0  0  0  0  0  0  0
   19.7355   20.7925   23.2661 O   0  0  0  0  0  0  0  0  0  0  0  0
   18.9416   21.0129   22.7352 H   0  0  0  0  0  0  0  0  0  0  0  0
  1  2  1  0  0  0  0
  1  3  1  0  0  0  0
  1  4  1  0  0  0  0
  4  5  1  0  0  0  0
  4  6  1  0  0  0  0
  4  7  1  0  0  0  0
  7  8  1  0  0  0  0
  1  9  1  0  0  0  0
  7  9  1  0  0  0  0
  9 10  1  0  0  0  0
  9 11  1  0  0  0  0
  7 12  1  0  0  0  0
 12 13  1  0  0  0  0
M  END
> <VConfSearch Rank>
549

> <Conf_Id>
24

> <Delta U+W>
0.356

> <U+W>
-2.775

> <U>
-0.184

> <W>
-2.591

> <W(PB)>
-4.184

> <W(SA)>
1.593

> <Valence>
6.840

> <Coulomb>
-7.916

> <VdW>
0.893

> <VdW6>
-2.167

> <VdW12>
3.060

> <Bond>
0.059

> <Angle>
0.918

> <Pdih>
5.862

> <Idih>
0.000

> <Tether>
0.000

$$$$
VeraChem MOL file


 13 13  0  0  0  0  0  0  0  0999 V2000     
   18.6984   19.4609   22.3987 C   0  0  0  0  0  0  0  0  0  0  0  0
   17.6157   19.4119   22.2316 H   0  0  0  0  0  0  0  0  0  0  0  0
   18.9164   20.3536   22.9985 H   0  0  0  0  0  0  0  0  0  0  0  0
   19.5954   19.2860   21.1280 C   0  0  0  0  0  0  0  0  0  0  0  0
   19.1609   18.6453   20.3510 H   0  0  0  0  0  0  0  0  0  0  0  0
   19.9530   20.2091   20.6582 H   0  0  0  0  0  0  0  0  0  0  0  0
   20.6127   18.5565   22.0591 C   0  0  0  0  0  0  0  0  0  0  0  0
   21.1488   17.7212   21.5908 H   0  0  0  0  0  0  0  0  0  0  0  0
   19.3719   18.1436   22.9099 C   0  0  0  0  0  0  0  0  0  0  0  0
   18.8826   17.2227   22.5699 H   0  0  0  0  0  0  0  0  0  0  0  0
   19.5349   18.0723   23.9912 H   0  0  0  0  0  0  0  0  0  0  0  0
   21.5259   19.4066   22.7186 O   0  0  0  0  0  0  0  0  0  0  0  0
   20.9951   20.1282   23.1146 H   0  0  0  0  0  0  0  0  0  0  0  0
  1  2  1  0  0  0  0
  1  3  1  0  0  0  0
  1  4  1  0  0  0  0
  4  5  1  0  0  0  0
  4  6  1  0  0  0  0
  4  7  1  0  0  0  0
  7  8  1  0  0  0  0
  1  9  1  0  0  0  0
  7  9  1  0  0  0  0
  9 10  1  0  0  0  0
  9 11  1  0  0  0  0
  7 12  1  0  0  0  0
 12 13  1  0  0  0  0
M  END
> <VConfSearch Rank>
550

> <Conf_Id>
44

> <Delta U+W>
0.823

> <U+W>
-2.308

> <U>
0.039

> <W>
-2.348

> <W(PB)>
-3.918

> <W(SA)>
1.571

> <Valence>
7.320

> <Coulomb>
-8.530

> <VdW>
1.249

> <VdW6>
-2.615

> <VdW12>
3.864

> <Bond>
0.056

> <Angle>
0.694

> <Pdih>
6.570

> <Idih>
0.000

> <Tether>
0.000

$$$$
VeraChem MOL file


 13 13  0  0  0  0  0  0  0  0999 V2000     
   18.4962   18.4356   22.2861 C   0  0  0  0  0  0  0  0  0  0  0  0
   17.6460   19.1287   22.3326 H   0  0  0  0  0  0  0  0  0  0  0  0
   18.1102   17.4107   22.2319 H   0  0  0  0  0  0  0  0  0  0  0  0
   19.6107   18.6944   23.3529 C   0  0  0  0  0  0  0  0  0  0  0  0
   19.2742   19.0883   24.3181 H   0  0  0  0  0  0  0  0  0  0  0  0
   20.2812   17.8449   23.5328 H   0  0  0  0  0  0  0  0  0  0  0  0
   20.1605   19.7486   22.3453 C   0  0  0  0  0  0  0  0  0  0  0  0
   19.6584   20.7239   22.4069 H   0  0  0  0  0  0  0  0  0  0  0  0
   19.5921   18.8135   21.2355 C   0  0  0  0  0  0  0  0  0  0  0  0
   19.2374   19.3114   20.3265 H   0  0  0  0  0  0  0  0  0  0  0  0
   20.2568   17.9886   20.9500 H   0  0  0  0  0  0  0  0  0  0  0  0
   21.5604   19.9060   22.3423 O   0  0  0  0  0  0  0  0  0  0  0  0
   21.7885   20.4633   21.5673 H   0  0  0  0  0  0  0  0  0  0  0  0
  1  2  1  0  0  0  0
  1  3  1  0  0  0  0
  1  4  1  0  0  0  0
  4  5  1  0  0  0  0
  4  6  1  0  0  0  0
  4  7  1  0  0  0  0
  7  8  1  0  0  0  0
  1  9  1  0  0  0  0
  7  9  1  0  0  0  0
  9 10  1  0  0  0  0
  9 11  1  0  0  0  0
  7 12  1  0  0  0  0
 12 13  1  0  0  0  0
M  END
> <VConfSearch Rank>
551

> <Conf_Id>
22

> <Delta U+W>
0.000

> <U+W>
-3.131

> <U>
-0.154

> <W>
-2.978

> <W(PB)>
-4.579

> <W(SA)>
1.601

> <Valence>
6.333

> <Coulomb>
-7.439

> <VdW>
0.952

> <VdW6>
-2.120

> <VdW12>
3.072

> <Bond>
0.065

> <Angle>
0.931

> <Pdih>
5.338

> <Idih>
0.000

> <Tether>
0.000

$$$$
VeraChem MOL file


 13 13  0  0  0  0  0  0  0  0999 V2000     
   19.4083   20.2192   22.3851 C   0  0  0  0  0  0  0  0  0  0  0  0
   20.1133   20.7118   23.0677 H   0  0  0  0  0  0  0  0  0  0  0  0
   18.6727   20.9589   22.0474 H   0  0  0  0  0  0  0  0  0  0  0  0
   18.8290   18.8637   22.9089 C   0  0  0  0  0  0  0  0  0  0  0  0
   17.9071   18.5368   22.4117 H   0  0  0  0  0  0  0  0  0  0  0  0
   18.6922   18.7844   23.9929 H   0  0  0  0  0  0  0  0  0  0  0  0
   20.1325   18.2265   22.3396 C   0  0  0  0  0  0  0  0  0  0  0  0
   20.9963   18.2998   23.0147 H   0  0  0  0  0  0  0  0  0  0  0  0
   20.0769   19.3546   21.2658 C   0  0  0  0  0  0  0  0  0  0  0  0
   19.4302   19.1336   20.4076 H   0  0  0  0  0  0  0  0  0  0  0  0
   21.0454   19.7079   20.8955 H   0  0  0  0  0  0  0  0  0  0  0  0
   19.9955   16.9152   21.8432 O   0  0  0  0  0  0  0  0  0  0  0  0
   19.8827   16.3219   22.6168 H   0  0  0  0  0  0  0  0  0  0  0  0
  1  2  1  0  0  0  0
  1  3  1  0  0  0  0
  1  4  1  0  0  0  0
  4  5  1  0  0  0  0
  4  6  1  0  0  0  0
  4  7  1  0  0  0  0
  7  8  1  0  0  0  0
  1  9  1  0  0  0  0
  7  9  1  0  0  0  0
  9 10  1  0  0  0  0
  9 11  1  0  0  0  0
  7 12  1  0  0  0  0
 12 13  1  0  0  0  0
M  END
> <VConfSearch Rank>
552

> <Conf_Id>
19

> <Delta U+W>
-0.011

> <U+W>
-3.142

> <U>
-0.154

> <W>
-2.989

> <W(PB)>
-4.588

> <W(SA)>
1.599

> <Valence>
6.334

> <Coulomb>
-7.439

> <VdW>
0.951

> <VdW6>
-2.120

> <VdW12>
3.072

> <Bond>
0.065

> <Angle>
0.930

> <Pdih>
5.339

> <Idih>
0.000

> <Tether>
0.000

$$$$
VeraChem MOL file


 13 13  0  0  0  0  0  0  0  0999 V2000     
   19.3722   20.2116   22.6110 C   0  0  0  0  0  0  0  0  0  0  0  0
   19.3629   21.2591   22.2875 H   0  0  0  0  0  0  0  0  0  0  0  0
   18.9206   20.1485   23.6096 H   0  0  0  0  0  0  0  0  0  0  0  0
   20.7364   19.4585   22.4664 C   0  0  0  0  0  0  0  0  0  0  0  0
   21.3586   19.8007   21.6307 H   0  0  0  0  0  0  0  0  0  0  0  0
   21.3568   19.4093   23.3681 H   0  0  0  0  0  0  0  0  0  0  0  0
   19.8913   18.1841   22.1545 C   0  0  0  0  0  0  0  0  0  0  0  0
   20.3387   17.5090   21.4136 H   0  0  0  0  0  0  0  0  0  0  0  0
   18.8236   19.1682   21.5820 C   0  0  0  0  0  0  0  0  0  0  0  0
   17.7775   18.8698   21.7118 H   0  0  0  0  0  0  0  0  0  0  0  0
   18.9819   19.4405   20.5313 H   0  0  0  0  0  0  0  0  0  0  0  0
   19.4794   17.4509   23.2906 O   0  0  0  0  0  0  0  0  0  0  0  0
   18.8219   16.7893   22.9869 H   0  0  0  0  0  0  0  0  0  0  0  0
  1  2  1  0  0  0  0
  1  3  1  0  0  0  0
  1  4  1  0  0  0  0
  4  5  1  0  0  0  0
  4  6  1  0  0  0  0
  4  7  1  0  0  0  0
  7  8  1  0  0  0  0
  1  9  1  0  0  0  0
  7  9  1  0  0  0  0
  9 10  1  0  0  0  0
  9 11  1  0  0  0  0
  7 12  1  0  0  0  0
 12 13  1  0  0  0  0
M  END
> <VConfSearch Rank>
553

> <Conf_Id>
20

> <Delta U+W>
1.030

> <U+W>
-2.101

> <U>
0.841

> <W>
-2.942

> <W(PB)>
-4.530

> <W(SA)>
1.587

> <Valence>
6.736

> <Coulomb>
-7.246

> <VdW>
1.352

> <VdW6>
-2.500

> <VdW12>
3.851

> <Bond>
0.063

> <Angle>
0.687

> <Pdih>
5.986

> <Idih>
0.000

> <Tether>
0.000

$$$$
VeraChem MOL file


 13 13  0  0  0  0  0  0  0  0999 V2000     
   19.5751   19.1424   23.4682 C   0  0  0  0  0  0  0  0  0  0  0  0
   18.5831   19.4666   23.8096 H   0  0  0  0  0  0  0  0  0  0  0  0
   20.2325   19.0496   24.3409 H   0  0  0  0  0  0  0  0  0  0  0  0
   20.1480   19.9534   22.2593 C   0  0  0  0  0  0  0  0  0  0  0  0
   19.8649   21.0106   22.2104 H   0  0  0  0  0  0  0  0  0  0  0  0
   21.2343   19.8736   22.1286 H   0  0  0  0  0  0  0  0  0  0  0  0
   19.3088   18.9863   21.3708 C   0  0  0  0  0  0  0  0  0  0  0  0
   18.2550   19.2791   21.2684 H   0  0  0  0  0  0  0  0  0  0  0  0
   19.5628   17.9260   22.4845 C   0  0  0  0  0  0  0  0  0  0  0  0
   20.5183   17.3930   22.4041 H   0  0  0  0  0  0  0  0  0  0  0  0
   18.7628   17.1926   22.6345 H   0  0  0  0  0  0  0  0  0  0  0  0
   19.8643   18.6862   20.1125 O   0  0  0  0  0  0  0  0  0  0  0  0
   20.7988   18.4335   20.2662 H   0  0  0  0  0  0  0  0  0  0  0  0
  1  2  1  0  0  0  0
  1  3  1  0  0  0  0
  1  4  1  0  0  0  0
  4  5  1  0  0  0  0
  4  6  1  0  0  0  0
  4  7  1  0  0  0  0
  7  8  1  0  0  0  0
  1  9  1  0  0  0  0
  7  9  1  0  0  0  0
  9 10  1  0  0  0  0
  9 11  1  0  0  0  0
  7 12  1  0  0  0  0
 12 13  1  0  0  0  0
M  END
> <VConfSearch Rank>
554

> <Conf_Id>
24

> <Delta U+W>
0.356

> <U+W>
-2.775

> <U>
-0.184

> <W>
-2.591

> <W(PB)>
-4.184

> <W(SA)>
1.593

> <Valence>
6.840

> <Coulomb>
-7.916

> <VdW>
0.893

> <VdW6>
-2.167

> <VdW12>
3.060

> <Bond>
0.059

> <Angle>
0.918

> <Pdih>
5.862

> <Idih>
0.000

> <Tether>
0.000

$$$$
VeraChem MOL file


 13 13  0  0  0  0  0  0  0  0999 V2000     
   19.1704   19.0324   23.2036 C   0  0  0  0  0  0  0  0  0  0  0  0
   19.2138   18.7782   24.2694 H   0  0  0  0  0  0  0  0  0  0  0  0
   18.2332   19.5708   23.0137 H   0  0  0  0  0  0  0  0  0  0  0  0
   19.4707   17.8622   22.2084 C   0  0  0  0  0  0  0  0  0  0  0  0
   20.1682   17.1080   22.5927 H   0  0  0  0  0  0  0  0  0  0  0  0
   18.5984   17.3482   21.7894 H   0  0  0  0  0  0  0  0  0  0  0  0
   20.1355   18.9350   21.2913 C   0  0  0  0  0  0  0  0  0  0  0  0
   21.0178   18.5866   20.7394 H   0  0  0  0  0  0  0  0  0  0  0  0
   20.4506   19.7088   22.6089 C   0  0  0  0  0  0  0  0  0  0  0  0
   21.3883   19.4073   23.0914 H   0  0  0  0  0  0  0  0  0  0  0  0
   20.4310   20.8021   22.5385 H   0  0  0  0  0  0  0  0  0  0  0  0
   19.2483   19.5958   20.4149 O   0  0  0  0  0  0  0  0  0  0  0  0
   18.4856   19.8826   20.9584 H   0  0  0  0  0  0  0  0  0  0  0  0
  1  2  1  0  0  0  0
  1  3  1  0  0  0  0
  1  4  1  0  0  0  0
  4  5  1  0  0  0  0
  4  6  1  0  0  0  0
  4  7  1  0  0  0  0
  7  8  1  0  0  0  0
  1  9  1  0  0  0  0
  7  9  1  0  0  0  0
  9 10  1  0  0  0  0
  9 11  1  0  0  0  0
  7 12  1  0  0  0  0
 12 13  1  0  0  0  0
M  END
> <VConfSearch Rank>
555

> <Conf_Id>
44

> <Delta U+W>
0.823

> <U+W>
-2.308

> <U>
0.039

> <W>
-2.348

> <W(PB)>
-3.918

> <W(SA)>
1.571

> <Valence>
7.320

> <Coulomb>
-8.530

> <VdW>
1.249

> <VdW6>
-2.615

> <VdW12>
3.864

> <Bond>
0.056

> <Angle>
0.694

> <Pdih>
6.570

> <Idih>
0.000

> <Tether>
0.000

$$$$
VeraChem MOL file


 13 13  0  0  0  0  0  0  0  0999 V2000     
   19.7001   19.7881   21.1598 C   0  0  0  0  0  0  0  0  0  0  0  0
   19.9355   19.2213   20.2494 H   0  0  0  0  0  0  0  0  0  0  0  0
   19.5056   20.8311   20.8827 H   0  0  0  0  0  0  0  0  0  0  0  0
   20.6973   19.5667   22.3447 C   0  0  0  0  0  0  0  0  0  0  0  0
   21.7403   19.3756   22.0698 H   0  0  0  0  0  0  0  0  0  0  0  0
   20.6729   20.3448   23.1177 H   0  0  0  0  0  0  0  0  0  0  0  0
   19.8405   18.3062   22.6703 C   0  0  0  0  0  0  0  0  0  0  0  0
   20.1090   17.4225   22.0753 H   0  0  0  0  0  0  0  0  0  0  0  0
   18.6401   19.1161   22.0937 C   0  0  0  0  0  0  0  0  0  0  0  0
   17.8621   18.5277   21.5950 H   0  0  0  0  0  0  0  0  0  0  0  0
   18.1635   19.7969   22.8100 H   0  0  0  0  0  0  0  0  0  0  0  0
   19.7457   17.9791   24.0372 O   0  0  0  0  0  0  0  0  0  0  0  0
   19.0601   17.2820   24.1224 H   0  0  0  0  0  0  0  0  0  0  0  0
  1  2  1  0  0  0  0
  1  3  1  0  0  0  0
  1  4  1  0  0  0  0
  4  5  1  0  0  0  0
  4  6  1  0  0  0  0
  4  7  1  0  0  0  0
  7  8  1  0  0  0  0
  1  9  1  0  0  0  0
  7  9  1  0  0  0  0
  9 10  1  0  0  0  0
  9 11  1  0  0  0  0
  7 12  1  0  0  0  0
 12 13  1  0  0  0  0
M  END
> <VConfSearch Rank>
556

> <Conf_Id>
22

> <Delta U+W>
0.000

> <U+W>
-3.131

> <U>
-0.154

> <W>
-2.978

> <W(PB)>
-4.579

> <W(SA)>
1.601

> <Valence>
6.333

> <Coulomb>
-7.439

> <VdW>
0.952

> <VdW6>
-2.120

> <VdW12>
3.072

> <Bond>
0.065

> <Angle>
0.931

> <Pdih>
5.338

> <Idih>
0.000

> <Tether>
0.000

$$$$
VeraChem MOL file


 13 13  0  0  0  0  0  0  0  0999 V2000     
   18.4652   19.4990   22.0064 C   0  0  0  0  0  0  0  0  0  0  0  0
   18.0977   19.3314   20.9854 H   0  0  0  0  0  0  0  0  0  0  0  0
   17.7601   20.1561   22.5292 H   0  0  0  0  0  0  0  0  0  0  0  0
   19.9751   19.8971   22.1015 C   0  0  0  0  0  0  0  0  0  0  0  0
   20.2641   20.3758   23.0455 H   0  0  0  0  0  0  0  0  0  0  0  0
   20.3708   20.4902   21.2697 H   0  0  0  0  0  0  0  0  0  0  0  0
   20.2573   18.3655   22.0391 C   0  0  0  0  0  0  0  0  0  0  0  0
   20.2666   17.9550   21.0201 H   0  0  0  0  0  0  0  0  0  0  0  0
   18.8906   18.2016   22.7700 C   0  0  0  0  0  0  0  0  0  0  0  0
   18.9432   18.3064   23.8608 H   0  0  0  0  0  0  0  0  0  0  0  0
   18.3282   17.2927   22.5300 H   0  0  0  0  0  0  0  0  0  0  0  0
   21.3840   17.9302   22.7642 O   0  0  0  0  0  0  0  0  0  0  0  0
   22.1792   18.2333   22.2752 H   0  0  0  0  0  0  0  0  0  0  0  0
  1  2  1  0  0  0  0
  1  3  1  0  0  0  0
  1  4  1  0  0  0  0
  4  5  1  0  0  0  0
  4  6  1  0  0  0  0
  4  7  1  0  0  0  0
  7  8  1  0  0  0  0
  1  9  1  0  0  0  0
  7  9  1  0  0  0  0
  9 10  1  0  0  0  0
  9 11  1  0  0  0  0
  7 12  1  0  0  0  0
 12 13  1  0  0  0  0
M  END
> <VConfSearch Rank>
557

> <Conf_Id>
19

> <Delta U+W>
-0.011

> <U+W>
-3.142

> <U>
-0.154

> <W>
-2.989

> <W(PB)>
-4.588

> <W(SA)>
1.599

> <Valence>
6.334

> <Coulomb>
-7.439

> <VdW>
0.951

> <VdW6>
-2.120

> <VdW12>
3.072

> <Bond>
0.065

> <Angle>
0.930

> <Pdih>
5.339

> <Idih>
0.000

> <Tether>
0.000

$$$$
VeraChem MOL file


 13 13  0  0  0  0  0  0  0  0999 V2000     
   20.3050   20.0769   22.1445 C   0  0  0  0  0  0  0  0  0  0  0  0
   20.6069   20.8694   21.4496 H   0  0  0  0  0  0  0  0  0  0  0  0
   20.7181   20.3033   23.1361 H   0  0  0  0  0  0  0  0  0  0  0  0
   20.5459   18.6084   21.6604 C   0  0  0  0  0  0  0  0  0  0  0  0
   20.4749   18.4697   20.5748 H   0  0  0  0  0  0  0  0  0  0  0  0
   21.4650   18.1293   22.0156 H   0  0  0  0  0  0  0  0  0  0  0  0
   19.2445   18.2392   22.4386 C   0  0  0  0  0  0  0  0  0  0  0  0
   18.6334   17.4607   21.9640 H   0  0  0  0  0  0  0  0  0  0  0  0
   18.7859   19.7015   22.1429 C   0  0  0  0  0  0  0  0  0  0  0  0
   18.1726   20.1777   22.9158 H   0  0  0  0  0  0  0  0  0  0  0  0
   18.2880   19.8284   21.1739 H   0  0  0  0  0  0  0  0  0  0  0  0
   19.4347   17.9380   23.8066 O   0  0  0  0  0  0  0  0  0  0  0  0
   18.5468   17.8972   24.2214 H   0  0  0  0  0  0  0  0  0  0  0  0
  1  2  1  0  0  0  0
  1  3  1  0  0  0  0
  1  4  1  0  0  0  0
  4  5  1  0  0  0  0
  4  6  1  0  0  0  0
  4  7  1  0  0  0  0
  7  8  1  0  0  0  0
  1  9  1  0  0  0  0
  7  9  1  0  0  0  0
  9 10  1  0  0  0  0
  9 11  1  0  0  0  0
  7 12  1  0  0  0  0
 12 13  1  0  0  0  0
M  END
> <VConfSearch Rank>
558

> <Conf_Id>
20

> <Delta U+W>
1.030

> <U+W>
-2.101

> <U>
0.841

> <W>
-2.942

> <W(PB)>
-4.530

> <W(SA)>
1.587

> <Valence>
6.736

> <Coulomb>
-7.246

> <VdW>
1.352

> <VdW6>
-2.500

> <VdW12>
3.851

> <Bond>
0.063

> <Angle>
0.687

> <Pdih>
5.986

> <Idih>
0.000

> <Tether>
0.000

$$$$
VeraChem MOL file


 13 13  0  0  0  0  0  0  0  0999 V2000     
   21.0036   18.8841   22.4542 C   0  0  0  0  0  0  0  0  0  0  0  0
   21.6982   19.0165   21.6142 H   0  0  0  0  0  0  0  0  0  0  0  0
   21.5867   18.7118   23.3667 H   0  0  0  0  0  0  0  0  0  0  0  0
   19.8357   17.8787   22.1849 C   0  0  0  0  0  0  0  0  0  0  0  0
   20.0663   17.0386   21.5206 H   0  0  0  0  0  0  0  0  0  0  0  0
   19.3492   17.4900   23.0880 H   0  0  0  0  0  0  0  0  0  0  0  0
   19.1115   19.0881   21.5200 C   0  0  0  0  0  0  0  0  0  0  0  0
   19.4078   19.2645   20.4771 H   0  0  0  0  0  0  0  0  0  0  0  0
   19.8802   19.9686   22.5510 C   0  0  0  0  0  0  0  0  0  0  0  0
   19.4037   20.0470   23.5360 H   0  0  0  0  0  0  0  0  0  0  0  0
   20.1502   20.9742   22.2101 H   0  0  0  0  0  0  0  0  0  0  0  0
   17.7093   19.0961   21.6449 O   0  0  0  0  0  0  0  0  0  0  0  0
   17.5062   18.9348   22.5902 H   0  0  0  0  0  0  0  0  0  0  0  0
  1  2  1  0  0  0  0
  1  3  1  0  0  0  0
  1  4  1  0  0  0  0
  4  5  1  0  0  0  0
  4  6  1  0  0  0  0
  4  7  1  0  0  0  0
  7  8  1  0  0  0  0
  1  9  1  0  0  0  0
  7  9  1  0  0  0  0
  9 10  1  0  0  0  0
  9 11  1  0  0  0  0
  7 12  1  0  0  0  0
 12 13  1  0  0  0  0
M  END
> <VConfSearch Rank>
559

> <Conf_Id>
24

> <Delta U+W>
0.356

> <U+W>
-2.775

> <U>
-0.184

> <W>
-2.591

> <W(PB)>
-4.184

> <W(SA)>
1.593

> <Valence>
6.840

> <Coulomb>
-7.916

> <VdW>
0.893

> <VdW6>
-2.167

> <VdW12>
3.060

> <Bond>
0.059

> <Angle>
0.918

> <Pdih>
5.862

> <Idih>
0.000

> <Tether>
0.000

$$$$
VeraChem MOL file


 13 13  0  0  0  0  0  0  0  0999 V2000     
   20.2648   18.0950   22.6247 C   0  0  0  0  0  0  0  0  0  0  0  0
   20.3000   17.0048   22.7370 H   0  0  0  0  0  0  0  0  0  0  0  0
   21.1472   18.5228   23.1173 H   0  0  0  0  0  0  0  0  0  0  0  0
   18.9065   18.7777   22.9979 C   0  0  0  0  0  0  0  0  0  0  0  0
   18.0223   18.1520   22.8257 H   0  0  0  0  0  0  0  0  0  0  0  0
   18.8406   19.2037   24.0053 H   0  0  0  0  0  0  0  0  0  0  0  0
   19.2043   19.7891   21.8480 C   0  0  0  0  0  0  0  0  0  0  0  0
   18.3209   20.1263   21.2908 H   0  0  0  0  0  0  0  0  0  0  0  0
   19.9972   18.6253   21.1765 C   0  0  0  0  0  0  0  0  0  0  0  0
   19.3804   17.9623   20.5577 H   0  0  0  0  0  0  0  0  0  0  0  0
   20.8807   18.9188   20.5985 H   0  0  0  0  0  0  0  0  0  0  0  0
   19.9894   20.8995   22.2253 O   0  0  0  0  0  0  0  0  0  0  0  0
   20.7577   20.5407   22.7154 H   0  0  0  0  0  0  0  0  0  0  0  0
  1  2  1  0  0  0  0
  1  3  1  0  0  0  0
  1  4  1  0  0  0  0
  4  5  1  0  0  0  0
  4  6  1  0  0  0  0
  4  7  1  0  0  0  0
  7  8  1  0  0  0  0
  1  9  1  0  0  0  0
  7  9  1  0  0  0  0
  9 10  1  0  0  0  0
  9 11  1  0  0  0  0
  7 12  1  0  0  0  0
 12 13  1  0  0  0  0
M  END
> <VConfSearch Rank>
560

> <Conf_Id>
44

> <Delta U+W>
0.823

> <U+W>
-2.308

> <U>
0.039

> <W>
-2.348

> <W(PB)>
-3.918

> <W(SA)>
1.571

> <Valence>
7.320

> <Coulomb>
-8.530

> <VdW>
1.249

> <VdW6>
-2.615

> <VdW12>
3.864

> <Bond>
0.056

> <Angle>
0.694

> <Pdih>
6.570

> <Idih>
0.000

> <Tether>
0.000

$$$$
VeraChem MOL file


 13 13  0  0  0  0  0  0  0  0999 V2000     
   20.7153   19.2661   23.0182 C   0  0  0  0  0  0  0  0  0  0  0  0
   21.6727   19.1859   22.4866 H   0  0  0  0  0  0  0  0  0  0  0  0
   20.9137   19.5672   24.0538 H   0  0  0  0  0  0  0  0  0  0  0  0
   19.7577   18.0436   22.8297 C   0  0  0  0  0  0  0  0  0  0  0  0
   20.2384   17.0670   22.7066 H   0  0  0  0  0  0  0  0  0  0  0  0
   18.9693   17.9559   23.5876 H   0  0  0  0  0  0  0  0  0  0  0  0
   19.3124   18.7503   21.5139 C   0  0  0  0  0  0  0  0  0  0  0  0
   19.9777   18.5582   20.6610 H   0  0  0  0  0  0  0  0  0  0  0  0
   19.6143   20.0826   22.2642 C   0  0  0  0  0  0  0  0  0  0  0  0
   19.9698   20.9114   21.6422 H   0  0  0  0  0  0  0  0  0  0  0  0
   18.7959   20.4435   22.8996 H   0  0  0  0  0  0  0  0  0  0  0  0
   17.9652   18.5547   21.1514 O   0  0  0  0  0  0  0  0  0  0  0  0
   17.7703   19.1715   20.4134 H   0  0  0  0  0  0  0  0  0  0  0  0
  1  2  1  0  0  0  0
  1  3  1  0  0  0  0
  1  4  1  0  0  0  0
  4  5  1  0  0  0  0
  4  6  1  0  0  0  0
  4  7  1  0  0  0  0
  7  8  1  0  0  0  0
  1  9  1  0  0  0  0
  7  9  1  0  0  0  0
  9 10  1  0  0  0  0
  9 11  1  0  0  0  0
  7 12  1  0  0  0  0
 12 13  1  0  0  0  0
M  END
> <VConfSearch Rank>
561

> <Conf_Id>
22

> <Delta U+W>
0.000

> <U+W>
-3.131

> <U>
-0.154

> <W>
-2.978

> <W(PB)>
-4.579

> <W(SA)>
1.601

> <Valence>
6.333

> <Coulomb>
-7.439

> <VdW>
0.952

> <VdW6>
-2.120

> <VdW12>
3.072

> <Bond>
0.065

> <Angle>
0.931

> <Pdih>
5.338

> <Idih>
0.000

> <Tether>
0.000

$$$$
VeraChem MOL file


 13 13  0  0  0  0  0  0  0  0999 V2000     
   20.8869   18.8849   22.6438 C   0  0  0  0  0  0  0  0  0  0  0  0
   21.0083   19.0365   23.7244 H   0  0  0  0  0  0  0  0  0  0  0  0
   21.8804   18.7912   22.1893 H   0  0  0  0  0  0  0  0  0  0  0  0
   19.9049   19.8847   21.9487 C   0  0  0  0  0  0  0  0  0  0  0  0
   20.0225   19.9605   20.8604 H   0  0  0  0  0  0  0  0  0  0  0  0
   19.8668   20.8951   22.3705 H   0  0  0  0  0  0  0  0  0  0  0  0
   18.7791   18.9116   22.4121 C   0  0  0  0  0  0  0  0  0  0  0  0
   18.4541   19.0676   23.4499 H   0  0  0  0  0  0  0  0  0  0  0  0
   19.8451   17.7863   22.2500 C   0  0  0  0  0  0  0  0  0  0  0  0
   19.9473   17.4010   21.2279 H   0  0  0  0  0  0  0  0  0  0  0  0
   19.7518   16.9393   22.9383 H   0  0  0  0  0  0  0  0  0  0  0  0
   17.6695   18.8189   21.5491 O   0  0  0  0  0  0  0  0  0  0  0  0
   17.1655   19.6568   21.6326 H   0  0  0  0  0  0  0  0  0  0  0  0
  1  2  1  0  0  0  0
  1  3  1  0  0  0  0
  1  4  1  0  0  0  0
  4  5  1  0  0  0  0
  4  6  1  0  0  0  0
  4  7  1  0  0  0  0
  7  8  1  0  0  0  0
  1  9  1  0  0  0  0
  7  9  1  0  0  0  0
  9 10  1  0  0  0  0
  9 11  1  0  0  0  0
  7 12  1  0  0  0  0
 12 13  1  0  0  0  0
M  END
> <VConfSearch Rank>
562

> <Conf_Id>
19

> <Delta U+W>
-0.011

> <U+W>
-3.142

> <U>
-0.154

> <W>
-2.989

> <W(PB)>
-4.588

> <W(SA)>
1.599

> <Valence>
6.334

> <Coulomb>
-7.439

> <VdW>
0.951

> <VdW6>
-2.120

> <VdW12>
3.072

> <Bond>
0.065

> <Angle>
0.930

> <Pdih>
5.339

> <Idih>
0.000

> <Tether>
0.000

$$$$
VeraChem MOL file


 13 13  0  0  0  0  0  0  0  0999 V2000     
   20.8253   18.7807   22.1390 C   0  0  0  0  0  0  0  0  0  0  0  0
   21.8420   19.1882   22.0908 H   0  0  0  0  0  0  0  0  0  0  0  0
   20.8841   17.6851   22.1013 H   0  0  0  0  0  0  0  0  0  0  0  0
   19.7841   19.4095   21.1544 C   0  0  0  0  0  0  0  0  0  0  0  0
   19.9624   20.4652   20.9170 H   0  0  0  0  0  0  0  0  0  0  0  0
   19.6152   18.8636   20.2196 H   0  0  0  0  0  0  0  0  0  0  0  0
   18.7246   19.1766   22.2764 C   0  0  0  0  0  0  0  0  0  0  0  0
   17.9524   19.9536   22.3443 H   0  0  0  0  0  0  0  0  0  0  0  0
   19.9108   19.3442   23.2769 C   0  0  0  0  0  0  0  0  0  0  0  0
   19.8560   18.7430   24.1912 H   0  0  0  0  0  0  0  0  0  0  0  0
   20.1204   20.3844   23.5543 H   0  0  0  0  0  0  0  0  0  0  0  0
   18.1241   17.8969   22.2710 O   0  0  0  0  0  0  0  0  0  0  0  0
   17.6202   17.8088   23.1079 H   0  0  0  0  0  0  0  0  0  0  0  0
  1  2  1  0  0  0  0
  1  3  1  0  0  0  0
  1  4  1  0  0  0  0
  4  5  1  0  0  0  0
  4  6  1  0  0  0  0
  4  7  1  0  0  0  0
  7  8  1  0  0  0  0
  1  9  1  0  0  0  0
  7  9  1  0  0  0  0
  9 10  1  0  0  0  0
  9 11  1  0  0  0  0
  7 12  1  0  0  0  0
 12 13  1  0  0  0  0
M  END
> <VConfSearch Rank>
563

> <Conf_Id>
20

> <Delta U+W>
1.030

> <U+W>
-2.101

> <U>
0.841

> <W>
-2.942

> <W(PB)>
-4.530

> <W(SA)>
1.587

> <Valence>
6.736

> <Coulomb>
-7.246

> <VdW>
1.352

> <VdW6>
-2.500

> <VdW12>
3.851

> <Bond>
0.063

> <Angle>
0.687

> <Pdih>
5.986

> <Idih>
0.000

> <Tether>
0.000

$$$$
VeraChem MOL file


 13 13  0  0  0  0  0  0  0  0999 V2000     
   20.1223   20.1138   22.6059 C   0  0  0  0  0  0  0  0  0  0  0  0
   20.9308   20.1700   23.3468 H   0  0  0  0  0  0  0  0  0  0  0  0
   19.8027   21.1332   22.3587 H   0  0  0  0  0  0  0  0  0  0  0  0
   18.9819   19.1024   22.9579 C   0  0  0  0  0  0  0  0  0  0  0  0
   18.7650   18.9721   24.0238 H   0  0  0  0  0  0  0  0  0  0  0  0
   18.0383   19.2732   22.4250 H   0  0  0  0  0  0  0  0  0  0  0  0
   19.9086   18.0242   22.3192 C   0  0  0  0  0  0  0  0  0  0  0  0
   20.6760   17.6367   23.0031 H   0  0  0  0  0  0  0  0  0  0  0  0
   20.4123   19.1710   21.3917 C   0  0  0  0  0  0  0  0  0  0  0  0
   19.7885   19.3572   20.5087 H   0  0  0  0  0  0  0  0  0  0  0  0
   21.4586   19.1014   21.0744 H   0  0  0  0  0  0  0  0  0  0  0  0
   19.2459   16.9668   21.6676 O   0  0  0  0  0  0  0  0  0  0  0  0
   18.5778   17.3708   21.0751 H   0  0  0  0  0  0  0  0  0  0  0  0
  1  2  1  0  0  0  0
  1  3  1  0  0  0  0
  1  4  1  0  0  0  0
  4  5  1  0  0  0  0
  4  6  1  0  0  0  0
  4  7  1  0  0  0  0
  7  8  1  0  0  0  0
  1  9  1  0  0  0  0
  7  9  1  0  0  0  0
  9 10  1  0  0  0  0
  9 11  1  0  0  0  0
  7 12  1  0  0  0  0
 12 13  1  0  0  0  0
M  END
> <VConfSearch Rank>
564

> <Conf_Id>
24

> <Delta U+W>
0.356

> <U+W>
-2.775

> <U>
-0.184

> <W>
-2.591

> <W(PB)>
-4.184

> <W(SA)>
1.593

> <Valence>
6.840

> <Coulomb>
-7.916

> <VdW>
0.893

> <VdW6>
-2.167

> <VdW12>
3.060

> <Bond>
0.059

> <Angle>
0.918

> <Pdih>
5.862

> <Idih>
0.000

> <Tether>
0.000

$$$$
VeraChem MOL file


 13 13  0  0  0  0  0  0  0  0999 V2000     
   19.4056   19.7607   21.4615 C   0  0  0  0  0  0  0  0  0  0  0  0
   18.7341   20.5984   21.2390 H   0  0  0  0  0  0  0  0  0  0  0  0
   20.0846   19.6252   20.6100 H   0  0  0  0  0  0  0  0  0  0  0  0
   18.7185   18.4497   21.9708 C   0  0  0  0  0  0  0  0  0  0  0  0
   17.7942   18.6133   22.5381 H   0  0  0  0  0  0  0  0  0  0  0  0
   18.5319   17.6774   21.2163 H   0  0  0  0  0  0  0  0  0  0  0  0
   19.9830   18.2419   22.8608 C   0  0  0  0  0  0  0  0  0  0  0  0
   19.7863   17.7946   23.8435 H   0  0  0  0  0  0  0  0  0  0  0  0
   20.1045   19.7973   22.8616 C   0  0  0  0  0  0  0  0  0  0  0  0
   19.5200   20.2913   23.6473 H   0  0  0  0  0  0  0  0  0  0  0  0
   21.1242   20.1979   22.8824 H   0  0  0  0  0  0  0  0  0  0  0  0
   21.0476   17.5657   22.2274 O   0  0  0  0  0  0  0  0  0  0  0  0
   21.1773   18.0046   21.3615 H   0  0  0  0  0  0  0  0  0  0  0  0
  1  2  1  0  0  0  0
  1  3  1  0  0  0  0
  1  4  1  0  0  0  0
  4  5  1  0  0  0  0
  4  6  1  0  0  0  0
  4  7  1  0  0  0  0
  7  8  1  0  0  0  0
  1  9  1  0  0  0  0
  7  9  1  0  0  0  0
  9 10  1  0  0  0  0
  9 11  1  0  0  0  0
  7 12  1  0  0  0  0
 12 13  1  0  0  0  0
M  END
> <VConfSearch Rank>
565

> <Conf_Id>
44

> <Delta U+W>
0.823

> <U+W>
-2.308

> <U>
0.039

> <W>
-2.348

> <W(PB)>
-3.918

> <W(SA)>
1.571

> <Valence>
7.320

> <Coulomb>
-8.530

> <VdW>
1.249

> <VdW6>
-2.615

> <VdW12>
3.864

> <Bond>
0.056

> <Angle>
0.694

> <Pdih>
6.570

> <Idih>
0.000

> <Tether>
0.000

$$$$
VeraChem MOL file


 13 13  0  0  0  0  0  0  0  0999 V2000     
   20.5171   20.0523   22.2578 C   0  0  0  0  0  0  0  0  0  0  0  0
   21.2777   19.9753   23.0460 H   0  0  0  0  0  0  0  0  0  0  0  0
   20.7227   20.9472   21.6586 H   0  0  0  0  0  0  0  0  0  0  0  0
   19.0429   19.8803   22.7521 C   0  0  0  0  0  0  0  0  0  0  0  0
   18.8263   20.2426   23.7630 H   0  0  0  0  0  0  0  0  0  0  0  0
   18.2797   20.2694   22.0667 H   0  0  0  0  0  0  0  0  0  0  0  0
   19.3065   18.3497   22.6229 C   0  0  0  0  0  0  0  0  0  0  0  0
   19.8134   17.9126   23.4941 H   0  0  0  0  0  0  0  0  0  0  0  0
   20.2681   18.7315   21.4572 C   0  0  0  0  0  0  0  0  0  0  0  0
   21.1374   18.0787   21.3215 H   0  0  0  0  0  0  0  0  0  0  0  0
   19.7755   18.8701   20.4867 H   0  0  0  0  0  0  0  0  0  0  0  0
   18.1893   17.5752   22.2535 O   0  0  0  0  0  0  0  0  0  0  0  0
   18.5162   16.6729   22.0481 H   0  0  0  0  0  0  0  0  0  0  0  0
  1  2  1  0  0  0  0
  1  3  1  0  0  0  0
  1  4  1  0  0  0  0
  4  5  1  0  0  0  0
  4  6  1  0  0  0  0
  4  7  1  0  0  0  0
  7  8  1  0  0  0  0
  1  9  1  0  0  0  0
  7  9  1  0  0  0  0
  9 10  1  0  0  0  0
  9 11  1  0  0  0  0
  7 12  1  0  0  0  0
 12 13  1  0  0  0  0
M  END
> <VConfSearch Rank>
566

> <Conf_Id>
22

> <Delta U+W>
0.000

> <U+W>
-3.131

> <U>
-0.154

> <W>
-2.978

> <W(PB)>
-4.579

> <W(SA)>
1.601

> <Valence>
6.333

> <Coulomb>
-7.439

> <VdW>
0.952

> <VdW6>
-2.120

> <VdW12>
3.072

> <Bond>
0.065

> <Angle>
0.931

> <Pdih>
5.338

> <Idih>
0.000

> <Tether>
0.000

$$$$
VeraChem MOL file


 13 13  0  0  0  0  0  0  0  0999 V2000     
   19.0205   19.9652   21.7075 C   0  0  0  0  0  0  0  0  0  0  0  0
   18.6544   19.7779   20.6894 H   0  0  0  0  0  0  0  0  0  0  0  0
   18.8113   21.0095   21.9685 H   0  0  0  0  0  0  0  0  0  0  0  0
   20.4781   19.4674   21.9810 C   0  0  0  0  0  0  0  0  0  0  0  0
   20.9627   19.9254   22.8523 H   0  0  0  0  0  0  0  0  0  0  0  0
   21.1688   19.5077   21.1315 H   0  0  0  0  0  0  0  0  0  0  0  0
   19.8224   18.0811   22.2590 C   0  0  0  0  0  0  0  0  0  0  0  0
   19.6225   17.4926   21.3530 H   0  0  0  0  0  0  0  0  0  0  0  0
   18.5925   18.8940   22.7642 C   0  0  0  0  0  0  0  0  0  0  0  0
   18.6635   19.2240   23.8081 H   0  0  0  0  0  0  0  0  0  0  0  0
   17.6150   18.4248   22.6087 H   0  0  0  0  0  0  0  0  0  0  0  0
   20.4663   17.2945   23.2344 O   0  0  0  0  0  0  0  0  0  0  0  0
   21.3041   16.9701   22.8395 H   0  0  0  0  0  0  0  0  0  0  0  0
  1  2  1  0  0  0  0
  1  3  1  0  0  0  0
  1  4  1  0  0  0  0
  4  5  1  0  0  0  0
  4  6  1  0  0  0  0
  4  7  1  0  0  0  0
  7  8  1  0  0  0  0
  1  9  1  0  0  0  0
  7  9  1  0  0  0  0
  9 10  1  0  0  0  0
  9 11  1  0  0  0  0
  7 12  1  0  0  0  0
 12 13  1  0  0  0  0
M  END
> <VConfSearch Rank>
567

> <Conf_Id>
19

> <Delta U+W>
-0.011

> <U+W>
-3.142

> <U>
-0.154

> <W>
-2.989

> <W(PB)>
-4.588

> <W(SA)>
1.599

> <Valence>
6.334

> <Coulomb>
-7.439

> <VdW>
0.951

> <VdW6>
-2.120

> <VdW12>
3.072

> <Bond>
0.065

> <Angle>
0.930

> <Pdih>
5.339

> <Idih>
0.000

> <Tether>
0.000

$$$$
VeraChem MOL file


 13 13  0  0  0  0  0  0  0  0999 V2000     
   18.6200   19.5957   22.7263 C   0  0  0  0  0  0  0  0  0  0  0  0
   17.9555   20.4641   22.6475 H   0  0  0  0  0  0  0  0  0  0  0  0
   18.1941   18.8926   23.4540 H   0  0  0  0  0  0  0  0  0  0  0  0
   20.1389   19.9079   22.9370 C   0  0  0  0  0  0  0  0  0  0  0  0
   20.4790   20.8438   22.4775 H   0  0  0  0  0  0  0  0  0  0  0  0
   20.4980   19.8745   23.9715 H   0  0  0  0  0  0  0  0  0  0  0  0
   20.4220   18.6349   22.0797 C   0  0  0  0  0  0  0  0  0  0  0  0
   21.3041   18.7079   21.4306 H   0  0  0  0  0  0  0  0  0  0  0  0
   19.0641   18.9436   21.3749 C   0  0  0  0  0  0  0  0  0  0  0  0
   18.4843   18.0733   21.0481 H   0  0  0  0  0  0  0  0  0  0  0  0
   19.1431   19.6461   20.5364 H   0  0  0  0  0  0  0  0  0  0  0  0
   20.4556   17.4233   22.8071 O   0  0  0  0  0  0  0  0  0  0  0  0
   20.4630   16.6920   22.1535 H   0  0  0  0  0  0  0  0  0  0  0  0
  1  2  1  0  0  0  0
  1  3  1  0  0  0  0
  1  4  1  0  0  0  0
  4  5  1  0  0  0  0
  4  6  1  0  0  0  0
  4  7  1  0  0  0  0
  7  8  1  0  0  0  0
  1  9  1  0  0  0  0
  7  9  1  0  0  0  0
  9 10  1  0  0  0  0
  9 11  1  0  0  0  0
  7 12  1  0  0  0  0
 12 13  1  0  0  0  0
M  END
> <VConfSearch Rank>
568

> <Conf_Id>
20

> <Delta U+W>
1.030

> <U+W>
-2.101

> <U>
0.841

> <W>
-2.942

> <W(PB)>
-4.530

> <W(SA)>
1.587

> <Valence>
6.736

> <Coulomb>
-7.246

> <VdW>
1.352

> <VdW6>
-2.500

> <VdW12>
3.851

> <Bond>
0.063

> <Angle>
0.687

> <Pdih>
5.986

> <Idih>
0.000

> <Tether>
0.000

$$$$
VeraChem MOL file


 13 13  0  0  0  0  0  0  0  0999 V2000     
   20.1874   19.8873   21.4530 C   0  0  0  0  0  0  0  0  0  0  0  0
   19.8825   20.9186   21.6747 H   0  0  0  0  0  0  0  0  0  0  0  0
   20.8427   19.8975   20.5738 H   0  0  0  0  0  0  0  0  0  0  0  0
   19.0162   18.8506   21.4253 C   0  0  0  0  0  0  0  0  0  0  0  0
   18.0472   19.2269   21.0794 H   0  0  0  0  0  0  0  0  0  0  0  0
   19.2425   17.9189   20.8923 H   0  0  0  0  0  0  0  0  0  0  0  0
   19.2031   18.7825   22.9711 C   0  0  0  0  0  0  0  0  0  0  0  0
   18.6874   19.5845   23.5166 H   0  0  0  0  0  0  0  0  0  0  0  0
   20.7067   19.0791   22.6877 C   0  0  0  0  0  0  0  0  0  0  0  0
   21.3109   18.1985   22.4369 H   0  0  0  0  0  0  0  0  0  0  0  0
   21.2307   19.6573   23.4568 H   0  0  0  0  0  0  0  0  0  0  0  0
   18.9340   17.5315   23.5580 O   0  0  0  0  0  0  0  0  0  0  0  0
   19.4173   16.8599   23.0325 H   0  0  0  0  0  0  0  0  0  0  0  0
  1  2  1  0  0  0  0
  1  3  1  0  0  0  0
  1  4  1  0  0  0  0
  4  5  1  0  0  0  0
  4  6  1  0  0  0  0
  4  7  1  0  0  0  0
  7  8  1  0  0  0  0
  1  9  1  0  0  0  0
  7  9  1  0  0  0  0
  9 10  1  0  0  0  0
  9 11  1  0  0  0  0
  7 12  1  0  0  0  0
 12 13  1  0  0  0  0
M  END
> <VConfSearch Rank>
569

> <Conf_Id>
24

> <Delta U+W>
0.356

> <U+W>
-2.775

> <U>
-0.184

> <W>
-2.591

> <W(PB)>
-4.184

> <W(SA)>
1.593

> <Valence>
6.840

> <Coulomb>
-7.916

> <VdW>
0.893

> <VdW6>
-2.167

> <VdW12>
3.060

> <Bond>
0.059

> <Angle>
0.918

> <Pdih>
5.862

> <Idih>
0.000

> <Tether>
0.000

$$$$
VeraChem MOL file


 13 13  0  0  0  0  0  0  0  0999 V2000     
   20.2794   19.2455   23.1295 C   0  0  0  0  0  0  0  0  0  0  0  0
   21.1891   19.7179   23.5188 H   0  0  0  0  0  0  0  0  0  0  0  0
   19.6840   18.8876   23.9790 H   0  0  0  0  0  0  0  0  0  0  0  0
   20.4883   18.1990   21.9844 C   0  0  0  0  0  0  0  0  0  0  0  0
   21.3547   18.3971   21.3417 H   0  0  0  0  0  0  0  0  0  0  0  0
   20.5149   17.1470   22.2901 H   0  0  0  0  0  0  0  0  0  0  0  0
   19.1333   18.7050   21.3997 C   0  0  0  0  0  0  0  0  0  0  0  0
   19.0840   18.7268   20.3035 H   0  0  0  0  0  0  0  0  0  0  0  0
   19.4803   20.0718   22.0670 C   0  0  0  0  0  0  0  0  0  0  0  0
   20.0996   20.7291   21.4446 H   0  0  0  0  0  0  0  0  0  0  0  0
   18.6295   20.6500   22.4446 H   0  0  0  0  0  0  0  0  0  0  0  0
   17.9883   18.0657   21.9213 O   0  0  0  0  0  0  0  0  0  0  0  0
   18.0864   18.0755   22.8958 H   0  0  0  0  0  0  0  0  0  0  0  0
  1  2  1  0  0  0  0
  1  3  1  0  0  0  0
  1  4  1  0  0  0  0
  4  5  1  0  0  0  0
  4  6  1  0  0  0  0
  4  7  1  0  0  0  0
  7  8  1  0  0  0  0
  1  9  1  0  0  0  0
  7  9  1  0  0  0  0
  9 10  1  0  0  0  0
  9 11  1  0  0  0  0
  7 12  1  0  0  0  0
 12 13  1  0  0  0  0
M  END
> <VConfSearch Rank>
570

> <Conf_Id>
44

> <Delta U+W>
0.823

> <U+W>
-2.308

> <U>
0.039

> <W>
-2.348

> <W(PB)>
-3.918

> <W(SA)>
1.571

> <Valence>
7.320

> <Coulomb>
-8.530

> <VdW>
1.249

> <VdW6>
-2.615

> <VdW12>
3.864

> <Bond>
0.056

> <Angle>
0.694

> <Pdih>
6.570

> <Idih>
0.000

> <Tether>
0.000

$$$$
VeraChem MOL file


 13 13  0  0  0  0  0  0  0  0999 V2000     
   20.2773   18.2669   21.3727 C   0  0  0  0  0  0  0  0  0  0  0  0
   21.0044   17.5818   21.8283 H   0  0  0  0  0  0  0  0  0  0  0  0
   20.2325   18.0648   20.2959 H   0  0  0  0  0  0  0  0  0  0  0  0
   20.4448   19.7670   21.7838 C   0  0  0  0  0  0  0  0  0  0  0  0
   21.4686   20.1030   21.9809 H   0  0  0  0  0  0  0  0  0  0  0  0
   19.9612   20.4851   21.1100 H   0  0  0  0  0  0  0  0  0  0  0  0
   19.6014   19.3908   23.0392 C   0  0  0  0  0  0  0  0  0  0  0  0
   20.1909   18.9417   23.8503 H   0  0  0  0  0  0  0  0  0  0  0  0
   18.9022   18.3495   22.1140 C   0  0  0  0  0  0  0  0  0  0  0  0
   18.5613   17.4297   22.6018 H   0  0  0  0  0  0  0  0  0  0  0  0
   18.0803   18.7550   21.5109 H   0  0  0  0  0  0  0  0  0  0  0  0
   18.7681   20.4135   23.5334 O   0  0  0  0  0  0  0  0  0  0  0  0
   18.1799   20.0091   24.2070 H   0  0  0  0  0  0  0  0  0  0  0  0
  1  2  1  0  0  0  0
  1  3  1  0  0  0  0
  1  4  1  0  0  0  0
  4  5  1  0  0  0  0
  4  6  1  0  0  0  0
  4  7  1  0  0  0  0
  7  8  1  0  0  0  0
  1  9  1  0  0  0  0
  7  9  1  0  0  0  0
  9 10  1  0  0  0  0
  9 11  1  0  0  0  0
  7 12  1  0  0  0  0
 12 13  1  0  0  0  0
M  END
> <VConfSearch Rank>
571

> <Conf_Id>
22

> <Delta U+W>
0.000

> <U+W>
-3.131

> <U>
-0.154

> <W>
-2.978

> <W(PB)>
-4.579

> <W(SA)>
1.601

> <Valence>
6.333

> <Coulomb>
-7.439

> <VdW>
0.952

> <VdW6>
-2.120

> <VdW12>
3.072

> <Bond>
0.065

> <Angle>
0.931

> <Pdih>
5.338

> <Idih>
0.000

> <Tether>
0.000

$$$$
VeraChem MOL file


 13 13  0  0  0  0  0  0  0  0999 V2000     
   18.6475   19.7552   21.9474 C   0  0  0  0  0  0  0  0  0  0  0  0
   18.9878   20.6760   21.4556 H   0  0  0  0  0  0  0  0  0  0  0  0
   17.5630   19.8181   22.0971 H   0  0  0  0  0  0  0  0  0  0  0  0
   19.4897   19.3298   23.1952 C   0  0  0  0  0  0  0  0  0  0  0  0
   18.9850   18.6281   23.8710 H   0  0  0  0  0  0  0  0  0  0  0  0
   19.9178   20.1450   23.7888 H   0  0  0  0  0  0  0  0  0  0  0  0
   20.4505   18.6605   22.1666 C   0  0  0  0  0  0  0  0  0  0  0  0
   21.1747   19.3533   21.7166 H   0  0  0  0  0  0  0  0  0  0  0  0
   19.1759   18.4332   21.2991 C   0  0  0  0  0  0  0  0  0  0  0  0
   18.6042   17.5334   21.5583 H   0  0  0  0  0  0  0  0  0  0  0  0
   19.3281   18.4536   20.2145 H   0  0  0  0  0  0  0  0  0  0  0  0
   21.0911   17.4884   22.6144 O   0  0  0  0  0  0  0  0  0  0  0  0
   21.7668   17.7597   23.2724 H   0  0  0  0  0  0  0  0  0  0  0  0
  1  2  1  0  0  0  0
  1  3  1  0  0  0  0
  1  4  1  0  0  0  0
  4  5  1  0  0  0  0
  4  6  1  0  0  0  0
  4  7  1  0  0  0  0
  7  8  1  0  0  0  0
  1  9  1  0  0  0  0
  7  9  1  0  0  0  0
  9 10  1  0  0  0  0
  9 11  1  0  0  0  0
  7 12  1  0  0  0  0
 12 13  1  0  0  0  0
M  END
> <VConfSearch Rank>
572

> <Conf_Id>
19

> <Delta U+W>
-0.011

> <U+W>
-3.142

> <U>
-0.154

> <W>
-2.989

> <W(PB)>
-4.588

> <W(SA)>
1.599

> <Valence>
6.334

> <Coulomb>
-7.439

> <VdW>
0.951

> <VdW6>
-2.120

> <VdW12>
3.072

> <Bond>
0.065

> <Angle>
0.930

> <Pdih>
5.339

> <Idih>
0.000

> <Tether>
0.000

$$$$
VeraChem MOL file


 13 13  0  0  0  0  0  0  0  0999 V2000     
   20.1323   19.5811   21.2855 C   0  0  0  0  0  0  0  0  0  0  0  0
   20.9630   19.5471   20.5708 H   0  0  0  0  0  0  0  0  0  0  0  0
   19.4267   20.3594   20.9668 H   0  0  0  0  0  0  0  0  0  0  0  0
   20.5277   19.6430   22.7984 C   0  0  0  0  0  0  0  0  0  0  0  0
   21.4681   19.1350   23.0440 H   0  0  0  0  0  0  0  0  0  0  0  0
   20.5390   20.6401   23.2524 H   0  0  0  0  0  0  0  0  0  0  0  0
   19.2500   18.7891   23.0695 C   0  0  0  0  0  0  0  0  0  0  0  0
   19.3521   18.0592   23.8829 H   0  0  0  0  0  0  0  0  0  0  0  0
   19.4703   18.2077   21.6378 C   0  0  0  0  0  0  0  0  0  0  0  0
   18.5633   17.9540   21.0781 H   0  0  0  0  0  0  0  0  0  0  0  0
   20.1546   17.3514   21.6016 H   0  0  0  0  0  0  0  0  0  0  0  0
   18.0604   19.5346   23.2349 O   0  0  0  0  0  0  0  0  0  0  0  0
   17.3142   18.8980   23.2215 H   0  0  0  0  0  0  0  0  0  0  0  0
  1  2  1  0  0  0  0
  1  3  1  0  0  0  0
  1  4  1  0  0  0  0
  4  5  1  0  0  0  0
  4  6  1  0  0  0  0
  4  7  1  0  0  0  0
  7  8  1  0  0  0  0
  1  9  1  0  0  0  0
  7  9  1  0  0  0  0
  9 10  1  0  0  0  0
  9 11  1  0  0  0  0
  7 12  1  0  0  0  0
 12 13  1  0  0  0  0
M  END
> <VConfSearch Rank>
573

> <Conf_Id>
20

> <Delta U+W>
1.030

> <U+W>
-2.101

> <U>
0.841

> <W>
-2.942

> <W(PB)>
-4.530

> <W(SA)>
1.587

> <Valence>
6.736

> <Coulomb>
-7.246

> <VdW>
1.352

> <VdW6>
-2.500

> <VdW12>
3.851

> <Bond>
0.063

> <Angle>
0.687

> <Pdih>
5.986

> <Idih>
0.000

> <Tether>
0.000

$$$$
VeraChem MOL file


 13 13  0  0  0  0  0  0  0  0999 V2000     
   20.9969   19.2215   22.3027 C   0  0  0  0  0  0  0  0  0  0  0  0
   21.6613   18.8558   21.5087 H   0  0  0  0  0  0  0  0  0  0  0  0
   21.5987   19.7683   23.0384 H   0  0  0  0  0  0  0  0  0  0  0  0
   20.0146   18.1490   22.8792 C   0  0  0  0  0  0  0  0  0  0  0  0
   20.3841   17.1178   22.8988 H   0  0  0  0  0  0  0  0  0  0  0  0
   19.5983   18.3925   23.8644 H   0  0  0  0  0  0  0  0  0  0  0  0
   19.0993   18.5170   21.6725 C   0  0  0  0  0  0  0  0  0  0  0  0
   19.3641   17.9997   20.7403 H   0  0  0  0  0  0  0  0  0  0  0  0
   19.7075   19.9469   21.7942 C   0  0  0  0  0  0  0  0  0  0  0  0
   19.2225   20.5922   22.5370 H   0  0  0  0  0  0  0  0  0  0  0  0
   19.8058   20.5035   20.8557 H   0  0  0  0  0  0  0  0  0  0  0  0
   17.7154   18.4263   21.9138 O   0  0  0  0  0  0  0  0  0  0  0  0
   17.5402   18.9024   22.7524 H   0  0  0  0  0  0  0  0  0  0  0  0
  1  2  1  0  0  0  0
  1  3  1  0  0  0  0
  1  4  1  0  0  0  0
  4  5  1  0  0  0  0
  4  6  1  0  0  0  0
  4  7  1  0  0  0  0
  7  8  1  0  0  0  0
  1  9  1  0  0  0  0
  7  9  1  0  0  0  0
  9 10  1  0  0  0  0
  9 11  1  0  0  0  0
  7 12  1  0  0  0  0
 12 13  1  0  0  0  0
M  END
> <VConfSearch Rank>
574

> <Conf_Id>
24

> <Delta U+W>
0.356

> <U+W>
-2.775

> <U>
-0.184

> <W>
-2.591

> <W(PB)>
-4.184

> <W(SA)>
1.593

> <Valence>
6.840

> <Coulomb>
-7.916

> <VdW>
0.893

> <VdW6>
-2.167

> <VdW12>
3.060

> <Bond>
0.059

> <Angle>
0.918

> <Pdih>
5.862

> <Idih>
0.000

> <Tether>
0.000

$$$$
VeraChem MOL file


 13 13  0  0  0  0  0  0  0  0999 V2000     
   19.6240   20.0328   21.8447 C   0  0  0  0  0  0  0  0  0  0  0  0
   19.2864   21.0508   22.0731 H   0  0  0  0  0  0  0  0  0  0  0  0
   20.0898   20.0369   20.8510 H   0  0  0  0  0  0  0  0  0  0  0  0
   18.5732   18.8957   22.0746 C   0  0  0  0  0  0  0  0  0  0  0  0
   17.8555   19.0977   22.8791 H   0  0  0  0  0  0  0  0  0  0  0  0
   18.0195   18.5632   21.1894 H   0  0  0  0  0  0  0  0  0  0  0  0
   19.7747   17.9981   22.5043 C   0  0  0  0  0  0  0  0  0  0  0  0
   19.5547   17.2904   23.3138 H   0  0  0  0  0  0  0  0  0  0  0  0
   20.4606   19.3229   22.9610 C   0  0  0  0  0  0  0  0  0  0  0  0
   20.2056   19.6295   23.9828 H   0  0  0  0  0  0  0  0  0  0  0  0
   21.5498   19.3621   22.8474 H   0  0  0  0  0  0  0  0  0  0  0  0
   20.4239   17.3310   21.4435 O   0  0  0  0  0  0  0  0  0  0  0  0
   20.5941   18.0068   20.7553 H   0  0  0  0  0  0  0  0  0  0  0  0
  1  2  1  0  0  0  0
  1  3  1  0  0  0  0
  1  4  1  0  0  0  0
  4  5  1  0  0  0  0
  4  6  1  0  0  0  0
  4  7  1  0  0  0  0
  7  8  1  0  0  0  0
  1  9  1  0  0  0  0
  7  9  1  0  0  0  0
  9 10  1  0  0  0  0
  9 11  1  0  0  0  0
  7 12  1  0  0  0  0
 12 13  1  0  0  0  0
M  END
> <VConfSearch Rank>
575

> <Conf_Id>
44

> <Delta U+W>
0.823

> <U+W>
-2.308

> <U>
0.039

> <W>
-2.348

> <W(PB)>
-3.918

> <W(SA)>
1.571

> <Valence>
7.320

> <Coulomb>
-8.530

> <VdW>
1.249

> <VdW6>
-2.615

> <VdW12>
3.864

> <Bond>
0.056

> <Angle>
0.694

> <Pdih>
6.570

> <Idih>
0.000

> <Tether>
0.000

$$$$
VeraChem MOL file


 13 13  0  0  0  0  0  0  0  0999 V2000     
   20.6010   18.3129   21.6683 C   0  0  0  0  0  0  0  0  0  0  0  0
   20.3222   17.2570   21.5546 H   0  0  0  0  0  0  0  0  0  0  0  0
   21.5836   18.4675   21.2070 H   0  0  0  0  0  0  0  0  0  0  0  0
   20.4229   18.8848   23.1135 C   0  0  0  0  0  0  0  0  0  0  0  0
   20.5880   18.1805   23.9361 H   0  0  0  0  0  0  0  0  0  0  0  0
   20.9867   19.8037   23.3171 H   0  0  0  0  0  0  0  0  0  0  0  0
   18.9361   19.1162   22.7077 C   0  0  0  0  0  0  0  0  0  0  0  0
   18.3037   18.2243   22.8156 H   0  0  0  0  0  0  0  0  0  0  0  0
   19.4846   19.3319   21.2649 C   0  0  0  0  0  0  0  0  0  0  0  0
   18.8209   19.0225   20.4500 H   0  0  0  0  0  0  0  0  0  0  0  0
   19.8440   20.3483   21.0611 H   0  0  0  0  0  0  0  0  0  0  0  0
   18.3200   20.2400   23.2926 O   0  0  0  0  0  0  0  0  0  0  0  0
   17.4590   20.3682   22.8395 H   0  0  0  0  0  0  0  0  0  0  0  0
  1  2  1  0  0  0  0
  1  3  1  0  0  0  0
  1  4  1  0  0  0  0
  4  5  1  0  0  0  0
  4  6  1  0  0  0  0
  4  7  1  0  0  0  0
  7  8  1  0  0  0  0
  1  9  1  0  0  0  0
  7  9  1  0  0  0  0
  9 10  1  0  0  0  0
  9 11  1  0  0  0  0
  7 12  1  0  0  0  0
 12 13  1  0  0  0  0
M  END
> <VConfSearch Rank>
576

> <Conf_Id>
22

> <Delta U+W>
0.000

> <U+W>
-3.131

> <U>
-0.154

> <W>
-2.978

> <W(PB)>
-4.579

> <W(SA)>
1.601

> <Valence>
6.333

> <Coulomb>
-7.439

> <VdW>
0.952

> <VdW6>
-2.120

> <VdW12>
3.072

> <Bond>
0.065

> <Angle>
0.931

> <Pdih>
5.338

> <Idih>
0.000

> <Tether>
0.000

$$$$
VeraChem MOL file


 13 13  0  0  0  0  0  0  0  0999 V2000     
   18.9862   18.5452   21.1584 C   0  0  0  0  0  0  0  0  0  0  0  0
   18.0385   19.0774   21.0027 H   0  0  0  0  0  0  0  0  0  0  0  0
   19.1004   17.7943   20.3675 H   0  0  0  0  0  0  0  0  0  0  0  0
   19.2228   18.0438   22.6212 C   0  0  0  0  0  0  0  0  0  0  0  0
   19.9759   17.2518   22.7178 H   0  0  0  0  0  0  0  0  0  0  0  0
   18.3281   17.7499   23.1809 H   0  0  0  0  0  0  0  0  0  0  0  0
   19.7562   19.4818   22.8983 C   0  0  0  0  0  0  0  0  0  0  0  0
   18.9675   20.2169   23.1095 H   0  0  0  0  0  0  0  0  0  0  0  0
   20.2222   19.4702   21.4111 C   0  0  0  0  0  0  0  0  0  0  0  0
   21.1957   18.9928   21.2437 H   0  0  0  0  0  0  0  0  0  0  0  0
   20.2130   20.4398   20.9015 H   0  0  0  0  0  0  0  0  0  0  0  0
   20.7890   19.5681   23.8524 O   0  0  0  0  0  0  0  0  0  0  0  0
   20.3867   19.4023   24.7321 H   0  0  0  0  0  0  0  0  0  0  0  0
  1  2  1  0  0  0  0
  1  3  1  0  0  0  0
  1  4  1  0  0  0  0
  4  5  1  0  0  0  0
  4  6  1  0  0  0  0
  4  7  1  0  0  0  0
  7  8  1  0  0  0  0
  1  9  1  0  0  0  0
  7  9  1  0  0  0  0
  9 10  1  0  0  0  0
  9 11  1  0  0  0  0
  7 12  1  0  0  0  0
 12 13  1  0  0  0  0
M  END
> <VConfSearch Rank>
577

> <Conf_Id>
19

> <Delta U+W>
-0.011

> <U+W>
-3.142

> <U>
-0.154

> <W>
-2.989

> <W(PB)>
-4.588

> <W(SA)>
1.599

> <Valence>
6.334

> <Coulomb>
-7.439

> <VdW>
0.951

> <VdW6>
-2.120

> <VdW12>
3.072

> <Bond>
0.065

> <Angle>
0.930

> <Pdih>
5.339

> <Idih>
0.000

> <Tether>
0.000

$$$$
VeraChem MOL file


 13 13  0  0  0  0  0  0  0  0999 V2000     
   18.9508   18.0889   21.9311 C   0  0  0  0  0  0  0  0  0  0  0  0
   18.9392   17.1583   21.3517 H   0  0  0  0  0  0  0  0  0  0  0  0
   17.9945   18.1840   22.4619 H   0  0  0  0  0  0  0  0  0  0  0  0
   19.3957   19.3753   21.1588 C   0  0  0  0  0  0  0  0  0  0  0  0
   20.1220   19.1961   20.3569 H   0  0  0  0  0  0  0  0  0  0  0  0
   18.5889   20.0044   20.7669 H   0  0  0  0  0  0  0  0  0  0  0  0
   20.0315   19.8476   22.5035 C   0  0  0  0  0  0  0  0  0  0  0  0
   20.9670   20.4111   22.3937 H   0  0  0  0  0  0  0  0  0  0  0  0
   20.2153   18.3305   22.8207 C   0  0  0  0  0  0  0  0  0  0  0  0
   20.1226   18.0459   23.8747 H   0  0  0  0  0  0  0  0  0  0  0  0
   21.1405   17.8974   22.4216 H   0  0  0  0  0  0  0  0  0  0  0  0
   19.1506   20.5362   23.3684 O   0  0  0  0  0  0  0  0  0  0  0  0
   19.6029   20.6239   24.2343 H   0  0  0  0  0  0  0  0  0  0  0  0
  1  2  1  0  0  0  0
  1  3  1  0  0  0  0
  1  4  1  0  0  0  0
  4  5  1  0  0  0  0
  4  6  1  0  0  0  0
  4  7  1  0  0  0  0
  7  8  1  0  0  0  0
  1  9  1  0  0  0  0
  7  9  1  0  0  0  0
  9 10  1  0  0  0  0
  9 11  1  0  0  0  0
  7 12  1  0  0  0  0
 12 13  1  0  0  0  0
M  END
> <VConfSearch Rank>
578

> <Conf_Id>
20

> <Delta U+W>
1.030

> <U+W>
-2.101

> <U>
0.841

> <W>
-2.942

> <W(PB)>
-4.530

> <W(SA)>
1.587

> <Valence>
6.736

> <Coulomb>
-7.246

> <VdW>
1.352

> <VdW6>
-2.500

> <VdW12>
3.851

> <Bond>
0.063

> <Angle>
0.687

> <Pdih>
5.986

> <Idih>
0.000

> <Tether>
0.000

$$$$
VeraChem MOL file


 13 13  0  0  0  0  0  0  0  0999 V2000     
   19.9057   17.7029   21.9796 C   0  0  0  0  0  0  0  0  0  0  0  0
   19.6324   16.9927   22.7712 H   0  0  0  0  0  0  0  0  0  0  0  0
   20.2761   17.1384   21.1156 H   0  0  0  0  0  0  0  0  0  0  0  0
   20.7969   18.8985   22.4527 C   0  0  0  0  0  0  0  0  0  0  0  0
   21.4952   18.6856   23.2696 H   0  0  0  0  0  0  0  0  0  0  0  0
   21.3408   19.4097   21.6489 H   0  0  0  0  0  0  0  0  0  0  0  0
   19.4552   19.5742   22.8681 C   0  0  0  0  0  0  0  0  0  0  0  0
   19.0848   19.2579   23.8527 H   0  0  0  0  0  0  0  0  0  0  0  0
   18.8245   18.7922   21.6765 C   0  0  0  0  0  0  0  0  0  0  0  0
   18.9277   19.2797   20.6992 H   0  0  0  0  0  0  0  0  0  0  0  0
   17.7810   18.4855   21.8079 H   0  0  0  0  0  0  0  0  0  0  0  0
   19.4245   20.9771   22.7543 O   0  0  0  0  0  0  0  0  0  0  0  0
   19.7637   21.1984   21.8618 H   0  0  0  0  0  0  0  0  0  0  0  0
  1  2  1  0  0  0  0
  1  3  1  0  0  0  0
  1  4  1  0  0  0  0
  4  5  1  0  0  0  0
  4  6  1  0  0  0  0
  4  7  1  0  0  0  0
  7  8  1  0  0  0  0
  1  9  1  0  0  0  0
  7  9  1  0  0  0  0
  9 10  1  0  0  0  0
  9 11  1  0  0  0  0
  7 12  1  0  0  0  0
 12 13  1  0  0  0  0
M  END
> <VConfSearch Rank>
579

> <Conf_Id>
24

> <Delta U+W>
0.356

> <U+W>
-2.775

> <U>
-0.184

> <W>
-2.591

> <W(PB)>
-4.184

> <W(SA)>
1.593

> <Valence>
6.840

> <Coulomb>
-7.916

> <VdW>
0.893

> <VdW6>
-2.167

> <VdW12>
3.060

> <Bond>
0.059

> <Angle>
0.918

> <Pdih>
5.862

> <Idih>
0.000

> <Tether>
0.000

$$$$
VeraChem MOL file


 13 13  0  0  0  0  0  0  0  0999 V2000     
   19.8146   19.9048   22.8246 C   0  0  0  0  0  0  0  0  0  0  0  0
   19.3674   20.5546   23.5862 H   0  0  0  0  0  0  0  0  0  0  0  0
   20.7830   20.3298   22.5317 H   0  0  0  0  0  0  0  0  0  0  0  0
   18.8824   19.5067   21.6318 C   0  0  0  0  0  0  0  0  0  0  0  0
   17.8182   19.4440   21.8896 H   0  0  0  0  0  0  0  0  0  0  0  0
   18.9849   20.1033   20.7185 H   0  0  0  0  0  0  0  0  0  0  0  0
   19.6198   18.1318   21.6344 C   0  0  0  0  0  0  0  0  0  0  0  0
   18.9862   17.2688   21.3930 H   0  0  0  0  0  0  0  0  0  0  0  0
   19.8408   18.3759   23.1593 C   0  0  0  0  0  0  0  0  0  0  0  0
   19.0115   18.0360   23.7916 H   0  0  0  0  0  0  0  0  0  0  0  0
   20.7774   17.9883   23.5756 H   0  0  0  0  0  0  0  0  0  0  0  0
   20.8017   18.0929   20.8641 O   0  0  0  0  0  0  0  0  0  0  0  0
   21.3240   18.8810   21.1198 H   0  0  0  0  0  0  0  0  0  0  0  0
  1  2  1  0  0  0  0
  1  3  1  0  0  0  0
  1  4  1  0  0  0  0
  4  5  1  0  0  0  0
  4  6  1  0  0  0  0
  4  7  1  0  0  0  0
  7  8  1  0  0  0  0
  1  9  1  0  0  0  0
  7  9  1  0  0  0  0
  9 10  1  0  0  0  0
  9 11  1  0  0  0  0
  7 12  1  0  0  0  0
 12 13  1  0  0  0  0
M  END
> <VConfSearch Rank>
580

> <Conf_Id>
44

> <Delta U+W>
0.823

> <U+W>
-2.308

> <U>
0.039

> <W>
-2.348

> <W(PB)>
-3.918

> <W(SA)>
1.571

> <Valence>
7.320

> <Coulomb>
-8.530

> <VdW>
1.249

> <VdW6>
-2.615

> <VdW12>
3.864

> <Bond>
0.056

> <Angle>
0.694

> <Pdih>
6.570

> <Idih>
0.000

> <Tether>
0.000

$$$$
VeraChem MOL file


 13 13  0  0  0  0  0  0  0  0999 V2000     
   18.5650   18.7329   22.9044 C   0  0  0  0  0  0  0  0  0  0  0  0
   18.6130   17.7551   23.4016 H   0  0  0  0  0  0  0  0  0  0  0  0
   17.6046   19.2028   23.1476 H   0  0  0  0  0  0  0  0  0  0  0  0
   18.9582   18.7172   21.3903 C   0  0  0  0  0  0  0  0  0  0  0  0
   18.7111   17.8054   20.8359 H   0  0  0  0  0  0  0  0  0  0  0  0
   18.6103   19.5847   20.8159 H   0  0  0  0  0  0  0  0  0  0  0  0
   20.4284   18.8254   21.8961 C   0  0  0  0  0  0  0  0  0  0  0  0
   20.8709   17.8608   22.1806 H   0  0  0  0  0  0  0  0  0  0  0  0
   19.8348   19.6268   23.0939 C   0  0  0  0  0  0  0  0  0  0  0  0
   20.3617   19.5199   24.0484 H   0  0  0  0  0  0  0  0  0  0  0  0
   19.6775   20.6942   22.8949 H   0  0  0  0  0  0  0  0  0  0  0  0
   21.3012   19.5491   21.0601 O   0  0  0  0  0  0  0  0  0  0  0  0
   22.1359   19.6837   21.5584 H   0  0  0  0  0  0  0  0  0  0  0  0
  1  2  1  0  0  0  0
  1  3  1  0  0  0  0
  1  4  1  0  0  0  0
  4  5  1  0  0  0  0
  4  6  1  0  0  0  0
  4  7  1  0  0  0  0
  7  8  1  0  0  0  0
  1  9  1  0  0  0  0
  7  9  1  0  0  0  0
  9 10  1  0  0  0  0
  9 11  1  0  0  0  0
  7 12  1  0  0  0  0
 12 13  1  0  0  0  0
M  END
> <VConfSearch Rank>
581

> <Conf_Id>
22

> <Delta U+W>
0.000

> <U+W>
-3.131

> <U>
-0.154

> <W>
-2.978

> <W(PB)>
-4.579

> <W(SA)>
1.601

> <Valence>
6.333

> <Coulomb>
-7.439

> <VdW>
0.952

> <VdW6>
-2.120

> <VdW12>
3.072

> <Bond>
0.065

> <Angle>
0.931

> <Pdih>
5.338

> <Idih>
0.000

> <Tether>
0.000

$$$$
VeraChem MOL file


 13 13  0  0  0  0  0  0  0  0999 V2000     
   20.9018   18.6398   22.0445 C   0  0  0  0  0  0  0  0  0  0  0  0
   21.5871   19.2465   22.6510 H   0  0  0  0  0  0  0  0  0  0  0  0
   21.4949   17.9886   21.3915 H   0  0  0  0  0  0  0  0  0  0  0  0
   19.7531   19.4449   21.3520 C   0  0  0  0  0  0  0  0  0  0  0  0
   19.2774   18.9302   20.5079 H   0  0  0  0  0  0  0  0  0  0  0  0
   19.9970   20.4690   21.0486 H   0  0  0  0  0  0  0  0  0  0  0  0
   18.9984   19.2990   22.7079 C   0  0  0  0  0  0  0  0  0  0  0  0
   19.2839   20.0473   23.4599 H   0  0  0  0  0  0  0  0  0  0  0  0
   19.7556   17.9443   22.8507 C   0  0  0  0  0  0  0  0  0  0  0  0
   19.2785   17.1007   22.3367 H   0  0  0  0  0  0  0  0  0  0  0  0
   19.9997   17.6408   23.8745 H   0  0  0  0  0  0  0  0  0  0  0  0
   17.5967   19.1980   22.6097 O   0  0  0  0  0  0  0  0  0  0  0  0
   17.2580   20.0853   22.3623 H   0  0  0  0  0  0  0  0  0  0  0  0
  1  2  1  0  0  0  0
  1  3  1  0  0  0  0
  1  4  1  0  0  0  0
  4  5  1  0  0  0  0
  4  6  1  0  0  0  0
  4  7  1  0  0  0  0
  7  8  1  0  0  0  0
  1  9  1  0  0  0  0
  7  9  1  0  0  0  0
  9 10  1  0  0  0  0
  9 11  1  0  0  0  0
  7 12  1  0  0  0  0
 12 13  1  0  0  0  0
M  END
> <VConfSearch Rank>
582

> <Conf_Id>
19

> <Delta U+W>
-0.011

> <U+W>
-3.142

> <U>
-0.154

> <W>
-2.989

> <W(PB)>
-4.588

> <W(SA)>
1.599

> <Valence>
6.334

> <Coulomb>
-7.439

> <VdW>
0.951

> <VdW6>
-2.120

> <VdW12>
3.072

> <Bond>
0.065

> <Angle>
0.930

> <Pdih>
5.339

> <Idih>
0.000

> <Tether>
0.000

$$$$
VeraChem MOL file


 13 13  0  0  0  0  0  0  0  0999 V2000     
   18.9289   19.0042   21.2703 C   0  0  0  0  0  0  0  0  0  0  0  0
   18.8143   19.3489   20.2359 H   0  0  0  0  0  0  0  0  0  0  0  0
   18.1323   18.2813   21.4897 H   0  0  0  0  0  0  0  0  0  0  0  0
   19.1089   20.1205   22.3521 C   0  0  0  0  0  0  0  0  0  0  0  0
   19.6190   21.0230   21.9942 H   0  0  0  0  0  0  0  0  0  0  0  0
   18.2025   20.4202   22.8898 H   0  0  0  0  0  0  0  0  0  0  0  0
   20.0388   19.1142   23.0991 C   0  0  0  0  0  0  0  0  0  0  0  0
   20.8912   19.5754   23.6144 H   0  0  0  0  0  0  0  0  0  0  0  0
   20.3635   18.5372   21.6857 C   0  0  0  0  0  0  0  0  0  0  0  0
   20.5499   17.4586   21.6388 H   0  0  0  0  0  0  0  0  0  0  0  0
   21.1780   19.0558   21.1654 H   0  0  0  0  0  0  0  0  0  0  0  0
   19.3722   18.2220   23.9697 O   0  0  0  0  0  0  0  0  0  0  0  0
   20.0222   17.5385   24.2389 H   0  0  0  0  0  0  0  0  0  0  0  0
  1  2  1  0  0  0  0
  1  3  1  0  0  0  0
  1  4  1  0  0  0  0
  4  5  1  0  0  0  0
  4  6  1  0  0  0  0
  4  7  1  0  0  0  0
  7  8  1  0  0  0  0
  1  9  1  0  0  0  0
  7  9  1  0  0  0  0
  9 10  1  0  0  0  0
  9 11  1  0  0  0  0
  7 12  1  0  0  0  0
 12 13  1  0  0  0  0
M  END
> <VConfSearch Rank>
583

> <Conf_Id>
20

> <Delta U+W>
1.030

> <U+W>
-2.101

> <U>
0.841

> <W>
-2.942

> <W(PB)>
-4.530

> <W(SA)>
1.587

> <Valence>
6.736

> <Coulomb>
-7.246

> <VdW>
1.352

> <VdW6>
-2.500

> <VdW12>
3.851

> <Bond>
0.063

> <Angle>
0.687

> <Pdih>
5.986

> <Idih>
0.000

> <Tether>
0.000

$$$$
VeraChem MOL file


 13 13  0  0  0  0  0  0  0  0999 V2000     
   20.4868   19.7902   21.5838 C   0  0  0  0  0  0  0  0  0  0  0  0
   19.9953   20.5258   20.9335 H   0  0  0  0  0  0  0  0  0  0  0  0
   21.5702   19.9542   21.5413 H   0  0  0  0  0  0  0  0  0  0  0  0
   20.0066   18.3150   21.3824 C   0  0  0  0  0  0  0  0  0  0  0  0
   19.7064   18.0403   20.3651 H   0  0  0  0  0  0  0  0  0  0  0  0
   20.6976   17.5529   21.7633 H   0  0  0  0  0  0  0  0  0  0  0  0
   18.8458   18.6900   22.3525 C   0  0  0  0  0  0  0  0  0  0  0  0
   18.0030   19.1957   21.8620 H   0  0  0  0  0  0  0  0  0  0  0  0
   19.8665   19.6642   23.0145 C   0  0  0  0  0  0  0  0  0  0  0  0
   20.5261   19.2037   23.7602 H   0  0  0  0  0  0  0  0  0  0  0  0
   19.4426   20.5811   23.4386 H   0  0  0  0  0  0  0  0  0  0  0  0
   18.3855   17.6455   23.1764 O   0  0  0  0  0  0  0  0  0  0  0  0
   19.1762   17.2342   23.5843 H   0  0  0  0  0  0  0  0  0  0  0  0
  1  2  1  0  0  0  0
  1  3  1  0  0  0  0
  1  4  1  0  0  0  0
  4  5  1  0  0  0  0
  4  6  1  0  0  0  0
  4  7  1  0  0  0  0
  7  8  1  0  0  0  0
  1  9  1  0  0  0  0
  7  9  1  0  0  0  0
  9 10  1  0  0  0  0
  9 11  1  0  0  0  0
  7 12  1  0  0  0  0
 12 13  1  0  0  0  0
M  END
> <VConfSearch Rank>
584

> <Conf_Id>
24

> <Delta U+W>
0.356

> <U+W>
-2.775

> <U>
-0.184

> <W>
-2.591

> <W(PB)>
-4.184

> <W(SA)>
1.593

> <Valence>
6.840

> <Coulomb>
-7.916

> <VdW>
0.893

> <VdW6>
-2.167

> <VdW12>
3.060

> <Bond>
0.059

> <Angle>
0.918

> <Pdih>
5.862

> <Idih>
0.000

> <Tether>
0.000

$$$$
VeraChem MOL file


 13 13  0  0  0  0  0  0  0  0999 V2000     
   19.3595   20.0020   21.9079 C   0  0  0  0  0  0  0  0  0  0  0  0
   19.6577   20.9587   21.4627 H   0  0  0  0  0  0  0  0  0  0  0  0
   18.2968   20.0605   22.1754 H   0  0  0  0  0  0  0  0  0  0  0  0
   20.2935   19.4523   23.0374 C   0  0  0  0  0  0  0  0  0  0  0  0
   21.3481   19.7342   22.9307 H   0  0  0  0  0  0  0  0  0  0  0  0
   19.9802   19.6592   24.0668 H   0  0  0  0  0  0  0  0  0  0  0  0
   19.9574   18.0284   22.4956 C   0  0  0  0  0  0  0  0  0  0  0  0
   20.7858   17.3101   22.5429 H   0  0  0  0  0  0  0  0  0  0  0  0
   19.7679   18.7191   21.1095 C   0  0  0  0  0  0  0  0  0  0  0  0
   20.6936   18.8212   20.5302 H   0  0  0  0  0  0  0  0  0  0  0  0
   18.9971   18.2878   20.4610 H   0  0  0  0  0  0  0  0  0  0  0  0
   18.7874   17.4515   23.0340 O   0  0  0  0  0  0  0  0  0  0  0  0
   18.0870   18.1328   22.9658 H   0  0  0  0  0  0  0  0  0  0  0  0
  1  2  1  0  0  0  0
  1  3  1  0  0  0  0
  1  4  1  0  0  0  0
  4  5  1  0  0  0  0
  4  6  1  0  0  0  0
  4  7  1  0  0  0  0
  7  8  1  0  0  0  0
  1  9  1  0  0  0  0
  7  9  1  0  0  0  0
  9 10  1  0  0  0  0
  9 11  1  0  0  0  0
  7 12  1  0  0  0  0
 12 13  1  0  0  0  0
M  END
> <VConfSearch Rank>
585

> <Conf_Id>
44

> <Delta U+W>
0.823

> <U+W>
-2.308

> <U>
0.039

> <W>
-2.348

> <W(PB)>
-3.918

> <W(SA)>
1.571

> <Valence>
7.320

> <Coulomb>
-8.530

> <VdW>
1.249

> <VdW6>
-2.615

> <VdW12>
3.864

> <Bond>
0.056

> <Angle>
0.694

> <Pdih>
6.570

> <Idih>
0.000

> <Tether>
0.000

$$$$
VeraChem MOL file


 13 13  0  0  0  0  0  0  0  0999 V2000     
   20.1011   18.0964   23.0590 C   0  0  0  0  0  0  0  0  0  0  0  0
   20.0585   17.0913   22.6192 H   0  0  0  0  0  0  0  0  0  0  0  0
   20.5528   18.0240   24.0555 H   0  0  0  0  0  0  0  0  0  0  0  0
   18.7669   18.9082   22.9668 C   0  0  0  0  0  0  0  0  0  0  0  0
   17.8413   18.3246   23.0168 H   0  0  0  0  0  0  0  0  0  0  0  0
   18.6917   19.7499   23.6663 H   0  0  0  0  0  0  0  0  0  0  0  0
   19.2453   19.2987   21.5359 C   0  0  0  0  0  0  0  0  0  0  0  0
   19.0191   18.5425   20.7716 H   0  0  0  0  0  0  0  0  0  0  0  0
   20.6881   19.1988   22.1169 C   0  0  0  0  0  0  0  0  0  0  0  0
   21.4639   18.8712   21.4162 H   0  0  0  0  0  0  0  0  0  0  0  0
   21.0360   20.1033   22.6314 H   0  0  0  0  0  0  0  0  0  0  0  0
   18.8583   20.5813   21.1006 O   0  0  0  0  0  0  0  0  0  0  0  0
   19.3499   20.7677   20.2719 H   0  0  0  0  0  0  0  0  0  0  0  0
  1  2  1  0  0  0  0
  1  3  1  0  0  0  0
  1  4  1  0  0  0  0
  4  5  1  0  0  0  0
  4  6  1  0  0  0  0
  4  7  1  0  0  0  0
  7  8  1  0  0  0  0
  1  9  1  0  0  0  0
  7  9  1  0  0  0  0
  9 10  1  0  0  0  0
  9 11  1  0  0  0  0
  7 12  1  0  0  0  0
 12 13  1  0  0  0  0
M  END
> <VConfSearch Rank>
586

> <Conf_Id>
22

> <Delta U+W>
0.000

> <U+W>
-3.131

> <U>
-0.154

> <W>
-2.978

> <W(PB)>
-4.579

> <W(SA)>
1.601

> <Valence>
6.333

> <Coulomb>
-7.439

> <VdW>
0.952

> <VdW6>
-2.120

> <VdW12>
3.072

> <Bond>
0.065

> <Angle>
0.931

> <Pdih>
5.338

> <Idih>
0.000

> <Tether>
0.000

$$$$
VeraChem MOL file


 13 13  0  0  0  0  0  0  0  0999 V2000     
   19.0300   18.1684   21.3468 C   0  0  0  0  0  0  0  0  0  0  0  0
   19.4319   17.1478   21.2974 H   0  0  0  0  0  0  0  0  0  0  0  0
   18.2581   18.2787   20.5758 H   0  0  0  0  0  0  0  0  0  0  0  0
   20.1126   19.2964   21.4015 C   0  0  0  0  0  0  0  0  0  0  0  0
   19.7493   20.2938   21.1240 H   0  0  0  0  0  0  0  0  0  0  0  0
   21.0442   19.0972   20.8606 H   0  0  0  0  0  0  0  0  0  0  0  0
   20.1451   19.0228   22.9355 C   0  0  0  0  0  0  0  0  0  0  0  0
   20.7842   18.1770   23.2241 H   0  0  0  0  0  0  0  0  0  0  0  0
   18.6397   18.6492   22.7833 C   0  0  0  0  0  0  0  0  0  0  0  0
   17.9540   19.5052   22.8113 H   0  0  0  0  0  0  0  0  0  0  0  0
   18.2688   17.8782   23.4674 H   0  0  0  0  0  0  0  0  0  0  0  0
   20.4081   20.1468   23.7428 O   0  0  0  0  0  0  0  0  0  0  0  0
   21.3560   20.3728   23.6266 H   0  0  0  0  0  0  0  0  0  0  0  0
  1  2  1  0  0  0  0
  1  3  1  0  0  0  0
  1  4  1  0  0  0  0
  4  5  1  0  0  0  0
  4  6  1  0  0  0  0
  4  7  1  0  0  0  0
  7  8  1  0  0  0  0
  1  9  1  0  0  0  0
  7  9  1  0  0  0  0
  9 10  1  0  0  0  0
  9 11  1  0  0  0  0
  7 12  1  0  0  0  0
 12 13  1  0  0  0  0
M  END
> <VConfSearch Rank>
587

> <Conf_Id>
19

> <Delta U+W>
-0.011

> <U+W>
-3.142

> <U>
-0.154

> <W>
-2.989

> <W(PB)>
-4.588

> <W(SA)>
1.599

> <Valence>
6.334

> <Coulomb>
-7.439

> <VdW>
0.951

> <VdW6>
-2.120

> <VdW12>
3.072

> <Bond>
0.065

> <Angle>
0.930

> <Pdih>
5.339

> <Idih>
0.000

> <Tether>
0.000

$$$$
VeraChem MOL file


 13 13  0  0  0  0  0  0  0  0999 V2000     
   20.7958   19.1102   22.6816 C   0  0  0  0  0  0  0  0  0  0  0  0
   21.6571   18.5272   23.0282 H   0  0  0  0  0  0  0  0  0  0  0  0
   21.0930   20.1644   22.6057 H   0  0  0  0  0  0  0  0  0  0  0  0
   19.4496   18.8680   23.4418 C   0  0  0  0  0  0  0  0  0  0  0  0
   19.3264   17.8523   23.8367 H   0  0  0  0  0  0  0  0  0  0  0  0
   19.2097   19.5841   24.2356 H   0  0  0  0  0  0  0  0  0  0  0  0
   18.7422   19.1118   22.0723 C   0  0  0  0  0  0  0  0  0  0  0  0
   17.8472   18.4988   21.9046 H   0  0  0  0  0  0  0  0  0  0  0  0
   20.0479   18.5532   21.4249 C   0  0  0  0  0  0  0  0  0  0  0  0
   20.3325   18.9928   20.4626 H   0  0  0  0  0  0  0  0  0  0  0  0
   20.0704   17.4607   21.3307 H   0  0  0  0  0  0  0  0  0  0  0  0
   18.4627   20.4662   21.7800 O   0  0  0  0  0  0  0  0  0  0  0  0
   18.1873   20.5098   20.8395 H   0  0  0  0  0  0  0  0  0  0  0  0
  1  2  1  0  0  0  0
  1  3  1  0  0  0  0
  1  4  1  0  0  0  0
  4  5  1  0  0  0  0
  4  6  1  0  0  0  0
  4  7  1  0  0  0  0
  7  8  1  0  0  0  0
  1  9  1  0  0  0  0
  7  9  1  0  0  0  0
  9 10  1  0  0  0  0
  9 11  1  0  0  0  0
  7 12  1  0  0  0  0
 12 13  1  0  0  0  0
M  END
> <VConfSearch Rank>
588

> <Conf_Id>
20

> <Delta U+W>
1.030

> <U+W>
-2.101

> <U>
0.841

> <W>
-2.942

> <W(PB)>
-4.530

> <W(SA)>
1.587

> <Valence>
6.736

> <Coulomb>
-7.246

> <VdW>
1.352

> <VdW6>
-2.500

> <VdW12>
3.851

> <Bond>
0.063

> <Angle>
0.687

> <Pdih>
5.986

> <Idih>
0.000

> <Tether>
0.000

$$$$
VeraChem MOL file


 13 13  0  0  0  0  0  0  0  0999 V2000     
   20.2522   18.3762   23.2390 C   0  0  0  0  0  0  0  0  0  0  0  0
   21.3459   18.2996   23.3008 H   0  0  0  0  0  0  0  0  0  0  0  0
   19.8177   17.9093   24.1309 H   0  0  0  0  0  0  0  0  0  0  0  0
   19.6424   17.9367   21.8670 C   0  0  0  0  0  0  0  0  0  0  0  0
   20.1712   17.1357   21.3388 H   0  0  0  0  0  0  0  0  0  0  0  0
   18.5737   17.6915   21.8989 H   0  0  0  0  0  0  0  0  0  0  0  0
   19.9677   19.3868   21.3972 C   0  0  0  0  0  0  0  0  0  0  0  0
   21.0067   19.5245   21.0681 H   0  0  0  0  0  0  0  0  0  0  0  0
   19.7158   19.8009   22.8785 C   0  0  0  0  0  0  0  0  0  0  0  0
   18.6635   19.9723   23.1366 H   0  0  0  0  0  0  0  0  0  0  0  0
   20.3095   20.6462   23.2437 H   0  0  0  0  0  0  0  0  0  0  0  0
   19.0735   19.9324   20.4567 O   0  0  0  0  0  0  0  0  0  0  0  0
   18.1688   19.7807   20.8019 H   0  0  0  0  0  0  0  0  0  0  0  0
  1  2  1  0  0  0  0
  1  3  1  0  0  0  0
  1  4  1  0  0  0  0
  4  5  1  0  0  0  0
  4  6  1  0  0  0  0
  4  7  1  0  0  0  0
  7  8  1  0  0  0  0
  1  9  1  0  0  0  0
  7  9  1  0  0  0  0
  9 10  1  0  0  0  0
  9 11  1  0  0  0  0
  7 12  1  0  0  0  0
 12 13  1  0  0  0  0
M  END
> <VConfSearch Rank>
589

> <Conf_Id>
24

> <Delta U+W>
0.356

> <U+W>
-2.775

> <U>
-0.184

> <W>
-2.591

> <W(PB)>
-4.184

> <W(SA)>
1.593

> <Valence>
6.840

> <Coulomb>
-7.916

> <VdW>
0.893

> <VdW6>
-2.167

> <VdW12>
3.060

> <Bond>
0.059

> <Angle>
0.918

> <Pdih>
5.862

> <Idih>
0.000

> <Tether>
0.000

$$$$
VeraChem MOL file


 13 13  0  0  0  0  0  0  0  0999 V2000     
   19.4919   18.8731   23.3119 C   0  0  0  0  0  0  0  0  0  0  0  0
   19.3662   18.1822   24.1541 H   0  0  0  0  0  0  0  0  0  0  0  0
   19.3758   19.8987   23.6847 H   0  0  0  0  0  0  0  0  0  0  0  0
   18.6632   18.5421   22.0260 C   0  0  0  0  0  0  0  0  0  0  0  0
   18.4750   17.4728   21.8706 H   0  0  0  0  0  0  0  0  0  0  0  0
   17.7174   19.0828   21.9082 H   0  0  0  0  0  0  0  0  0  0  0  0
   19.8730   19.0999   21.2140 C   0  0  0  0  0  0  0  0  0  0  0  0
   20.0730   18.5790   20.2689 H   0  0  0  0  0  0  0  0  0  0  0  0
   20.7535   18.6370   22.4159 C   0  0  0  0  0  0  0  0  0  0  0  0
   21.0778   17.5909   22.3562 H   0  0  0  0  0  0  0  0  0  0  0  0
   21.6271   19.2602   22.6375 H   0  0  0  0  0  0  0  0  0  0  0  0
   19.8495   20.4947   21.0005 O   0  0  0  0  0  0  0  0  0  0  0  0
   19.6684   20.9045   21.8715 H   0  0  0  0  0  0  0  0  0  0  0  0
  1  2  1  0  0  0  0
  1  3  1  0  0  0  0
  1  4  1  0  0  0  0
  4  5  1  0  0  0  0
  4  6  1  0  0  0  0
  4  7  1  0  0  0  0
  7  8  1  0  0  0  0
  1  9  1  0  0  0  0
  7  9  1  0  0  0  0
  9 10  1  0  0  0  0
  9 11  1  0  0  0  0
  7 12  1  0  0  0  0
 12 13  1  0  0  0  0
M  END
> <VConfSearch Rank>
590

> <Conf_Id>
44

> <Delta U+W>
0.823

> <U+W>
-2.308

> <U>
0.039

> <W>
-2.348

> <W(PB)>
-3.918

> <W(SA)>
1.571

> <Valence>
7.320

> <Coulomb>
-8.530

> <VdW>
1.249

> <VdW6>
-2.615

> <VdW12>
3.864

> <Bond>
0.056

> <Angle>
0.694

> <Pdih>
6.570

> <Idih>
0.000

> <Tether>
0.000

$$$$
VeraChem MOL file


 13 13  0  0  0  0  0  0  0  0999 V2000     
   19.8829   19.9236   21.2896 C   0  0  0  0  0  0  0  0  0  0  0  0
   19.9289   19.4762   20.2879 H   0  0  0  0  0  0  0  0  0  0  0  0
   19.9824   21.0112   21.1925 H   0  0  0  0  0  0  0  0  0  0  0  0
   20.8047   19.2417   22.3538 C   0  0  0  0  0  0  0  0  0  0  0  0
   21.7457   18.8225   21.9811 H   0  0  0  0  0  0  0  0  0  0  0  0
   21.0173   19.8547   23.2384 H   0  0  0  0  0  0  0  0  0  0  0  0
   19.6365   18.2266   22.5374 C   0  0  0  0  0  0  0  0  0  0  0  0
   19.6327   17.4168   21.7949 H   0  0  0  0  0  0  0  0  0  0  0  0
   18.6986   19.4185   22.1782 C   0  0  0  0  0  0  0  0  0  0  0  0
   17.7756   19.1577   21.6489 H   0  0  0  0  0  0  0  0  0  0  0  0
   18.4486   20.0724   23.0231 H   0  0  0  0  0  0  0  0  0  0  0  0
   19.4851   17.7117   23.8399 O   0  0  0  0  0  0  0  0  0  0  0  0
   18.6336   17.2241   23.8625 H   0  0  0  0  0  0  0  0  0  0  0  0
  1  2  1  0  0  0  0
  1  3  1  0  0  0  0
  1  4  1  0  0  0  0
  4  5  1  0  0  0  0
  4  6  1  0  0  0  0
  4  7  1  0  0  0  0
  7  8  1  0  0  0  0
  1  9  1  0  0  0  0
  7  9  1  0  0  0  0
  9 10  1  0  0  0  0
  9 11  1  0  0  0  0
  7 12  1  0  0  0  0
 12 13  1  0  0  0  0
M  END
> <VConfSearch Rank>
591

> <Conf_Id>
22

> <Delta U+W>
0.000

> <U+W>
-3.131

> <U>
-0.154

> <W>
-2.978

> <W(PB)>
-4.579

> <W(SA)>
1.601

> <Valence>
6.333

> <Coulomb>
-7.439

> <VdW>
0.952

> <VdW6>
-2.120

> <VdW12>
3.072

> <Bond>
0.065

> <Angle>
0.931

> <Pdih>
5.338

> <Idih>
0.000

> <Tether>
0.000

$$$$
VeraChem MOL file


 13 13  0  0  0  0  0  0  0  0999 V2000     
   19.8910   17.6988   22.6553 C   0  0  0  0  0  0  0  0  0  0  0  0
   20.7460   17.6403   23.3416 H   0  0  0  0  0  0  0  0  0  0  0  0
   19.5243   16.6831   22.4650 H   0  0  0  0  0  0  0  0  0  0  0  0
   20.1248   18.5927   21.3929 C   0  0  0  0  0  0  0  0  0  0  0  0
   19.4329   18.4030   20.5628 H   0  0  0  0  0  0  0  0  0  0  0  0
   21.1476   18.6159   21.0012 H   0  0  0  0  0  0  0  0  0  0  0  0
   19.7216   19.7848   22.3124 C   0  0  0  0  0  0  0  0  0  0  0  0
   20.5441   20.1684   22.9315 H   0  0  0  0  0  0  0  0  0  0  0  0
   18.8083   18.7578   23.0474 C   0  0  0  0  0  0  0  0  0  0  0  0
   17.8271   18.6067   22.5807 H   0  0  0  0  0  0  0  0  0  0  0  0
   18.6657   18.9294   24.1199 H   0  0  0  0  0  0  0  0  0  0  0  0
   19.0451   20.8400   21.6694 O   0  0  0  0  0  0  0  0  0  0  0  0
   19.7037   21.3134   21.1168 H   0  0  0  0  0  0  0  0  0  0  0  0
  1  2  1  0  0  0  0
  1  3  1  0  0  0  0
  1  4  1  0  0  0  0
  4  5  1  0  0  0  0
  4  6  1  0  0  0  0
  4  7  1  0  0  0  0
  7  8  1  0  0  0  0
  1  9  1  0  0  0  0
  7  9  1  0  0  0  0
  9 10  1  0  0  0  0
  9 11  1  0  0  0  0
  7 12  1  0  0  0  0
 12 13  1  0  0  0  0
M  END
> <VConfSearch Rank>
592

> <Conf_Id>
19

> <Delta U+W>
-0.011

> <U+W>
-3.142

> <U>
-0.154

> <W>
-2.989

> <W(PB)>
-4.588

> <W(SA)>
1.599

> <Valence>
6.334

> <Coulomb>
-7.439

> <VdW>
0.951

> <VdW6>
-2.120

> <VdW12>
3.072

> <Bond>
0.065

> <Angle>
0.930

> <Pdih>
5.339

> <Idih>
0.000

> <Tether>
0.000

$$$$
VeraChem MOL file


 13 13  0  0  0  0  0  0  0  0999 V2000     
   19.7378   18.2302   23.1903 C   0  0  0  0  0  0  0  0  0  0  0  0
   19.8141   18.0932   24.2754 H   0  0  0  0  0  0  0  0  0  0  0  0
   19.6748   17.2424   22.7154 H   0  0  0  0  0  0  0  0  0  0  0  0
   20.7847   19.1965   22.5429 C   0  0  0  0  0  0  0  0  0  0  0  0
   21.1160   20.0124   23.1967 H   0  0  0  0  0  0  0  0  0  0  0  0
   21.6673   18.7225   22.0994 H   0  0  0  0  0  0  0  0  0  0  0  0
   19.6555   19.5969   21.5430 C   0  0  0  0  0  0  0  0  0  0  0  0
   19.6656   20.6521   21.2407 H   0  0  0  0  0  0  0  0  0  0  0  0
   18.6641   19.2575   22.6997 C   0  0  0  0  0  0  0  0  0  0  0  0
   17.6993   18.8360   22.3967 H   0  0  0  0  0  0  0  0  0  0  0  0
   18.4810   20.0881   23.3921 H   0  0  0  0  0  0  0  0  0  0  0  0
   19.5493   18.7681   20.4028 O   0  0  0  0  0  0  0  0  0  0  0  0
   18.7122   19.0038   19.9490 H   0  0  0  0  0  0  0  0  0  0  0  0
  1  2  1  0  0  0  0
  1  3  1  0  0  0  0
  1  4  1  0  0  0  0
  4  5  1  0  0  0  0
  4  6  1  0  0  0  0
  4  7  1  0  0  0  0
  7  8  1  0  0  0  0
  1  9  1  0  0  0  0
  7  9  1  0  0  0  0
  9 10  1  0  0  0  0
  9 11  1  0  0  0  0
  7 12  1  0  0  0  0
 12 13  1  0  0  0  0
M  END
> <VConfSearch Rank>
593

> <Conf_Id>
20

> <Delta U+W>
1.030

> <U+W>
-2.101

> <U>
0.841

> <W>
-2.942

> <W(PB)>
-4.530

> <W(SA)>
1.587

> <Valence>
6.736

> <Coulomb>
-7.246

> <VdW>
1.352

> <VdW6>
-2.500

> <VdW12>
3.851

> <Bond>
0.063

> <Angle>
0.687

> <Pdih>
5.986

> <Idih>
0.000

> <Tether>
0.000

$$$$
VeraChem MOL file


 13 13  0  0  0  0  0  0  0  0999 V2000     
   20.4321   18.6812   23.2606 C   0  0  0  0  0  0  0  0  0  0  0  0
   19.9137   18.2134   24.1080 H   0  0  0  0  0  0  0  0  0  0  0  0
   21.4873   18.8158   23.5269 H   0  0  0  0  0  0  0  0  0  0  0  0
   19.7093   19.9329   22.6620 C   0  0  0  0  0  0  0  0  0  0  0  0
   19.1423   20.5469   23.3705 H   0  0  0  0  0  0  0  0  0  0  0  0
   20.3523   20.5897   22.0632 H   0  0  0  0  0  0  0  0  0  0  0  0
   18.8755   18.9051   21.8389 C   0  0  0  0  0  0  0  0  0  0  0  0
   18.0237   18.4824   22.3888 H   0  0  0  0  0  0  0  0  0  0  0  0
   20.1532   18.0132   21.8737 C   0  0  0  0  0  0  0  0  0  0  0  0
   20.8954   18.2409   21.0987 H   0  0  0  0  0  0  0  0  0  0  0  0
   19.9782   16.9317   21.8860 H   0  0  0  0  0  0  0  0  0  0  0  0
   18.4748   19.3374   20.5605 O   0  0  0  0  0  0  0  0  0  0  0  0
   19.2709   19.7023   20.1202 H   0  0  0  0  0  0  0  0  0  0  0  0
  1  2  1  0  0  0  0
  1  3  1  0  0  0  0
  1  4  1  0  0  0  0
  4  5  1  0  0  0  0
  4  6  1  0  0  0  0
  4  7  1  0  0  0  0
  7  8  1  0  0  0  0
  1  9  1  0  0  0  0
  7  9  1  0  0  0  0
  9 10  1  0  0  0  0
  9 11  1  0  0  0  0
  7 12  1  0  0  0  0
 12 13  1  0  0  0  0
M  END
> <VConfSearch Rank>
594

> <Conf_Id>
24

> <Delta U+W>
0.356

> <U+W>
-2.775

> <U>
-0.184

> <W>
-2.591

> <W(PB)>
-4.184

> <W(SA)>
1.593

> <Valence>
6.840

> <Coulomb>
-7.916

> <VdW>
0.893

> <VdW6>
-2.167

> <VdW12>
3.060

> <Bond>
0.059

> <Angle>
0.918

> <Pdih>
5.862

> <Idih>
0.000

> <Tether>
0.000

$$$$
VeraChem MOL file


 13 13  0  0  0  0  0  0  0  0999 V2000     
   20.6130   19.0178   21.5629 C   0  0  0  0  0  0  0  0  0  0  0  0
   21.3045   18.4538   20.9256 H   0  0  0  0  0  0  0  0  0  0  0  0
   20.9429   20.0640   21.5912 H   0  0  0  0  0  0  0  0  0  0  0  0
   20.3029   18.3870   22.9615 C   0  0  0  0  0  0  0  0  0  0  0  0
   20.3429   17.2912   22.9836 H   0  0  0  0  0  0  0  0  0  0  0  0
   20.8847   18.7737   23.8057 H   0  0  0  0  0  0  0  0  0  0  0  0
   18.8638   18.9682   22.8022 C   0  0  0  0  0  0  0  0  0  0  0  0
   18.0647   18.3395   23.2152 H   0  0  0  0  0  0  0  0  0  0  0  0
   19.0895   18.8154   21.2660 C   0  0  0  0  0  0  0  0  0  0  0  0
   18.8320   17.8246   20.8724 H   0  0  0  0  0  0  0  0  0  0  0  0
   18.6152   19.5750   20.6345 H   0  0  0  0  0  0  0  0  0  0  0  0
   18.7103   20.2983   23.2482 O   0  0  0  0  0  0  0  0  0  0  0  0
   19.4455   20.8094   22.8512 H   0  0  0  0  0  0  0  0  0  0  0  0
  1  2  1  0  0  0  0
  1  3  1  0  0  0  0
  1  4  1  0  0  0  0
  4  5  1  0  0  0  0
  4  6  1  0  0  0  0
  4  7  1  0  0  0  0
  7  8  1  0  0  0  0
  1  9  1  0  0  0  0
  7  9  1  0  0  0  0
  9 10  1  0  0  0  0
  9 11  1  0  0  0  0
  7 12  1  0  0  0  0
 12 13  1  0  0  0  0
M  END
> <VConfSearch Rank>
595

> <Conf_Id>
44

> <Delta U+W>
0.823

> <U+W>
-2.308

> <U>
0.039

> <W>
-2.348

> <W(PB)>
-3.918

> <W(SA)>
1.571

> <Valence>
7.320

> <Coulomb>
-8.530

> <VdW>
1.249

> <VdW6>
-2.615

> <VdW12>
3.864

> <Bond>
0.056

> <Angle>
0.694

> <Pdih>
6.570

> <Idih>
0.000

> <Tether>
0.000

$$$$
VeraChem MOL file


 13 13  0  0  0  0  0  0  0  0999 V2000     
   20.3267   17.9033   22.1617 C   0  0  0  0  0  0  0  0  0  0  0  0
   19.8242   17.0683   22.6675 H   0  0  0  0  0  0  0  0  0  0  0  0
   21.2326   17.5236   21.6742 H   0  0  0  0  0  0  0  0  0  0  0  0
   20.5045   19.1873   23.0374 C   0  0  0  0  0  0  0  0  0  0  0  0
   20.6535   19.0242   24.1104 H   0  0  0  0  0  0  0  0  0  0  0  0
   21.2688   19.8872   22.6774 H   0  0  0  0  0  0  0  0  0  0  0  0
   19.0503   19.5389   22.6010 C   0  0  0  0  0  0  0  0  0  0  0  0
   18.2755   19.0464   23.2045 H   0  0  0  0  0  0  0  0  0  0  0  0
   19.3909   18.7911   21.2766 C   0  0  0  0  0  0  0  0  0  0  0  0
   18.5554   18.2755   20.7904 H   0  0  0  0  0  0  0  0  0  0  0  0
   19.9119   19.4023   20.5291 H   0  0  0  0  0  0  0  0  0  0  0  0
   18.7785   20.9143   22.4638 O   0  0  0  0  0  0  0  0  0  0  0  0
   17.9000   20.9956   22.0340 H   0  0  0  0  0  0  0  0  0  0  0  0
  1  2  1  0  0  0  0
  1  3  1  0  0  0  0
  1  4  1  0  0  0  0
  4  5  1  0  0  0  0
  4  6  1  0  0  0  0
  4  7  1  0  0  0  0
  7  8  1  0  0  0  0
  1  9  1  0  0  0  0
  7  9  1  0  0  0  0
  9 10  1  0  0  0  0
  9 11  1  0  0  0  0
  7 12  1  0  0  0  0
 12 13  1  0  0  0  0
M  END
> <VConfSearch Rank>
596

> <Conf_Id>
22

> <Delta U+W>
0.000

> <U+W>
-3.131

> <U>
-0.154

> <W>
-2.978

> <W(PB)>
-4.579

> <W(SA)>
1.601

> <Valence>
6.333

> <Coulomb>
-7.439

> <VdW>
0.952

> <VdW6>
-2.120

> <VdW12>
3.072

> <Bond>
0.065

> <Angle>
0.931

> <Pdih>
5.338

> <Idih>
0.000

> <Tether>
0.000

$$$$
VeraChem MOL file


 13 13  0  0  0  0  0  0  0  0999 V2000     
   20.2616   18.6748   21.1151 C   0  0  0  0  0  0  0  0  0  0  0  0
   19.8736   17.7960   20.5835 H   0  0  0  0  0  0  0  0  0  0  0  0
   21.1203   19.0697   20.5593 H   0  0  0  0  0  0  0  0  0  0  0  0
   20.4730   18.4699   22.6516 C   0  0  0  0  0  0  0  0  0  0  0  0
   21.1472   19.1964   23.1221 H   0  0  0  0  0  0  0  0  0  0  0  0
   20.7639   17.4623   22.9682 H   0  0  0  0  0  0  0  0  0  0  0  0
   18.9583   18.8131   22.7824 C   0  0  0  0  0  0  0  0  0  0  0  0
   18.2905   17.9599   22.6002 H   0  0  0  0  0  0  0  0  0  0  0  0
   19.1746   19.7194   21.5331 C   0  0  0  0  0  0  0  0  0  0  0  0
   19.5620   20.7205   21.7596 H   0  0  0  0  0  0  0  0  0  0  0  0
   18.3149   19.8179   20.8615 H   0  0  0  0  0  0  0  0  0  0  0  0
   18.5935   19.4908   23.9623 O   0  0  0  0  0  0  0  0  0  0  0  0
   18.6487   18.8437   24.6981 H   0  0  0  0  0  0  0  0  0  0  0  0
  1  2  1  0  0  0  0
  1  3  1  0  0  0  0
  1  4  1  0  0  0  0
  4  5  1  0  0  0  0
  4  6  1  0  0  0  0
  4  7  1  0  0  0  0
  7  8  1  0  0  0  0
  1  9  1  0  0  0  0
  7  9  1  0  0  0  0
  9 10  1  0  0  0  0
  9 11  1  0  0  0  0
  7 12  1  0  0  0  0
 12 13  1  0  0  0  0
M  END
> <VConfSearch Rank>
597

> <Conf_Id>
19

> <Delta U+W>
-0.011

> <U+W>
-3.142

> <U>
-0.154

> <W>
-2.989

> <W(PB)>
-4.588

> <W(SA)>
1.599

> <Valence>
6.334

> <Coulomb>
-7.439

> <VdW>
0.951

> <VdW6>
-2.120

> <VdW12>
3.072

> <Bond>
0.065

> <Angle>
0.930

> <Pdih>
5.339

> <Idih>
0.000

> <Tether>
0.000

$$$$
VeraChem MOL file


 13 13  0  0  0  0  0  0  0  0999 V2000     
   20.4483   19.0223   21.3578 C   0  0  0  0  0  0  0  0  0  0  0  0
   21.0232   19.6243   20.6444 H   0  0  0  0  0  0  0  0  0  0  0  0
   20.7524   17.9723   21.2564 H   0  0  0  0  0  0  0  0  0  0  0  0
   18.9004   19.2526   21.3629 C   0  0  0  0  0  0  0  0  0  0  0  0
   18.5911   20.2715   21.1002 H   0  0  0  0  0  0  0  0  0  0  0  0
   18.3065   18.5437   20.7754 H   0  0  0  0  0  0  0  0  0  0  0  0
   18.9602   18.9782   22.8980 C   0  0  0  0  0  0  0  0  0  0  0  0
   18.2588   19.5738   23.4964 H   0  0  0  0  0  0  0  0  0  0  0  0
   20.4111   19.5494   22.8308 C   0  0  0  0  0  0  0  0  0  0  0  0
   21.1357   19.1012   23.5197 H   0  0  0  0  0  0  0  0  0  0  0  0
   20.4687   20.6407   22.9239 H   0  0  0  0  0  0  0  0  0  0  0  0
   18.8710   17.6154   23.2625 O   0  0  0  0  0  0  0  0  0  0  0  0
   19.0942   17.5542   24.2157 H   0  0  0  0  0  0  0  0  0  0  0  0
  1  2  1  0  0  0  0
  1  3  1  0  0  0  0
  1  4  1  0  0  0  0
  4  5  1  0  0  0  0
  4  6  1  0  0  0  0
  4  7  1  0  0  0  0
  7  8  1  0  0  0  0
  1  9  1  0  0  0  0
  7  9  1  0  0  0  0
  9 10  1  0  0  0  0
  9 11  1  0  0  0  0
  7 12  1  0  0  0  0
 12 13  1  0  0  0  0
M  END
> <VConfSearch Rank>
598

> <Conf_Id>
20

> <Delta U+W>
1.030

> <U+W>
-2.101

> <U>
0.841

> <W>
-2.942

> <W(PB)>
-4.530

> <W(SA)>
1.587

> <Valence>
6.736

> <Coulomb>
-7.246

> <VdW>
1.352

> <VdW6>
-2.500

> <VdW12>
3.851

> <Bond>
0.063

> <Angle>
0.687

> <Pdih>
5.986

> <Idih>
0.000

> <Tether>
0.000

$$$$
VeraChem MOL file


 13 13  0  0  0  0  0  0  0  0999 V2000     
   19.4970   19.8533   23.0899 C   0  0  0  0  0  0  0  0  0  0  0  0
   19.7737   20.8902   22.8579 H   0  0  0  0  0  0  0  0  0  0  0  0
   19.0404   19.8275   24.0865 H   0  0  0  0  0  0  0  0  0  0  0  0
   20.6229   18.8006   22.8225 C   0  0  0  0  0  0  0  0  0  0  0  0
   21.6516   19.1456   22.9747 H   0  0  0  0  0  0  0  0  0  0  0  0
   20.4907   17.8461   23.3467 H   0  0  0  0  0  0  0  0  0  0  0  0
   20.1157   18.8140   21.3488 C   0  0  0  0  0  0  0  0  0  0  0  0
   20.5253   19.6357   20.7457 H   0  0  0  0  0  0  0  0  0  0  0  0
   18.7120   19.1163   21.9550 C   0  0  0  0  0  0  0  0  0  0  0  0
   18.1526   18.2323   22.2854 H   0  0  0  0  0  0  0  0  0  0  0  0
   18.0531   19.7401   21.3411 H   0  0  0  0  0  0  0  0  0  0  0  0
   20.2262   17.5910   20.6604 O   0  0  0  0  0  0  0  0  0  0  0  0
   19.8473   16.9002   21.2435 H   0  0  0  0  0  0  0  0  0  0  0  0
  1  2  1  0  0  0  0
  1  3  1  0  0  0  0
  1  4  1  0  0  0  0
  4  5  1  0  0  0  0
  4  6  1  0  0  0  0
  4  7  1  0  0  0  0
  7  8  1  0  0  0  0
  1  9  1  0  0  0  0
  7  9  1  0  0  0  0
  9 10  1  0  0  0  0
  9 11  1  0  0  0  0
  7 12  1  0  0  0  0
 12 13  1  0  0  0  0
M  END
> <VConfSearch Rank>
599

> <Conf_Id>
24

> <Delta U+W>
0.356

> <U+W>
-2.775

> <U>
-0.184

> <W>
-2.591

> <W(PB)>
-4.184

> <W(SA)>
1.593

> <Valence>
6.840

> <Coulomb>
-7.916

> <VdW>
0.893

> <VdW6>
-2.167

> <VdW12>
3.060

> <Bond>
0.059

> <Angle>
0.918

> <Pdih>
5.862

> <Idih>
0.000

> <Tether>
0.000

$$$$
VeraChem MOL file


 13 13  0  0  0  0  0  0  0  0999 V2000     
   18.9317   19.0651   21.3863 C   0  0  0  0  0  0  0  0  0  0  0  0
   18.3511   18.5355   20.6216 H   0  0  0  0  0  0  0  0  0  0  0  0
   18.6727   20.1306   21.3419 H   0  0  0  0  0  0  0  0  0  0  0  0
   20.4670   18.7612   21.4120 C   0  0  0  0  0  0  0  0  0  0  0  0
   20.7345   17.7494   21.0838 H   0  0  0  0  0  0  0  0  0  0  0  0
   21.1104   19.4781   20.8896 H   0  0  0  0  0  0  0  0  0  0  0  0
   20.3804   18.9256   22.9611 C   0  0  0  0  0  0  0  0  0  0  0  0
   21.0339   18.2545   23.5329 H   0  0  0  0  0  0  0  0  0  0  0  0
   18.9044   18.4400   22.8211 C   0  0  0  0  0  0  0  0  0  0  0  0
   18.7887   17.3494   22.8383 H   0  0  0  0  0  0  0  0  0  0  0  0
   18.1876   18.8773   23.5251 H   0  0  0  0  0  0  0  0  0  0  0  0
   20.5258   20.2507   23.4244 O   0  0  0  0  0  0  0  0  0  0  0  0
   19.9236   20.8006   22.8819 H   0  0  0  0  0  0  0  0  0  0  0  0
  1  2  1  0  0  0  0
  1  3  1  0  0  0  0
  1  4  1  0  0  0  0
  4  5  1  0  0  0  0
  4  6  1  0  0  0  0
  4  7  1  0  0  0  0
  7  8  1  0  0  0  0
  1  9  1  0  0  0  0
  7  9  1  0  0  0  0
  9 10  1  0  0  0  0
  9 11  1  0  0  0  0
  7 12  1  0  0  0  0
 12 13  1  0  0  0  0
M  END
> <VConfSearch Rank>
600

> <Conf_Id>
44

> <Delta U+W>
0.823

> <U+W>
-2.308

> <U>
0.039

> <W>
-2.348

> <W(PB)>
-3.918

> <W(SA)>
1.571

> <Valence>
7.320

> <Coulomb>
-8.530

> <VdW>
1.249

> <VdW6>
-2.615

> <VdW12>
3.864

> <Bond>
0.056

> <Angle>
0.694

> <Pdih>
6.570

> <Idih>
0.000

> <Tether>
0.000

$$$$
VeraChem MOL file


 13 13  0  0  0  0  0  0  0  0999 V2000     
   20.3272   20.1831   22.1735 C   0  0  0  0  0  0  0  0  0  0  0  0
   19.7721   21.0369   22.5840 H   0  0  0  0  0  0  0  0  0  0  0  0
   21.3185   20.5290   21.8574 H   0  0  0  0  0  0  0  0  0  0  0  0
   19.5341   19.3268   21.1319 C   0  0  0  0  0  0  0  0  0  0  0  0
   18.8166   19.8687   20.5062 H   0  0  0  0  0  0  0  0  0  0  0  0
   20.1568   18.6939   20.4875 H   0  0  0  0  0  0  0  0  0  0  0  0
   18.9355   18.5952   22.3709 C   0  0  0  0  0  0  0  0  0  0  0  0
   18.0815   19.1174   22.8237 H   0  0  0  0  0  0  0  0  0  0  0  0
   20.2996   18.8960   23.0622 C   0  0  0  0  0  0  0  0  0  0  0  0
   20.2612   19.0583   24.1449 H   0  0  0  0  0  0  0  0  0  0  0  0
   21.0922   18.1700   22.8417 H   0  0  0  0  0  0  0  0  0  0  0  0
   18.6438   17.2301   22.1815 O   0  0  0  0  0  0  0  0  0  0  0  0
   18.4338   16.8527   23.0628 H   0  0  0  0  0  0  0  0  0  0  0  0
  1  2  1  0  0  0  0
  1  3  1  0  0  0  0
  1  4  1  0  0  0  0
  4  5  1  0  0  0  0
  4  6  1  0  0  0  0
  4  7  1  0  0  0  0
  7  8  1  0  0  0  0
  1  9  1  0  0  0  0
  7  9  1  0  0  0  0
  9 10  1  0  0  0  0
  9 11  1  0  0  0  0
  7 12  1  0  0  0  0
 12 13  1  0  0  0  0
M  END
> <VConfSearch Rank>
601

> <Conf_Id>
22

> <Delta U+W>
0.000

> <U+W>
-3.131

> <U>
-0.154

> <W>
-2.978

> <W(PB)>
-4.579

> <W(SA)>
1.601

> <Valence>
6.333

> <Coulomb>
-7.439

> <VdW>
0.952

> <VdW6>
-2.120

> <VdW12>
3.072

> <Bond>
0.065

> <Angle>
0.931

> <Pdih>
5.338

> <Idih>
0.000

> <Tether>
0.000

$$$$
VeraChem MOL file


 13 13  0  0  0  0  0  0  0  0999 V2000     
   19.6825   18.0003   21.3067 C   0  0  0  0  0  0  0  0  0  0  0  0
   18.8593   18.0648   20.5829 H   0  0  0  0  0  0  0  0  0  0  0  0
   20.2991   17.1280   21.0593 H   0  0  0  0  0  0  0  0  0  0  0  0
   19.2495   18.1332   22.8041 C   0  0  0  0  0  0  0  0  0  0  0  0
   19.9806   17.7519   23.5279 H   0  0  0  0  0  0  0  0  0  0  0  0
   18.2612   17.7342   23.0575 H   0  0  0  0  0  0  0  0  0  0  0  0
   19.3202   19.6712   22.5615 C   0  0  0  0  0  0  0  0  0  0  0  0
   18.4168   20.0915   22.0985 H   0  0  0  0  0  0  0  0  0  0  0  0
   20.4527   19.3413   21.5430 C   0  0  0  0  0  0  0  0  0  0  0  0
   21.4477   19.2273   21.9909 H   0  0  0  0  0  0  0  0  0  0  0  0
   20.5290   20.0135   20.6814 H   0  0  0  0  0  0  0  0  0  0  0  0
   19.7158   20.4393   23.6741 O   0  0  0  0  0  0  0  0  0  0  0  0
   18.9676   20.4378   24.3092 H   0  0  0  0  0  0  0  0  0  0  0  0
  1  2  1  0  0  0  0
  1  3  1  0  0  0  0
  1  4  1  0  0  0  0
  4  5  1  0  0  0  0
  4  6  1  0  0  0  0
  4  7  1  0  0  0  0
  7  8  1  0  0  0  0
  1  9  1  0  0  0  0
  7  9  1  0  0  0  0
  9 10  1  0  0  0  0
  9 11  1  0  0  0  0
  7 12  1  0  0  0  0
 12 13  1  0  0  0  0
M  END
> <VConfSearch Rank>
602

> <Conf_Id>
19

> <Delta U+W>
-0.011

> <U+W>
-3.142

> <U>
-0.154

> <W>
-2.989

> <W(PB)>
-4.588

> <W(SA)>
1.599

> <Valence>
6.334

> <Coulomb>
-7.439

> <VdW>
0.951

> <VdW6>
-2.120

> <VdW12>
3.072

> <Bond>
0.065

> <Angle>
0.930

> <Pdih>
5.339

> <Idih>
0.000

> <Tether>
0.000

$$$$
VeraChem MOL file


 13 13  0  0  0  0  0  0  0  0999 V2000     
   19.5781   20.2133   22.6929 C   0  0  0  0  0  0  0  0  0  0  0  0
   19.5595   20.8510   23.5845 H   0  0  0  0  0  0  0  0  0  0  0  0
   19.6194   20.8550   21.8031 H   0  0  0  0  0  0  0  0  0  0  0  0
   18.4951   19.0853   22.6305 C   0  0  0  0  0  0  0  0  0  0  0  0
   18.1959   18.6873   23.6076 H   0  0  0  0  0  0  0  0  0  0  0  0
   17.5921   19.3166   22.0548 H   0  0  0  0  0  0  0  0  0  0  0  0
   19.5686   18.2267   21.8917 C   0  0  0  0  0  0  0  0  0  0  0  0
   19.5390   17.1553   22.1284 H   0  0  0  0  0  0  0  0  0  0  0  0
   20.6208   19.0465   22.7023 C   0  0  0  0  0  0  0  0  0  0  0  0
   21.5698   19.2463   22.1925 H   0  0  0  0  0  0  0  0  0  0  0  0
   20.8373   18.6393   23.6974 H   0  0  0  0  0  0  0  0  0  0  0  0
   19.6175   18.4117   20.4912 O   0  0  0  0  0  0  0  0  0  0  0  0
   20.4286   17.9653   20.1672 H   0  0  0  0  0  0  0  0  0  0  0  0
  1  2  1  0  0  0  0
  1  3  1  0  0  0  0
  1  4  1  0  0  0  0
  4  5  1  0  0  0  0
  4  6  1  0  0  0  0
  4  7  1  0  0  0  0
  7  8  1  0  0  0  0
  1  9  1  0  0  0  0
  7  9  1  0  0  0  0
  9 10  1  0  0  0  0
  9 11  1  0  0  0  0
  7 12  1  0  0  0  0
 12 13  1  0  0  0  0
M  END
> <VConfSearch Rank>
603

> <Conf_Id>
20

> <Delta U+W>
1.030

> <U+W>
-2.101

> <U>
0.841

> <W>
-2.942

> <W(PB)>
-4.530

> <W(SA)>
1.587

> <Valence>
6.736

> <Coulomb>
-7.246

> <VdW>
1.352

> <VdW6>
-2.500

> <VdW12>
3.851

> <Bond>
0.063

> <Angle>
0.687

> <Pdih>
5.986

> <Idih>
0.000

> <Tether>
0.000

$$$$
VeraChem MOL file


 13 13  0  0  0  0  0  0  0  0999 V2000     
   18.6564   18.5761   22.7704 C   0  0  0  0  0  0  0  0  0  0  0  0
   18.0385   17.8352   22.2461 H   0  0  0  0  0  0  0  0  0  0  0  0
   18.1630   18.8386   23.7138 H   0  0  0  0  0  0  0  0  0  0  0  0
   19.1305   19.7761   21.8857 C   0  0  0  0  0  0  0  0  0  0  0  0
   18.4437   20.0911   21.0923 H   0  0  0  0  0  0  0  0  0  0  0  0
   19.4478   20.6624   22.4489 H   0  0  0  0  0  0  0  0  0  0  0  0
   20.2891   18.8324   21.4426 C   0  0  0  0  0  0  0  0  0  0  0  0
   20.0148   18.1421   20.6334 H   0  0  0  0  0  0  0  0  0  0  0  0
   20.1745   18.2107   22.8673 C   0  0  0  0  0  0  0  0  0  0  0  0
   20.7251   18.7472   23.6498 H   0  0  0  0  0  0  0  0  0  0  0  0
   20.4097   17.1432   22.9408 H   0  0  0  0  0  0  0  0  0  0  0  0
   21.5118   19.4692   21.1576 O   0  0  0  0  0  0  0  0  0  0  0  0
   21.7035   20.0684   21.9093 H   0  0  0  0  0  0  0  0  0  0  0  0
  1  2  1  0  0  0  0
  1  3  1  0  0  0  0
  1  4  1  0  0  0  0
  4  5  1  0  0  0  0
  4  6  1  0  0  0  0
  4  7  1  0  0  0  0
  7  8  1  0  0  0  0
  1  9  1  0  0  0  0
  7  9  1  0  0  0  0
  9 10  1  0  0  0  0
  9 11  1  0  0  0  0
  7 12  1  0  0  0  0
 12 13  1  0  0  0  0
M  END
> <VConfSearch Rank>
604

> <Conf_Id>
24

> <Delta U+W>
0.356

> <U+W>
-2.775

> <U>
-0.184

> <W>
-2.591

> <W(PB)>
-4.184

> <W(SA)>
1.593

> <Valence>
6.840

> <Coulomb>
-7.916

> <VdW>
0.893

> <VdW6>
-2.167

> <VdW12>
3.060

> <Bond>
0.059

> <Angle>
0.918

> <Pdih>
5.862

> <Idih>
0.000

> <Tether>
0.000

$$$$
VeraChem MOL file


 13 13  0  0  0  0  0  0  0  0999 V2000     
   19.3950   19.3819   21.2053 C   0  0  0  0  0  0  0  0  0  0  0  0
   19.7054   19.5604   20.1688 H   0  0  0  0  0  0  0  0  0  0  0  0
   18.3700   19.7537   21.3290 H   0  0  0  0  0  0  0  0  0  0  0  0
   20.4017   19.8458   22.3105 C   0  0  0  0  0  0  0  0  0  0  0  0
   21.4556   19.8050   22.0097 H   0  0  0  0  0  0  0  0  0  0  0  0
   20.2062   20.8250   22.7619 H   0  0  0  0  0  0  0  0  0  0  0  0
   19.9264   18.6085   23.1334 C   0  0  0  0  0  0  0  0  0  0  0  0
   20.7097   18.1231   23.7294 H   0  0  0  0  0  0  0  0  0  0  0  0
   19.6420   17.9369   21.7542 C   0  0  0  0  0  0  0  0  0  0  0  0
   20.5097   17.4281   21.3170 H   0  0  0  0  0  0  0  0  0  0  0  0
   18.7853   17.2546   21.7214 H   0  0  0  0  0  0  0  0  0  0  0  0
   18.7828   18.8315   23.9298 O   0  0  0  0  0  0  0  0  0  0  0  0
   18.1222   19.2635   23.3497 H   0  0  0  0  0  0  0  0  0  0  0  0
  1  2  1  0  0  0  0
  1  3  1  0  0  0  0
  1  4  1  0  0  0  0
  4  5  1  0  0  0  0
  4  6  1  0  0  0  0
  4  7  1  0  0  0  0
  7  8  1  0  0  0  0
  1  9  1  0  0  0  0
  7  9  1  0  0  0  0
  9 10  1  0  0  0  0
  9 11  1  0  0  0  0
  7 12  1  0  0  0  0
 12 13  1  0  0  0  0
M  END
> <VConfSearch Rank>
605

> <Conf_Id>
44

> <Delta U+W>
0.823

> <U+W>
-2.308

> <U>
0.039

> <W>
-2.348

> <W(PB)>
-3.918

> <W(SA)>
1.571

> <Valence>
7.320

> <Coulomb>
-8.530

> <VdW>
1.249

> <VdW6>
-2.615

> <VdW12>
3.864

> <Bond>
0.056

> <Angle>
0.694

> <Pdih>
6.570

> <Idih>
0.000

> <Tether>
0.000

$$$$
VeraChem MOL file


 13 13  0  0  0  0  0  0  0  0999 V2000     
   19.8312   17.7456   22.0713 C   0  0  0  0  0  0  0  0  0  0  0  0
   19.1415   17.3148   21.3335 H   0  0  0  0  0  0  0  0  0  0  0  0
   20.5093   16.9573   22.4191 H   0  0  0  0  0  0  0  0  0  0  0  0
   19.1453   18.6029   23.1858 C   0  0  0  0  0  0  0  0  0  0  0  0
   18.1414   18.2871   23.4898 H   0  0  0  0  0  0  0  0  0  0  0  0
   19.7537   18.7593   24.0852 H   0  0  0  0  0  0  0  0  0  0  0  0
   19.2053   19.7701   22.1549 C   0  0  0  0  0  0  0  0  0  0  0  0
   18.3777   19.7657   21.4323 H   0  0  0  0  0  0  0  0  0  0  0  0
   20.5051   19.0873   21.6321 C   0  0  0  0  0  0  0  0  0  0  0  0
   20.7056   19.1982   20.5608 H   0  0  0  0  0  0  0  0  0  0  0  0
   21.4131   19.3480   22.1901 H   0  0  0  0  0  0  0  0  0  0  0  0
   19.3794   21.0539   22.7081 O   0  0  0  0  0  0  0  0  0  0  0  0
   19.5642   21.6680   21.9651 H   0  0  0  0  0  0  0  0  0  0  0  0
  1  2  1  0  0  0  0
  1  3  1  0  0  0  0
  1  4  1  0  0  0  0
  4  5  1  0  0  0  0
  4  6  1  0  0  0  0
  4  7  1  0  0  0  0
  7  8  1  0  0  0  0
  1  9  1  0  0  0  0
  7  9  1  0  0  0  0
  9 10  1  0  0  0  0
  9 11  1  0  0  0  0
  7 12  1  0  0  0  0
 12 13  1  0  0  0  0
M  END
> <VConfSearch Rank>
606

> <Conf_Id>
22

> <Delta U+W>
0.000

> <U+W>
-3.131

> <U>
-0.154

> <W>
-2.978

> <W(PB)>
-4.579

> <W(SA)>
1.601

> <Valence>
6.333

> <Coulomb>
-7.439

> <VdW>
0.952

> <VdW6>
-2.120

> <VdW12>
3.072

> <Bond>
0.065

> <Angle>
0.931

> <Pdih>
5.338

> <Idih>
0.000

> <Tether>
0.000

$$$$
VeraChem MOL file


 13 13  0  0  0  0  0  0  0  0999 V2000     
   18.6604   18.2882   22.8752 C   0  0  0  0  0  0  0  0  0  0  0  0
   18.4960   18.6458   23.9002 H   0  0  0  0  0  0  0  0  0  0  0  0
   17.9845   17.4459   22.6853 H   0  0  0  0  0  0  0  0  0  0  0  0
   20.1608   18.0650   22.4925 C   0  0  0  0  0  0  0  0  0  0  0  0
   20.3199   17.4161   21.6223 H   0  0  0  0  0  0  0  0  0  0  0  0
   20.8214   17.7371   23.3025 H   0  0  0  0  0  0  0  0  0  0  0  0
   20.1803   19.5907   22.1747 C   0  0  0  0  0  0  0  0  0  0  0  0
   20.3358   20.2279   23.0562 H   0  0  0  0  0  0  0  0  0  0  0  0
   18.6819   19.4109   21.7860 C   0  0  0  0  0  0  0  0  0  0  0  0
   18.5176   19.0592   20.7599 H   0  0  0  0  0  0  0  0  0  0  0  0
   18.0350   20.2756   21.9699 H   0  0  0  0  0  0  0  0  0  0  0  0
   21.0335   19.9763   21.1220 O   0  0  0  0  0  0  0  0  0  0  0  0
   21.9549   19.8956   21.4503 H   0  0  0  0  0  0  0  0  0  0  0  0
  1  2  1  0  0  0  0
  1  3  1  0  0  0  0
  1  4  1  0  0  0  0
  4  5  1  0  0  0  0
  4  6  1  0  0  0  0
  4  7  1  0  0  0  0
  7  8  1  0  0  0  0
  1  9  1  0  0  0  0
  7  9  1  0  0  0  0
  9 10  1  0  0  0  0
  9 11  1  0  0  0  0
  7 12  1  0  0  0  0
 12 13  1  0  0  0  0
M  END
> <VConfSearch Rank>
607

> <Conf_Id>
19

> <Delta U+W>
-0.011

> <U+W>
-3.142

> <U>
-0.154

> <W>
-2.989

> <W(PB)>
-4.588

> <W(SA)>
1.599

> <Valence>
6.334

> <Coulomb>
-7.439

> <VdW>
0.951

> <VdW6>
-2.120

> <VdW12>
3.072

> <Bond>
0.065

> <Angle>
0.930

> <Pdih>
5.339

> <Idih>
0.000

> <Tether>
0.000

$$$$
VeraChem MOL file


 13 13  0  0  0  0  0  0  0  0999 V2000     
   19.7088   19.0214   23.5094 C   0  0  0  0  0  0  0  0  0  0  0  0
   19.4008   18.4876   24.4161 H   0  0  0  0  0  0  0  0  0  0  0  0
   20.4112   19.8165   23.7916 H   0  0  0  0  0  0  0  0  0  0  0  0
   18.5562   19.4812   22.5560 C   0  0  0  0  0  0  0  0  0  0  0  0
   17.6752   18.8281   22.5592 H   0  0  0  0  0  0  0  0  0  0  0  0
   18.2235   20.5190   22.6690 H   0  0  0  0  0  0  0  0  0  0  0  0
   19.5480   19.2113   21.3818 C   0  0  0  0  0  0  0  0  0  0  0  0
   19.0808   18.8164   20.4704 H   0  0  0  0  0  0  0  0  0  0  0  0
   20.1815   18.1305   22.3129 C   0  0  0  0  0  0  0  0  0  0  0  0
   21.2637   17.9894   22.2173 H   0  0  0  0  0  0  0  0  0  0  0  0
   19.6946   17.1493   22.2576 H   0  0  0  0  0  0  0  0  0  0  0  0
   20.3974   20.2943   21.0598 O   0  0  0  0  0  0  0  0  0  0  0  0
   21.0801   19.9547   20.4428 H   0  0  0  0  0  0  0  0  0  0  0  0
  1  2  1  0  0  0  0
  1  3  1  0  0  0  0
  1  4  1  0  0  0  0
  4  5  1  0  0  0  0
  4  6  1  0  0  0  0
  4  7  1  0  0  0  0
  7  8  1  0  0  0  0
  1  9  1  0  0  0  0
  7  9  1  0  0  0  0
  9 10  1  0  0  0  0
  9 11  1  0  0  0  0
  7 12  1  0  0  0  0
 12 13  1  0  0  0  0
M  END
> <VConfSearch Rank>
608

> <Conf_Id>
20

> <Delta U+W>
1.030

> <U+W>
-2.101

> <U>
0.841

> <W>
-2.942

> <W(PB)>
-4.530

> <W(SA)>
1.587

> <Valence>
6.736

> <Coulomb>
-7.246

> <VdW>
1.352

> <VdW6>
-2.500

> <VdW12>
3.851

> <Bond>
0.063

> <Angle>
0.687

> <Pdih>
5.986

> <Idih>
0.000

> <Tether>
0.000

$$$$
VeraChem MOL file


 13 13  0  0  0  0  0  0  0  0999 V2000     
   19.4137   19.6874   23.2086 C   0  0  0  0  0  0  0  0  0  0  0  0
   19.4621   20.7774   23.0846 H   0  0  0  0  0  0  0  0  0  0  0  0
   19.0680   19.4659   24.2254 H   0  0  0  0  0  0  0  0  0  0  0  0
   20.6903   18.9178   22.7338 C   0  0  0  0  0  0  0  0  0  0  0  0
   21.6430   19.4458   22.8512 H   0  0  0  0  0  0  0  0  0  0  0  0
   20.7949   17.9068   23.1465 H   0  0  0  0  0  0  0  0  0  0  0  0
   20.0513   18.9825   21.3137 C   0  0  0  0  0  0  0  0  0  0  0  0
   20.2355   19.9284   20.7865 H   0  0  0  0  0  0  0  0  0  0  0  0
   18.6803   18.9298   22.0530 C   0  0  0  0  0  0  0  0  0  0  0  0
   18.3356   17.9214   22.3135 H   0  0  0  0  0  0  0  0  0  0  0  0
   17.8579   19.4682   21.5692 H   0  0  0  0  0  0  0  0  0  0  0  0
   20.3287   17.8859   20.4756 O   0  0  0  0  0  0  0  0  0  0  0  0
   20.1474   17.0756   20.9966 H   0  0  0  0  0  0  0  0  0  0  0  0
  1  2  1  0  0  0  0
  1  3  1  0  0  0  0
  1  4  1  0  0  0  0
  4  5  1  0  0  0  0
  4  6  1  0  0  0  0
  4  7  1  0  0  0  0
  7  8  1  0  0  0  0
  1  9  1  0  0  0  0
  7  9  1  0  0  0  0
  9 10  1  0  0  0  0
  9 11  1  0  0  0  0
  7 12  1  0  0  0  0
 12 13  1  0  0  0  0
M  END
> <VConfSearch Rank>
609

> <Conf_Id>
24

> <Delta U+W>
0.356

> <U+W>
-2.775

> <U>
-0.184

> <W>
-2.591

> <W(PB)>
-4.184

> <W(SA)>
1.593

> <Valence>
6.840

> <Coulomb>
-7.916

> <VdW>
0.893

> <VdW6>
-2.167

> <VdW12>
3.060

> <Bond>
0.059

> <Angle>
0.918

> <Pdih>
5.862

> <Idih>
0.000

> <Tether>
0.000

$$$$
VeraChem MOL file


 13 13  0  0  0  0  0  0  0  0999 V2000     
   20.2123   19.5697   21.4107 C   0  0  0  0  0  0  0  0  0  0  0  0
   20.5367   19.5978   20.3636 H   0  0  0  0  0  0  0  0  0  0  0  0
   20.5116   20.5096   21.8916 H   0  0  0  0  0  0  0  0  0  0  0  0
   20.5842   18.2747   22.2075 C   0  0  0  0  0  0  0  0  0  0  0  0
   20.6368   17.3656   21.5962 H   0  0  0  0  0  0  0  0  0  0  0  0
   21.4867   18.3307   22.8265 H   0  0  0  0  0  0  0  0  0  0  0  0
   19.2296   18.4587   22.9592 C   0  0  0  0  0  0  0  0  0  0  0  0
   18.7139   17.5242   23.2149 H   0  0  0  0  0  0  0  0  0  0  0  0
   18.7243   19.1498   21.6549 C   0  0  0  0  0  0  0  0  0  0  0  0
   18.3208   18.4552   20.9081 H   0  0  0  0  0  0  0  0  0  0  0  0
   18.0079   19.9673   21.7928 H   0  0  0  0  0  0  0  0  0  0  0  0
   19.2900   19.3012   24.0898 O   0  0  0  0  0  0  0  0  0  0  0  0
   19.7569   20.1135   23.8043 H   0  0  0  0  0  0  0  0  0  0  0  0
  1  2  1  0  0  0  0
  1  3  1  0  0  0  0
  1  4  1  0  0  0  0
  4  5  1  0  0  0  0
  4  6  1  0  0  0  0
  4  7  1  0  0  0  0
  7  8  1  0  0  0  0
  1  9  1  0  0  0  0
  7  9  1  0  0  0  0
  9 10  1  0  0  0  0
  9 11  1  0  0  0  0
  7 12  1  0  0  0  0
 12 13  1  0  0  0  0
M  END
> <VConfSearch Rank>
610

> <Conf_Id>
44

> <Delta U+W>
0.823

> <U+W>
-2.308

> <U>
0.039

> <W>
-2.348

> <W(PB)>
-3.918

> <W(SA)>
1.571

> <Valence>
7.320

> <Coulomb>
-8.530

> <VdW>
1.249

> <VdW6>
-2.615

> <VdW12>
3.864

> <Bond>
0.056

> <Angle>
0.694

> <Pdih>
6.570

> <Idih>
0.000

> <Tether>
0.000

$$$$
VeraChem MOL file


 13 13  0  0  0  0  0  0  0  0999 V2000     
   18.4500   19.3229   21.8223 C   0  0  0  0  0  0  0  0  0  0  0  0
   18.2923   20.3909   21.6219 H   0  0  0  0  0  0  0  0  0  0  0  0
   17.5375   18.7775   21.5536 H   0  0  0  0  0  0  0  0  0  0  0  0
   19.0519   19.0033   23.2305 C   0  0  0  0  0  0  0  0  0  0  0  0
   18.7657   19.6793   24.0436 H   0  0  0  0  0  0  0  0  0  0  0  0
   18.9118   17.9683   23.5662 H   0  0  0  0  0  0  0  0  0  0  0  0
   20.4345   19.2859   22.5692 C   0  0  0  0  0  0  0  0  0  0  0  0
   20.6960   20.3522   22.5279 H   0  0  0  0  0  0  0  0  0  0  0  0
   19.7888   18.7418   21.2591 C   0  0  0  0  0  0  0  0  0  0  0  0
   20.1529   19.1865   20.3264 H   0  0  0  0  0  0  0  0  0  0  0  0
   19.8085   17.6493   21.1609 H   0  0  0  0  0  0  0  0  0  0  0  0
   21.5091   18.5264   23.0720 O   0  0  0  0  0  0  0  0  0  0  0  0
   22.2737   18.6734   22.4745 H   0  0  0  0  0  0  0  0  0  0  0  0
  1  2  1  0  0  0  0
  1  3  1  0  0  0  0
  1  4  1  0  0  0  0
  4  5  1  0  0  0  0
  4  6  1  0  0  0  0
  4  7  1  0  0  0  0
  7  8  1  0  0  0  0
  1  9  1  0  0  0  0
  7  9  1  0  0  0  0
  9 10  1  0  0  0  0
  9 11  1  0  0  0  0
  7 12  1  0  0  0  0
 12 13  1  0  0  0  0
M  END
> <VConfSearch Rank>
611

> <Conf_Id>
22

> <Delta U+W>
0.000

> <U+W>
-3.131

> <U>
-0.154

> <W>
-2.978

> <W(PB)>
-4.579

> <W(SA)>
1.601

> <Valence>
6.333

> <Coulomb>
-7.439

> <VdW>
0.952

> <VdW6>
-2.120

> <VdW12>
3.072

> <Bond>
0.065

> <Angle>
0.931

> <Pdih>
5.338

> <Idih>
0.000

> <Tether>
0.000

$$$$
VeraChem MOL file


 13 13  0  0  0  0  0  0  0  0999 V2000     
   19.8589   20.2006   21.9942 C   0  0  0  0  0  0  0  0  0  0  0  0
   19.4712   20.5304   21.0213 H   0  0  0  0  0  0  0  0  0  0  0  0
   20.3840   21.0402   22.4649 H   0  0  0  0  0  0  0  0  0  0  0  0
   20.6281   18.8387   21.9648 C   0  0  0  0  0  0  0  0  0  0  0  0
   21.2846   18.6646   22.8264 H   0  0  0  0  0  0  0  0  0  0  0  0
   21.1847   18.6189   21.0472 H   0  0  0  0  0  0  0  0  0  0  0  0
   19.2201   18.1802   22.0800 C   0  0  0  0  0  0  0  0  0  0  0  0
   18.6930   18.0840   21.1209 H   0  0  0  0  0  0  0  0  0  0  0  0
   18.8210   19.4493   22.8917 C   0  0  0  0  0  0  0  0  0  0  0  0
   19.0796   19.4074   23.9570 H   0  0  0  0  0  0  0  0  0  0  0  0
   17.7774   19.7680   22.7947 H   0  0  0  0  0  0  0  0  0  0  0  0
   19.1783   16.9686   22.7976 O   0  0  0  0  0  0  0  0  0  0  0  0
   19.6013   16.2836   22.2363 H   0  0  0  0  0  0  0  0  0  0  0  0
  1  2  1  0  0  0  0
  1  3  1  0  0  0  0
  1  4  1  0  0  0  0
  4  5  1  0  0  0  0
  4  6  1  0  0  0  0
  4  7  1  0  0  0  0
  7  8  1  0  0  0  0
  1  9  1  0  0  0  0
  7  9  1  0  0  0  0
  9 10  1  0  0  0  0
  9 11  1  0  0  0  0
  7 12  1  0  0  0  0
 12 13  1  0  0  0  0
M  END
> <VConfSearch Rank>
612

> <Conf_Id>
19

> <Delta U+W>
-0.011

> <U+W>
-3.142

> <U>
-0.154

> <W>
-2.989

> <W(PB)>
-4.588

> <W(SA)>
1.599

> <Valence>
6.334

> <Coulomb>
-7.439

> <VdW>
0.951

> <VdW6>
-2.120

> <VdW12>
3.072

> <Bond>
0.065

> <Angle>
0.930

> <Pdih>
5.339

> <Idih>
0.000

> <Tether>
0.000

$$$$
VeraChem MOL file


 13 13  0  0  0  0  0  0  0  0999 V2000     
   18.4451   19.3798   22.2395 C   0  0  0  0  0  0  0  0  0  0  0  0
   17.4718   19.2965   22.7370 H   0  0  0  0  0  0  0  0  0  0  0  0
   18.3489   20.0729   21.3936 H   0  0  0  0  0  0  0  0  0  0  0  0
   19.1603   18.0309   21.8958 C   0  0  0  0  0  0  0  0  0  0  0  0
   18.9470   17.2122   22.5935 H   0  0  0  0  0  0  0  0  0  0  0  0
   19.0273   17.6629   20.8724 H   0  0  0  0  0  0  0  0  0  0  0  0
   20.5004   18.7791   22.1784 C   0  0  0  0  0  0  0  0  0  0  0  0
   21.2778   18.1628   22.6481 H   0  0  0  0  0  0  0  0  0  0  0  0
   19.6727   19.6555   23.1699 C   0  0  0  0  0  0  0  0  0  0  0  0
   19.9827   20.7026   23.2586 H   0  0  0  0  0  0  0  0  0  0  0  0
   19.5833   19.2307   24.1771 H   0  0  0  0  0  0  0  0  0  0  0  0
   21.0378   19.4751   21.0716 O   0  0  0  0  0  0  0  0  0  0  0  0
   21.7666   20.0386   21.4087 H   0  0  0  0  0  0  0  0  0  0  0  0
  1  2  1  0  0  0  0
  1  3  1  0  0  0  0
  1  4  1  0  0  0  0
  4  5  1  0  0  0  0
  4  6  1  0  0  0  0
  4  7  1  0  0  0  0
  7  8  1  0  0  0  0
  1  9  1  0  0  0  0
  7  9  1  0  0  0  0
  9 10  1  0  0  0  0
  9 11  1  0  0  0  0
  7 12  1  0  0  0  0
 12 13  1  0  0  0  0
M  END
> <VConfSearch Rank>
613

> <Conf_Id>
20

> <Delta U+W>
1.030

> <U+W>
-2.101

> <U>
0.841

> <W>
-2.942

> <W(PB)>
-4.530

> <W(SA)>
1.587

> <Valence>
6.736

> <Coulomb>
-7.246

> <VdW>
1.352

> <VdW6>
-2.500

> <VdW12>
3.851

> <Bond>
0.063

> <Angle>
0.687

> <Pdih>
5.986

> <Idih>
0.000

> <Tether>
0.000

$$$$
VeraChem MOL file


 13 13  0  0  0  0  0  0  0  0999 V2000     
   19.5052   19.2246   20.9830 C   0  0  0  0  0  0  0  0  0  0  0  0
   18.7974   20.0349   20.7636 H   0  0  0  0  0  0  0  0  0  0  0  0
   19.8650   18.8079   20.0347 H   0  0  0  0  0  0  0  0  0  0  0  0
   19.0051   18.1886   22.0432 C   0  0  0  0  0  0  0  0  0  0  0  0
   17.9260   18.0001   22.0614 H   0  0  0  0  0  0  0  0  0  0  0  0
   19.5303   17.2257   22.0251 H   0  0  0  0  0  0  0  0  0  0  0  0
   19.5330   19.2025   23.1027 C   0  0  0  0  0  0  0  0  0  0  0  0
   18.8274   20.0124   23.3325 H   0  0  0  0  0  0  0  0  0  0  0  0
   20.6043   19.5837   22.0368 C   0  0  0  0  0  0  0  0  0  0  0  0
   21.4870   18.9326   22.0172 H   0  0  0  0  0  0  0  0  0  0  0  0
   20.9376   20.6273   22.0493 H   0  0  0  0  0  0  0  0  0  0  0  0
   20.0355   18.6320   24.2875 O   0  0  0  0  0  0  0  0  0  0  0  0
   20.6550   17.9206   24.0212 H   0  0  0  0  0  0  0  0  0  0  0  0
  1  2  1  0  0  0  0
  1  3  1  0  0  0  0
  1  4  1  0  0  0  0
  4  5  1  0  0  0  0
  4  6  1  0  0  0  0
  4  7  1  0  0  0  0
  7  8  1  0  0  0  0
  1  9  1  0  0  0  0
  7  9  1  0  0  0  0
  9 10  1  0  0  0  0
  9 11  1  0  0  0  0
  7 12  1  0  0  0  0
 12 13  1  0  0  0  0
M  END
> <VConfSearch Rank>
614

> <Conf_Id>
24

> <Delta U+W>
0.356

> <U+W>
-2.775

> <U>
-0.184

> <W>
-2.591

> <W(PB)>
-4.184

> <W(SA)>
1.593

> <Valence>
6.840

> <Coulomb>
-7.916

> <VdW>
0.893

> <VdW6>
-2.167

> <VdW12>
3.060

> <Bond>
0.059

> <Angle>
0.918

> <Pdih>
5.862

> <Idih>
0.000

> <Tether>
0.000

$$$$
VeraChem MOL file


 13 13  0  0  0  0  0  0  0  0999 V2000     
   19.3219   18.2055   22.9460 C   0  0  0  0  0  0  0  0  0  0  0  0
   18.4424   17.7556   23.4218 H   0  0  0  0  0  0  0  0  0  0  0  0
   20.2198   17.7161   23.3441 H   0  0  0  0  0  0  0  0  0  0  0  0
   19.3720   19.7700   22.9413 C   0  0  0  0  0  0  0  0  0  0  0  0
   18.3887   20.2550   22.9099 H   0  0  0  0  0  0  0  0  0  0  0  0
   19.9651   20.2368   23.7356 H   0  0  0  0  0  0  0  0  0  0  0  0
   20.0682   19.6521   21.5501 C   0  0  0  0  0  0  0  0  0  0  0  0
   19.8021   20.4397   20.8336 H   0  0  0  0  0  0  0  0  0  0  0  0
   19.2718   18.3207   21.3857 C   0  0  0  0  0  0  0  0  0  0  0  0
   18.2640   18.4503   20.9728 H   0  0  0  0  0  0  0  0  0  0  0  0
   19.7777   17.5261   20.8260 H   0  0  0  0  0  0  0  0  0  0  0  0
   21.4704   19.5003   21.6013 O   0  0  0  0  0  0  0  0  0  0  0  0
   21.6477   18.7898   22.2518 H   0  0  0  0  0  0  0  0  0  0  0  0
  1  2  1  0  0  0  0
  1  3  1  0  0  0  0
  1  4  1  0  0  0  0
  4  5  1  0  0  0  0
  4  6  1  0  0  0  0
  4  7  1  0  0  0  0
  7  8  1  0  0  0  0
  1  9  1  0  0  0  0
  7  9  1  0  0  0  0
  9 10  1  0  0  0  0
  9 11  1  0  0  0  0
  7 12  1  0  0  0  0
 12 13  1  0  0  0  0
M  END
> <VConfSearch Rank>
615

> <Conf_Id>
44

> <Delta U+W>
0.823

> <U+W>
-2.308

> <U>
0.039

> <W>
-2.348

> <W(PB)>
-3.918

> <W(SA)>
1.571

> <Valence>
7.320

> <Coulomb>
-8.530

> <VdW>
1.249

> <VdW6>
-2.615

> <VdW12>
3.864

> <Bond>
0.056

> <Angle>
0.694

> <Pdih>
6.570

> <Idih>
0.000

> <Tether>
0.000

$$$$
VeraChem MOL file


 13 13  0  0  0  0  0  0  0  0999 V2000     
   19.6535   19.7560   21.1381 C   0  0  0  0  0  0  0  0  0  0  0  0
   20.4692   19.5045   20.4474 H   0  0  0  0  0  0  0  0  0  0  0  0
   19.0168   20.5143   20.6671 H   0  0  0  0  0  0  0  0  0  0  0  0
   20.1070   20.0548   22.6052 C   0  0  0  0  0  0  0  0  0  0  0  0
   21.0905   20.5229   22.7216 H   0  0  0  0  0  0  0  0  0  0  0  0
   19.3780   20.6108   23.2076 H   0  0  0  0  0  0  0  0  0  0  0  0
   20.0642   18.5096   22.8040 C   0  0  0  0  0  0  0  0  0  0  0  0
   20.9727   17.9940   22.4635 H   0  0  0  0  0  0  0  0  0  0  0  0
   18.9131   18.5229   21.7534 C   0  0  0  0  0  0  0  0  0  0  0  0
   18.8393   17.6364   21.1140 H   0  0  0  0  0  0  0  0  0  0  0  0
   17.9211   18.7437   22.1669 H   0  0  0  0  0  0  0  0  0  0  0  0
   19.6979   18.0783   24.0941 O   0  0  0  0  0  0  0  0  0  0  0  0
   19.5494   17.1094   24.0454 H   0  0  0  0  0  0  0  0  0  0  0  0
  1  2  1  0  0  0  0
  1  3  1  0  0  0  0
  1  4  1  0  0  0  0
  4  5  1  0  0  0  0
  4  6  1  0  0  0  0
  4  7  1  0  0  0  0
  7  8  1  0  0  0  0
  1  9  1  0  0  0  0
  7  9  1  0  0  0  0
  9 10  1  0  0  0  0
  9 11  1  0  0  0  0
  7 12  1  0  0  0  0
 12 13  1  0  0  0  0
M  END
> <VConfSearch Rank>
616

> <Conf_Id>
22

> <Delta U+W>
0.000

> <U+W>
-3.131

> <U>
-0.154

> <W>
-2.978

> <W(PB)>
-4.579

> <W(SA)>
1.601

> <Valence>
6.333

> <Coulomb>
-7.439

> <VdW>
0.952

> <VdW6>
-2.120

> <VdW12>
3.072

> <Bond>
0.065

> <Angle>
0.931

> <Pdih>
5.338

> <Idih>
0.000

> <Tether>
0.000

$$$$
VeraChem MOL file


 13 13  0  0  0  0  0  0  0  0999 V2000     
   19.4100   17.6712   21.9004 C   0  0  0  0  0  0  0  0  0  0  0  0
   18.3529   17.4518   21.7003 H   0  0  0  0  0  0  0  0  0  0  0  0
   19.9855   16.7432   21.8007 H   0  0  0  0  0  0  0  0  0  0  0  0
   19.6711   18.5057   23.1976 C   0  0  0  0  0  0  0  0  0  0  0  0
   20.6986   18.4507   23.5786 H   0  0  0  0  0  0  0  0  0  0  0  0
   18.9774   18.3355   24.0283 H   0  0  0  0  0  0  0  0  0  0  0  0
   19.3757   19.7518   22.3094 C   0  0  0  0  0  0  0  0  0  0  0  0
   18.3058   19.9727   22.1928 H   0  0  0  0  0  0  0  0  0  0  0  0
   19.9755   18.9154   21.1392 C   0  0  0  0  0  0  0  0  0  0  0  0
   21.0697   18.9527   21.0682 H   0  0  0  0  0  0  0  0  0  0  0  0
   19.5512   19.1101   20.1482 H   0  0  0  0  0  0  0  0  0  0  0  0
   20.0931   20.9163   22.6469 O   0  0  0  0  0  0  0  0  0  0  0  0
   19.7157   21.2572   23.4863 H   0  0  0  0  0  0  0  0  0  0  0  0
  1  2  1  0  0  0  0
  1  3  1  0  0  0  0
  1  4  1  0  0  0  0
  4  5  1  0  0  0  0
  4  6  1  0  0  0  0
  4  7  1  0  0  0  0
  7  8  1  0  0  0  0
  1  9  1  0  0  0  0
  7  9  1  0  0  0  0
  9 10  1  0  0  0  0
  9 11  1  0  0  0  0
  7 12  1  0  0  0  0
 12 13  1  0  0  0  0
M  END
> <VConfSearch Rank>
617

> <Conf_Id>
19

> <Delta U+W>
-0.011

> <U+W>
-3.142

> <U>
-0.154

> <W>
-2.989

> <W(PB)>
-4.588

> <W(SA)>
1.599

> <Valence>
6.334

> <Coulomb>
-7.439

> <VdW>
0.951

> <VdW6>
-2.120

> <VdW12>
3.072

> <Bond>
0.065

> <Angle>
0.930

> <Pdih>
5.339

> <Idih>
0.000

> <Tether>
0.000

$$$$
VeraChem MOL file


 13 13  0  0  0  0  0  0  0  0999 V2000     
   19.2786   18.0591   22.9151 C   0  0  0  0  0  0  0  0  0  0  0  0
   18.5659   17.6678   23.6505 H   0  0  0  0  0  0  0  0  0  0  0  0
   19.8967   17.2289   22.5489 H   0  0  0  0  0  0  0  0  0  0  0  0
   20.0857   19.3287   23.3462 C   0  0  0  0  0  0  0  0  0  0  0  0
   19.5497   19.9980   24.0300 H   0  0  0  0  0  0  0  0  0  0  0  0
   21.0889   19.1477   23.7476 H   0  0  0  0  0  0  0  0  0  0  0  0
   20.0226   19.7610   21.8480 C   0  0  0  0  0  0  0  0  0  0  0  0
   19.9255   20.8426   21.6881 H   0  0  0  0  0  0  0  0  0  0  0  0
   18.6792   18.9685   21.7915 C   0  0  0  0  0  0  0  0  0  0  0  0
   18.4543   18.4723   20.8409 H   0  0  0  0  0  0  0  0  0  0  0  0
   17.8016   19.5503   22.0985 H   0  0  0  0  0  0  0  0  0  0  0  0
   21.0565   19.2426   21.0354 O   0  0  0  0  0  0  0  0  0  0  0  0
   20.8165   19.4323   20.1034 H   0  0  0  0  0  0  0  0  0  0  0  0
  1  2  1  0  0  0  0
  1  3  1  0  0  0  0
  1  4  1  0  0  0  0
  4  5  1  0  0  0  0
  4  6  1  0  0  0  0
  4  7  1  0  0  0  0
  7  8  1  0  0  0  0
  1  9  1  0  0  0  0
  7  9  1  0  0  0  0
  9 10  1  0  0  0  0
  9 11  1  0  0  0  0
  7 12  1  0  0  0  0
 12 13  1  0  0  0  0
M  END
> <VConfSearch Rank>
618

> <Conf_Id>
20

> <Delta U+W>
1.030

> <U+W>
-2.101

> <U>
0.841

> <W>
-2.942

> <W(PB)>
-4.530

> <W(SA)>
1.587

> <Valence>
6.736

> <Coulomb>
-7.246

> <VdW>
1.352

> <VdW6>
-2.500

> <VdW12>
3.851

> <Bond>
0.063

> <Angle>
0.687

> <Pdih>
5.986

> <Idih>
0.000

> <Tether>
0.000

$$$$
VeraChem MOL file


 13 13  0  0  0  0  0  0  0  0999 V2000     
   18.6085   18.5320   22.6240 C   0  0  0  0  0  0  0  0  0  0  0  0
   18.2867   17.5294   22.3126 H   0  0  0  0  0  0  0  0  0  0  0  0
   17.8278   18.9690   23.2579 H   0  0  0  0  0  0  0  0  0  0  0  0
   19.1392   19.4380   21.4643 C   0  0  0  0  0  0  0  0  0  0  0  0
   18.6761   19.2859   20.4831 H   0  0  0  0  0  0  0  0  0  0  0  0
   19.1442   20.5119   21.6884 H   0  0  0  0  0  0  0  0  0  0  0  0
   20.5021   18.7159   21.6886 C   0  0  0  0  0  0  0  0  0  0  0  0
   20.5809   17.7471   21.1769 H   0  0  0  0  0  0  0  0  0  0  0  0
   20.0683   18.6065   23.1816 C   0  0  0  0  0  0  0  0  0  0  0  0
   20.2810   19.4945   23.7896 H   0  0  0  0  0  0  0  0  0  0  0  0
   20.4257   17.7201   23.7171 H   0  0  0  0  0  0  0  0  0  0  0  0
   21.6474   19.4982   21.4478 O   0  0  0  0  0  0  0  0  0  0  0  0
   21.5207   20.3444   21.9260 H   0  0  0  0  0  0  0  0  0  0  0  0
  1  2  1  0  0  0  0
  1  3  1  0  0  0  0
  1  4  1  0  0  0  0
  4  5  1  0  0  0  0
  4  6  1  0  0  0  0
  4  7  1  0  0  0  0
  7  8  1  0  0  0  0
  1  9  1  0  0  0  0
  7  9  1  0  0  0  0
  9 10  1  0  0  0  0
  9 11  1  0  0  0  0
  7 12  1  0  0  0  0
 12 13  1  0  0  0  0
M  END
> <VConfSearch Rank>
619

> <Conf_Id>
24

> <Delta U+W>
0.356

> <U+W>
-2.775

> <U>
-0.184

> <W>
-2.591

> <W(PB)>
-4.184

> <W(SA)>
1.593

> <Valence>
6.840

> <Coulomb>
-7.916

> <VdW>
0.893

> <VdW6>
-2.167

> <VdW12>
3.060

> <Bond>
0.059

> <Angle>
0.918

> <Pdih>
5.862

> <Idih>
0.000

> <Tether>
0.000

$$$$
VeraChem MOL file


 13 13  0  0  0  0  0  0  0  0999 V2000     
   20.4960   18.2192   21.9705 C   0  0  0  0  0  0  0  0  0  0  0  0
   20.7273   17.2572   21.4978 H   0  0  0  0  0  0  0  0  0  0  0  0
   21.4230   18.6317   22.3885 H   0  0  0  0  0  0  0  0  0  0  0  0
   19.2733   18.2248   22.9479 C   0  0  0  0  0  0  0  0  0  0  0  0
   18.4867   17.5038   22.6940 H   0  0  0  0  0  0  0  0  0  0  0  0
   19.5064   18.1247   24.0139 H   0  0  0  0  0  0  0  0  0  0  0  0
   18.9943   19.6747   22.4441 C   0  0  0  0  0  0  0  0  0  0  0  0
   17.9319   19.9381   22.3640 H   0  0  0  0  0  0  0  0  0  0  0  0
   19.6594   19.2220   21.1075 C   0  0  0  0  0  0  0  0  0  0  0  0
   18.9674   18.7455   20.4024 H   0  0  0  0  0  0  0  0  0  0  0  0
   20.2285   19.9899   20.5716 H   0  0  0  0  0  0  0  0  0  0  0  0
   19.6911   20.6866   23.1386 O   0  0  0  0  0  0  0  0  0  0  0  0
   20.6266   20.3996   23.1794 H   0  0  0  0  0  0  0  0  0  0  0  0
  1  2  1  0  0  0  0
  1  3  1  0  0  0  0
  1  4  1  0  0  0  0
  4  5  1  0  0  0  0
  4  6  1  0  0  0  0
  4  7  1  0  0  0  0
  7  8  1  0  0  0  0
  1  9  1  0  0  0  0
  7  9  1  0  0  0  0
  9 10  1  0  0  0  0
  9 11  1  0  0  0  0
  7 12  1  0  0  0  0
 12 13  1  0  0  0  0
M  END
> <VConfSearch Rank>
620

> <Conf_Id>
44

> <Delta U+W>
0.823

> <U+W>
-2.308

> <U>
0.039

> <W>
-2.348

> <W(PB)>
-3.918

> <W(SA)>
1.571

> <Valence>
7.320

> <Coulomb>
-8.530

> <VdW>
1.249

> <VdW6>
-2.615

> <VdW12>
3.864

> <Bond>
0.056

> <Angle>
0.694

> <Pdih>
6.570

> <Idih>
0.000

> <Tether>
0.000

$$$$
VeraChem MOL file


 13 13  0  0  0  0  0  0  0  0999 V2000     
   20.8327   18.4734   22.4901 C   0  0  0  0  0  0  0  0  0  0  0  0
   20.7890   17.3763   22.5002 H   0  0  0  0  0  0  0  0  0  0  0  0
   21.8737   18.7840   22.6385 H   0  0  0  0  0  0  0  0  0  0  0  0
   19.7696   19.1789   23.3954 C   0  0  0  0  0  0  0  0  0  0  0  0
   19.4845   18.6481   24.3102 H   0  0  0  0  0  0  0  0  0  0  0  0
   20.0009   20.2208   23.6495 H   0  0  0  0  0  0  0  0  0  0  0  0
   18.8037   19.0090   22.1842 C   0  0  0  0  0  0  0  0  0  0  0  0
   18.3292   18.0195   22.1316 H   0  0  0  0  0  0  0  0  0  0  0  0
   20.0778   19.1477   21.2973 C   0  0  0  0  0  0  0  0  0  0  0  0
   20.0675   18.5885   20.3553 H   0  0  0  0  0  0  0  0  0  0  0  0
   20.3790   20.1823   21.0907 H   0  0  0  0  0  0  0  0  0  0  0  0
   17.8470   20.0314   22.0289 O   0  0  0  0  0  0  0  0  0  0  0  0
   17.4182   19.8980   21.1562 H   0  0  0  0  0  0  0  0  0  0  0  0
  1  2  1  0  0  0  0
  1  3  1  0  0  0  0
  1  4  1  0  0  0  0
  4  5  1  0  0  0  0
  4  6  1  0  0  0  0
  4  7  1  0  0  0  0
  7  8  1  0  0  0  0
  1  9  1  0  0  0  0
  7  9  1  0  0  0  0
  9 10  1  0  0  0  0
  9 11  1  0  0  0  0
  7 12  1  0  0  0  0
 12 13  1  0  0  0  0
M  END
> <VConfSearch Rank>
621

> <Conf_Id>
22

> <Delta U+W>
0.000

> <U+W>
-3.131

> <U>
-0.154

> <W>
-2.978

> <W(PB)>
-4.579

> <W(SA)>
1.601

> <Valence>
6.333

> <Coulomb>
-7.439

> <VdW>
0.952

> <VdW6>
-2.120

> <VdW12>
3.072

> <Bond>
0.065

> <Angle>
0.931

> <Pdih>
5.338

> <Idih>
0.000

> <Tether>
0.000

$$$$
VeraChem MOL file


 13 13  0  0  0  0  0  0  0  0999 V2000     
   19.4518   18.0228   21.3002 C   0  0  0  0  0  0  0  0  0  0  0  0
   20.1225   17.1581   21.3903 H   0  0  0  0  0  0  0  0  0  0  0  0
   18.8462   17.9036   20.3938 H   0  0  0  0  0  0  0  0  0  0  0  0
   20.1466   19.4122   21.4845 C   0  0  0  0  0  0  0  0  0  0  0  0
   19.5828   20.2633   21.0825 H   0  0  0  0  0  0  0  0  0  0  0  0
   21.1841   19.4821   21.1398 H   0  0  0  0  0  0  0  0  0  0  0  0
   19.9524   19.1703   23.0119 C   0  0  0  0  0  0  0  0  0  0  0  0
   20.7315   18.5431   23.4666 H   0  0  0  0  0  0  0  0  0  0  0  0
   18.6698   18.3834   22.6062 C   0  0  0  0  0  0  0  0  0  0  0  0
   17.7821   19.0094   22.4527 H   0  0  0  0  0  0  0  0  0  0  0  0
   18.4007   17.5437   23.2562 H   0  0  0  0  0  0  0  0  0  0  0  0
   19.7299   20.3286   23.7822 O   0  0  0  0  0  0  0  0  0  0  0  0
   20.5817   20.8138   23.8302 H   0  0  0  0  0  0  0  0  0  0  0  0
  1  2  1  0  0  0  0
  1  3  1  0  0  0  0
  1  4  1  0  0  0  0
  4  5  1  0  0  0  0
  4  6  1  0  0  0  0
  4  7  1  0  0  0  0
  7  8  1  0  0  0  0
  1  9  1  0  0  0  0
  7  9  1  0  0  0  0
  9 10  1  0  0  0  0
  9 11  1  0  0  0  0
  7 12  1  0  0  0  0
 12 13  1  0  0  0  0
M  END
> <VConfSearch Rank>
622

> <Conf_Id>
19

> <Delta U+W>
-0.011

> <U+W>
-3.142

> <U>
-0.154

> <W>
-2.989

> <W(PB)>
-4.588

> <W(SA)>
1.599

> <Valence>
6.334

> <Coulomb>
-7.439

> <VdW>
0.951

> <VdW6>
-2.120

> <VdW12>
3.072

> <Bond>
0.065

> <Angle>
0.930

> <Pdih>
5.339

> <Idih>
0.000

> <Tether>
0.000

$$$$
VeraChem MOL file


 13 13  0  0  0  0  0  0  0  0999 V2000     
   19.9753   20.1738   21.8988 C   0  0  0  0  0  0  0  0  0  0  0  0
   20.8193   20.7955   21.5776 H   0  0  0  0  0  0  0  0  0  0  0  0
   19.0501   20.7547   21.7903 H   0  0  0  0  0  0  0  0  0  0  0  0
   20.1344   19.4579   23.2812 C   0  0  0  0  0  0  0  0  0  0  0  0
   21.1665   19.1925   23.5401 H   0  0  0  0  0  0  0  0  0  0  0  0
   19.6763   19.9618   24.1395 H   0  0  0  0  0  0  0  0  0  0  0  0
   19.3089   18.2868   22.6627 C   0  0  0  0  0  0  0  0  0  0  0  0
   19.6138   17.2866   22.9964 H   0  0  0  0  0  0  0  0  0  0  0  0
   19.9128   18.7319   21.2940 C   0  0  0  0  0  0  0  0  0  0  0  0
   19.2648   18.6055   20.4197 H   0  0  0  0  0  0  0  0  0  0  0  0
   20.8917   18.2906   21.0706 H   0  0  0  0  0  0  0  0  0  0  0  0
   17.9063   18.4261   22.7703 O   0  0  0  0  0  0  0  0  0  0  0  0
   17.5014   17.7359   22.2029 H   0  0  0  0  0  0  0  0  0  0  0  0
  1  2  1  0  0  0  0
  1  3  1  0  0  0  0
  1  4  1  0  0  0  0
  4  5  1  0  0  0  0
  4  6  1  0  0  0  0
  4  7  1  0  0  0  0
  7  8  1  0  0  0  0
  1  9  1  0  0  0  0
  7  9  1  0  0  0  0
  9 10  1  0  0  0  0
  9 11  1  0  0  0  0
  7 12  1  0  0  0  0
 12 13  1  0  0  0  0
M  END
> <VConfSearch Rank>
623

> <Conf_Id>
20

> <Delta U+W>
1.030

> <U+W>
-2.101

> <U>
0.841

> <W>
-2.942

> <W(PB)>
-4.530

> <W(SA)>
1.587

> <Valence>
6.736

> <Coulomb>
-7.246

> <VdW>
1.352

> <VdW6>
-2.500

> <VdW12>
3.851

> <Bond>
0.063

> <Angle>
0.687

> <Pdih>
5.986

> <Idih>
0.000

> <Tether>
0.000

$$$$
VeraChem MOL file


 13 13  0  0  0  0  0  0  0  0999 V2000     
   20.4008   18.2665   21.3500 C   0  0  0  0  0  0  0  0  0  0  0  0
   19.9406   17.3454   20.9685 H   0  0  0  0  0  0  0  0  0  0  0  0
   21.3794   18.3928   20.8717 H   0  0  0  0  0  0  0  0  0  0  0  0
   20.3725   18.4155   22.9070 C   0  0  0  0  0  0  0  0  0  0  0  0
   20.4393   17.4852   23.4817 H   0  0  0  0  0  0  0  0  0  0  0  0
   21.0983   19.1318   23.3113 H   0  0  0  0  0  0  0  0  0  0  0  0
   18.9355   18.9837   22.7037 C   0  0  0  0  0  0  0  0  0  0  0  0
   18.1615   18.2101   22.6079 H   0  0  0  0  0  0  0  0  0  0  0  0
   19.4636   19.5191   21.3386 C   0  0  0  0  0  0  0  0  0  0  0  0
   19.9863   20.4820   21.3923 H   0  0  0  0  0  0  0  0  0  0  0  0
   18.7278   19.5633   20.5281 H   0  0  0  0  0  0  0  0  0  0  0  0
   18.5391   19.9696   23.6271 O   0  0  0  0  0  0  0  0  0  0  0  0
   19.2639   20.6280   23.6703 H   0  0  0  0  0  0  0  0  0  0  0  0
  1  2  1  0  0  0  0
  1  3  1  0  0  0  0
  1  4  1  0  0  0  0
  4  5  1  0  0  0  0
  4  6  1  0  0  0  0
  4  7  1  0  0  0  0
  7  8  1  0  0  0  0
  1  9  1  0  0  0  0
  7  9  1  0  0  0  0
  9 10  1  0  0  0  0
  9 11  1  0  0  0  0
  7 12  1  0  0  0  0
 12 13  1  0  0  0  0
M  END
> <VConfSearch Rank>
624

> <Conf_Id>
24

> <Delta U+W>
0.356

> <U+W>
-2.775

> <U>
-0.184

> <W>
-2.591

> <W(PB)>
-4.184

> <W(SA)>
1.593

> <Valence>
6.840

> <Coulomb>
-7.916

> <VdW>
0.893

> <VdW6>
-2.167

> <VdW12>
3.060

> <Bond>
0.059

> <Angle>
0.918

> <Pdih>
5.862

> <Idih>
0.000

> <Tether>
0.000

$$$$
VeraChem MOL file


 13 13  0  0  0  0  0  0  0  0999 V2000     
   20.7591   18.8377   21.8741 C   0  0  0  0  0  0  0  0  0  0  0  0
   21.5064   18.1383   21.4806 H   0  0  0  0  0  0  0  0  0  0  0  0
   21.2339   19.8194   21.9969 H   0  0  0  0  0  0  0  0  0  0  0  0
   19.9434   18.3410   23.1143 C   0  0  0  0  0  0  0  0  0  0  0  0
   19.7927   17.2552   23.1525 H   0  0  0  0  0  0  0  0  0  0  0  0
   20.3007   18.6775   24.0940 H   0  0  0  0  0  0  0  0  0  0  0  0
   18.7358   19.1306   22.5209 C   0  0  0  0  0  0  0  0  0  0  0  0
   17.7569   18.6583   22.6734 H   0  0  0  0  0  0  0  0  0  0  0  0
   19.3834   18.8603   21.1276 C   0  0  0  0  0  0  0  0  0  0  0  0
   19.0954   17.9019   20.6787 H   0  0  0  0  0  0  0  0  0  0  0  0
   19.2534   19.6489   20.3779 H   0  0  0  0  0  0  0  0  0  0  0  0
   18.6782   20.4908   22.8927 O   0  0  0  0  0  0  0  0  0  0  0  0
   19.5727   20.8579   22.7366 H   0  0  0  0  0  0  0  0  0  0  0  0
  1  2  1  0  0  0  0
  1  3  1  0  0  0  0
  1  4  1  0  0  0  0
  4  5  1  0  0  0  0
  4  6  1  0  0  0  0
  4  7  1  0  0  0  0
  7  8  1  0  0  0  0
  1  9  1  0  0  0  0
  7  9  1  0  0  0  0
  9 10  1  0  0  0  0
  9 11  1  0  0  0  0
  7 12  1  0  0  0  0
 12 13  1  0  0  0  0
M  END
> <VConfSearch Rank>
625

> <Conf_Id>
44

> <Delta U+W>
0.823

> <U+W>
-2.308

> <U>
0.039

> <W>
-2.348

> <W(PB)>
-3.918

> <W(SA)>
1.571

> <Valence>
7.320

> <Coulomb>
-8.530

> <VdW>
1.249

> <VdW6>
-2.615

> <VdW12>
3.864

> <Bond>
0.056

> <Angle>
0.694

> <Pdih>
6.570

> <Idih>
0.000

> <Tether>
0.000

$$$$
VeraChem MOL file


 13 13  0  0  0  0  0  0  0  0999 V2000     
   19.6878   20.3448   22.0339 C   0  0  0  0  0  0  0  0  0  0  0  0
   19.2123   20.9269   22.8343 H   0  0  0  0  0  0  0  0  0  0  0  0
   20.0982   21.0397   21.2916 H   0  0  0  0  0  0  0  0  0  0  0  0
   18.8169   19.1736   21.4706 C   0  0  0  0  0  0  0  0  0  0  0  0
   17.7337   19.3365   21.4634 H   0  0  0  0  0  0  0  0  0  0  0  0
   19.1249   18.8048   20.4844 H   0  0  0  0  0  0  0  0  0  0  0  0
   19.3699   18.3470   22.6705 C   0  0  0  0  0  0  0  0  0  0  0  0
   18.8226   18.5088   23.6093 H   0  0  0  0  0  0  0  0  0  0  0  0
   20.6542   19.2186   22.5289 C   0  0  0  0  0  0  0  0  0  0  0  0
   21.1976   19.4234   23.4579 H   0  0  0  0  0  0  0  0  0  0  0  0
   21.3664   18.8618   21.7744 H   0  0  0  0  0  0  0  0  0  0  0  0
   19.5450   16.9711   22.4242 O   0  0  0  0  0  0  0  0  0  0  0  0
   20.0431   16.6008   23.1845 H   0  0  0  0  0  0  0  0  0  0  0  0
  1  2  1  0  0  0  0
  1  3  1  0  0  0  0
  1  4  1  0  0  0  0
  4  5  1  0  0  0  0
  4  6  1  0  0  0  0
  4  7  1  0  0  0  0
  7  8  1  0  0  0  0
  1  9  1  0  0  0  0
  7  9  1  0  0  0  0
  9 10  1  0  0  0  0
  9 11  1  0  0  0  0
  7 12  1  0  0  0  0
 12 13  1  0  0  0  0
M  END
> <VConfSearch Rank>
626

> <Conf_Id>
22

> <Delta U+W>
0.000

> <U+W>
-3.131

> <U>
-0.154

> <W>
-2.978

> <W(PB)>
-4.579

> <W(SA)>
1.601

> <Valence>
6.333

> <Coulomb>
-7.439

> <VdW>
0.952

> <VdW6>
-2.120

> <VdW12>
3.072

> <Bond>
0.065

> <Angle>
0.931

> <Pdih>
5.338

> <Idih>
0.000

> <Tether>
0.000

$$$$
VeraChem MOL file


 13 13  0  0  0  0  0  0  0  0999 V2000     
   18.8182   17.9947   21.7808 C   0  0  0  0  0  0  0  0  0  0  0  0
   18.2356   18.3190   20.9084 H   0  0  0  0  0  0  0  0  0  0  0  0
   18.5094   16.9775   22.0498 H   0  0  0  0  0  0  0  0  0  0  0  0
   18.8723   19.0291   22.9531 C   0  0  0  0  0  0  0  0  0  0  0  0
   19.1561   18.6058   23.9248 H   0  0  0  0  0  0  0  0  0  0  0  0
   17.9821   19.6534   23.0868 H   0  0  0  0  0  0  0  0  0  0  0  0
   20.0470   19.6804   22.1625 C   0  0  0  0  0  0  0  0  0  0  0  0
   19.7233   20.3631   21.3650 H   0  0  0  0  0  0  0  0  0  0  0  0
   20.3594   18.2368   21.6653 C   0  0  0  0  0  0  0  0  0  0  0  0
   20.9713   17.6413   22.3542 H   0  0  0  0  0  0  0  0  0  0  0  0
   20.7868   18.1615   20.6594 H   0  0  0  0  0  0  0  0  0  0  0  0
   21.0496   20.2749   22.9537 O   0  0  0  0  0  0  0  0  0  0  0  0
   20.6710   21.0970   23.3332 H   0  0  0  0  0  0  0  0  0  0  0  0
  1  2  1  0  0  0  0
  1  3  1  0  0  0  0
  1  4  1  0  0  0  0
  4  5  1  0  0  0  0
  4  6  1  0  0  0  0
  4  7  1  0  0  0  0
  7  8  1  0  0  0  0
  1  9  1  0  0  0  0
  7  9  1  0  0  0  0
  9 10  1  0  0  0  0
  9 11  1  0  0  0  0
  7 12  1  0  0  0  0
 12 13  1  0  0  0  0
M  END
> <VConfSearch Rank>
627

> <Conf_Id>
19

> <Delta U+W>
-0.011

> <U+W>
-3.142

> <U>
-0.154

> <W>
-2.989

> <W(PB)>
-4.588

> <W(SA)>
1.599

> <Valence>
6.334

> <Coulomb>
-7.439

> <VdW>
0.951

> <VdW6>
-2.120

> <VdW12>
3.072

> <Bond>
0.065

> <Angle>
0.930

> <Pdih>
5.339

> <Idih>
0.000

> <Tether>
0.000

$$$$
VeraChem MOL file


 13 13  0  0  0  0  0  0  0  0999 V2000     
   20.5596   19.5803   22.8974 C   0  0  0  0  0  0  0  0  0  0  0  0
   20.8660   20.4492   23.4917 H   0  0  0  0  0  0  0  0  0  0  0  0
   21.3840   18.8555   22.8845 H   0  0  0  0  0  0  0  0  0  0  0  0
   19.9445   19.8895   21.4921 C   0  0  0  0  0  0  0  0  0  0  0  0
   19.3990   20.8392   21.4331 H   0  0  0  0  0  0  0  0  0  0  0  0
   20.6322   19.8270   20.6415 H   0  0  0  0  0  0  0  0  0  0  0  0
   19.0345   18.6426   21.7213 C   0  0  0  0  0  0  0  0  0  0  0  0
   18.0196   18.7363   21.3138 H   0  0  0  0  0  0  0  0  0  0  0  0
   19.1611   18.9687   23.2424 C   0  0  0  0  0  0  0  0  0  0  0  0
   19.1674   18.1070   23.9190 H   0  0  0  0  0  0  0  0  0  0  0  0
   18.4257   19.6954   23.6084 H   0  0  0  0  0  0  0  0  0  0  0  0
   19.6030   17.4105   21.3252 O   0  0  0  0  0  0  0  0  0  0  0  0
   19.0253   16.6985   21.6737 H   0  0  0  0  0  0  0  0  0  0  0  0
  1  2  1  0  0  0  0
  1  3  1  0  0  0  0
  1  4  1  0  0  0  0
  4  5  1  0  0  0  0
  4  6  1  0  0  0  0
  4  7  1  0  0  0  0
  7  8  1  0  0  0  0
  1  9  1  0  0  0  0
  7  9  1  0  0  0  0
  9 10  1  0  0  0  0
  9 11  1  0  0  0  0
  7 12  1  0  0  0  0
 12 13  1  0  0  0  0
M  END
> <VConfSearch Rank>
628

> <Conf_Id>
20

> <Delta U+W>
1.030

> <U+W>
-2.101

> <U>
0.841

> <W>
-2.942

> <W(PB)>
-4.530

> <W(SA)>
1.587

> <Valence>
6.736

> <Coulomb>
-7.246

> <VdW>
1.352

> <VdW6>
-2.500

> <VdW12>
3.851

> <Bond>
0.063

> <Angle>
0.687

> <Pdih>
5.986

> <Idih>
0.000

> <Tether>
0.000

$$$$
VeraChem MOL file


 13 13  0  0  0  0  0  0  0  0999 V2000     
   18.4996   18.7453   22.4221 C   0  0  0  0  0  0  0  0  0  0  0  0
   18.0502   17.8373   21.9989 H   0  0  0  0  0  0  0  0  0  0  0  0
   17.7238   19.3006   22.9627 H   0  0  0  0  0  0  0  0  0  0  0  0
   19.3655   19.5756   21.4180 C   0  0  0  0  0  0  0  0  0  0  0  0
   19.0427   19.5548   20.3712 H   0  0  0  0  0  0  0  0  0  0  0  0
   19.5347   20.6184   21.7134 H   0  0  0  0  0  0  0  0  0  0  0  0
   20.5177   18.5944   21.7905 C   0  0  0  0  0  0  0  0  0  0  0  0
   20.4946   17.6494   21.2308 H   0  0  0  0  0  0  0  0  0  0  0  0
   19.8413   18.5131   23.1923 C   0  0  0  0  0  0  0  0  0  0  0  0
   20.1169   19.3185   23.8843 H   0  0  0  0  0  0  0  0  0  0  0  0
   19.9388   17.5539   23.7126 H   0  0  0  0  0  0  0  0  0  0  0  0
   21.8119   19.1481   21.7750 O   0  0  0  0  0  0  0  0  0  0  0  0
   21.7710   19.9834   22.2862 H   0  0  0  0  0  0  0  0  0  0  0  0
  1  2  1  0  0  0  0
  1  3  1  0  0  0  0
  1  4  1  0  0  0  0
  4  5  1  0  0  0  0
  4  6  1  0  0  0  0
  4  7  1  0  0  0  0
  7  8  1  0  0  0  0
  1  9  1  0  0  0  0
  7  9  1  0  0  0  0
  9 10  1  0  0  0  0
  9 11  1  0  0  0  0
  7 12  1  0  0  0  0
 12 13  1  0  0  0  0
M  END
> <VConfSearch Rank>
629

> <Conf_Id>
24

> <Delta U+W>
0.356

> <U+W>
-2.775

> <U>
-0.184

> <W>
-2.591

> <W(PB)>
-4.184

> <W(SA)>
1.593

> <Valence>
6.840

> <Coulomb>
-7.916

> <VdW>
0.893

> <VdW6>
-2.167

> <VdW12>
3.060

> <Bond>
0.059

> <Angle>
0.918

> <Pdih>
5.862

> <Idih>
0.000

> <Tether>
0.000

$$$$
VeraChem MOL file


 13 13  0  0  0  0  0  0  0  0999 V2000     
   19.2923   18.0985   22.7964 C   0  0  0  0  0  0  0  0  0  0  0  0
   18.7217   17.7833   23.6781 H   0  0  0  0  0  0  0  0  0  0  0  0
   19.6111   17.2013   22.2509 H   0  0  0  0  0  0  0  0  0  0  0  0
   20.4236   19.1494   23.0535 C   0  0  0  0  0  0  0  0  0  0  0  0
   20.2248   19.8349   23.8863 H   0  0  0  0  0  0  0  0  0  0  0  0
   21.4378   18.7500   23.1658 H   0  0  0  0  0  0  0  0  0  0  0  0
   20.0727   19.7342   21.6503 C   0  0  0  0  0  0  0  0  0  0  0  0
   20.1569   20.8256   21.5719 H   0  0  0  0  0  0  0  0  0  0  0  0
   18.6282   19.2059   21.9116 C   0  0  0  0  0  0  0  0  0  0  0  0
   17.9893   19.9052   22.4645 H   0  0  0  0  0  0  0  0  0  0  0  0
   18.0797   18.8556   21.0301 H   0  0  0  0  0  0  0  0  0  0  0  0
   20.7408   19.1200   20.5695 O   0  0  0  0  0  0  0  0  0  0  0  0
   20.6330   18.1541   20.6912 H   0  0  0  0  0  0  0  0  0  0  0  0
  1  2  1  0  0  0  0
  1  3  1  0  0  0  0
  1  4  1  0  0  0  0
  4  5  1  0  0  0  0
  4  6  1  0  0  0  0
  4  7  1  0  0  0  0
  7  8  1  0  0  0  0
  1  9  1  0  0  0  0
  7  9  1  0  0  0  0
  9 10  1  0  0  0  0
  9 11  1  0  0  0  0
  7 12  1  0  0  0  0
 12 13  1  0  0  0  0
M  END
> <VConfSearch Rank>
630

> <Conf_Id>
44

> <Delta U+W>
0.823

> <U+W>
-2.308

> <U>
0.039

> <W>
-2.348

> <W(PB)>
-3.918

> <W(SA)>
1.571

> <Valence>
7.320

> <Coulomb>
-8.530

> <VdW>
1.249

> <VdW6>
-2.615

> <VdW12>
3.864

> <Bond>
0.056

> <Angle>
0.694

> <Pdih>
6.570

> <Idih>
0.000

> <Tether>
0.000

$$$$
VeraChem MOL file


 13 13  0  0  0  0  0  0  0  0999 V2000     
   19.4058   20.0276   21.4096 C   0  0  0  0  0  0  0  0  0  0  0  0
   19.3769   21.0145   21.8901 H   0  0  0  0  0  0  0  0  0  0  0  0
   19.2544   20.1582   20.3315 H   0  0  0  0  0  0  0  0  0  0  0  0
   18.5218   18.9373   22.1004 C   0  0  0  0  0  0  0  0  0  0  0  0
   17.6003   19.2913   22.5751 H   0  0  0  0  0  0  0  0  0  0  0  0
   18.2841   18.0712   21.4704 H   0  0  0  0  0  0  0  0  0  0  0  0
   19.7377   18.7286   23.0527 C   0  0  0  0  0  0  0  0  0  0  0  0
   19.7768   19.4453   23.8845 H   0  0  0  0  0  0  0  0  0  0  0  0
   20.6164   19.1302   21.8297 C   0  0  0  0  0  0  0  0  0  0  0  0
   21.5486   19.6563   22.0632 H   0  0  0  0  0  0  0  0  0  0  0  0
   20.8386   18.3077   21.1384 H   0  0  0  0  0  0  0  0  0  0  0  0
   19.9188   17.4114   23.5184 O   0  0  0  0  0  0  0  0  0  0  0  0
   20.7925   17.3783   23.9642 H   0  0  0  0  0  0  0  0  0  0  0  0
  1  2  1  0  0  0  0
  1  3  1  0  0  0  0
  1  4  1  0  0  0  0
  4  5  1  0  0  0  0
  4  6  1  0  0  0  0
  4  7  1  0  0  0  0
  7  8  1  0  0  0  0
  1  9  1  0  0  0  0
  7  9  1  0  0  0  0
  9 10  1  0  0  0  0
  9 11  1  0  0  0  0
  7 12  1  0  0  0  0
 12 13  1  0  0  0  0
M  END
> <VConfSearch Rank>
631

> <Conf_Id>
22

> <Delta U+W>
0.000

> <U+W>
-3.131

> <U>
-0.154

> <W>
-2.978

> <W(PB)>
-4.579

> <W(SA)>
1.601

> <Valence>
6.333

> <Coulomb>
-7.439

> <VdW>
0.952

> <VdW6>
-2.120

> <VdW12>
3.072

> <Bond>
0.065

> <Angle>
0.931

> <Pdih>
5.338

> <Idih>
0.000

> <Tether>
0.000

$$$$
VeraChem MOL file


 13 13  0  0  0  0  0  0  0  0999 V2000     
   19.3817   18.8675   20.9511 C   0  0  0  0  0  0  0  0  0  0  0  0
   20.0176   19.5347   20.3543 H   0  0  0  0  0  0  0  0  0  0  0  0
   18.6703   18.3698   20.2813 H   0  0  0  0  0  0  0  0  0  0  0  0
   18.7741   19.5194   22.2369 C   0  0  0  0  0  0  0  0  0  0  0  0
   17.9039   18.9938   22.6495 H   0  0  0  0  0  0  0  0  0  0  0  0
   18.5427   20.5882   22.1724 H   0  0  0  0  0  0  0  0  0  0  0  0
   20.1304   19.1570   22.9140 C   0  0  0  0  0  0  0  0  0  0  0  0
   20.9299   19.8877   22.7299 H   0  0  0  0  0  0  0  0  0  0  0  0
   20.1570   17.9386   21.9427 C   0  0  0  0  0  0  0  0  0  0  0  0
   19.5916   17.0660   22.2927 H   0  0  0  0  0  0  0  0  0  0  0  0
   21.1503   17.6085   21.6198 H   0  0  0  0  0  0  0  0  0  0  0  0
   20.0533   18.8342   24.2831 O   0  0  0  0  0  0  0  0  0  0  0  0
   19.8792   19.6689   24.7692 H   0  0  0  0  0  0  0  0  0  0  0  0
  1  2  1  0  0  0  0
  1  3  1  0  0  0  0
  1  4  1  0  0  0  0
  4  5  1  0  0  0  0
  4  6  1  0  0  0  0
  4  7  1  0  0  0  0
  7  8  1  0  0  0  0
  1  9  1  0  0  0  0
  7  9  1  0  0  0  0
  9 10  1  0  0  0  0
  9 11  1  0  0  0  0
  7 12  1  0  0  0  0
 12 13  1  0  0  0  0
M  END
> <VConfSearch Rank>
632

> <Conf_Id>
19

> <Delta U+W>
-0.011

> <U+W>
-3.142

> <U>
-0.154

> <W>
-2.989

> <W(PB)>
-4.588

> <W(SA)>
1.599

> <Valence>
6.334

> <Coulomb>
-7.439

> <VdW>
0.951

> <VdW6>
-2.120

> <VdW12>
3.072

> <Bond>
0.065

> <Angle>
0.930

> <Pdih>
5.339

> <Idih>
0.000

> <Tether>
0.000

$$$$
VeraChem MOL file


 13 13  0  0  0  0  0  0  0  0999 V2000     
   20.5677   18.8513   21.5045 C   0  0  0  0  0  0  0  0  0  0  0  0
   21.3138   19.3210   20.8529 H   0  0  0  0  0  0  0  0  0  0  0  0
   20.7508   17.7690   21.5247 H   0  0  0  0  0  0  0  0  0  0  0  0
   19.0775   19.2532   21.2462 C   0  0  0  0  0  0  0  0  0  0  0  0
   18.9403   20.2737   20.8688 H   0  0  0  0  0  0  0  0  0  0  0  0
   18.4955   18.5671   20.6209 H   0  0  0  0  0  0  0  0  0  0  0  0
   18.8706   19.1078   22.7862 C   0  0  0  0  0  0  0  0  0  0  0  0
   18.1665   19.8278   23.2228 H   0  0  0  0  0  0  0  0  0  0  0  0
   20.3748   19.5047   22.9132 C   0  0  0  0  0  0  0  0  0  0  0  0
   20.9258   19.0396   23.7380 H   0  0  0  0  0  0  0  0  0  0  0  0
   20.5527   20.5867   22.9399 H   0  0  0  0  0  0  0  0  0  0  0  0
   18.5590   17.8003   23.2236 O   0  0  0  0  0  0  0  0  0  0  0  0
   18.6266   17.7973   24.2022 H   0  0  0  0  0  0  0  0  0  0  0  0
  1  2  1  0  0  0  0
  1  3  1  0  0  0  0
  1  4  1  0  0  0  0
  4  5  1  0  0  0  0
  4  6  1  0  0  0  0
  4  7  1  0  0  0  0
  7  8  1  0  0  0  0
  1  9  1  0  0  0  0
  7  9  1  0  0  0  0
  9 10  1  0  0  0  0
  9 11  1  0  0  0  0
  7 12  1  0  0  0  0
 12 13  1  0  0  0  0
M  END
> <VConfSearch Rank>
633

> <Conf_Id>
20

> <Delta U+W>
1.030

> <U+W>
-2.101

> <U>
0.841

> <W>
-2.942

> <W(PB)>
-4.530

> <W(SA)>
1.587

> <Valence>
6.736

> <Coulomb>
-7.246

> <VdW>
1.352

> <VdW6>
-2.500

> <VdW12>
3.851

> <Bond>
0.063

> <Angle>
0.687

> <Pdih>
5.986

> <Idih>
0.000

> <Tether>
0.000

$$$$
VeraChem MOL file


 13 13  0  0  0  0  0  0  0  0999 V2000     
   20.3322   18.9336   23.3522 C   0  0  0  0  0  0  0  0  0  0  0  0
   20.4223   19.8800   23.9016 H   0  0  0  0  0  0  0  0  0  0  0  0
   20.7956   18.1378   23.9475 H   0  0  0  0  0  0  0  0  0  0  0  0
   20.7613   19.0063   21.8496 C   0  0  0  0  0  0  0  0  0  0  0  0
   21.5676   19.7089   21.6119 H   0  0  0  0  0  0  0  0  0  0  0  0
   20.9935   18.0364   21.3927 H   0  0  0  0  0  0  0  0  0  0  0  0
   19.3143   19.5234   21.5886 C   0  0  0  0  0  0  0  0  0  0  0  0
   19.1887   20.6001   21.7662 H   0  0  0  0  0  0  0  0  0  0  0  0
   18.9003   18.6326   22.7987 C   0  0  0  0  0  0  0  0  0  0  0  0
   18.7166   17.5791   22.5539 H   0  0  0  0  0  0  0  0  0  0  0  0
   18.0631   19.0051   23.3991 H   0  0  0  0  0  0  0  0  0  0  0  0
   18.7559   19.1570   20.3493 O   0  0  0  0  0  0  0  0  0  0  0  0
   18.8972   18.1926   20.2467 H   0  0  0  0  0  0  0  0  0  0  0  0
  1  2  1  0  0  0  0
  1  3  1  0  0  0  0
  1  4  1  0  0  0  0
  4  5  1  0  0  0  0
  4  6  1  0  0  0  0
  4  7  1  0  0  0  0
  7  8  1  0  0  0  0
  1  9  1  0  0  0  0
  7  9  1  0  0  0  0
  9 10  1  0  0  0  0
  9 11  1  0  0  0  0
  7 12  1  0  0  0  0
 12 13  1  0  0  0  0
M  END
> <VConfSearch Rank>
634

> <Conf_Id>
24

> <Delta U+W>
0.356

> <U+W>
-2.775

> <U>
-0.184

> <W>
-2.591

> <W(PB)>
-4.184

> <W(SA)>
1.593

> <Valence>
6.840

> <Coulomb>
-7.916

> <VdW>
0.893

> <VdW6>
-2.167

> <VdW12>
3.060

> <Bond>
0.059

> <Angle>
0.918

> <Pdih>
5.862

> <Idih>
0.000

> <Tether>
0.000

$$$$
VeraChem MOL file


 13 13  0  0  0  0  0  0  0  0999 V2000     
   18.8883   18.5432   22.8691 C   0  0  0  0  0  0  0  0  0  0  0  0
   18.2256   17.6898   23.0559 H   0  0  0  0  0  0  0  0  0  0  0  0
   18.6985   19.3039   23.6370 H   0  0  0  0  0  0  0  0  0  0  0  0
   18.9119   19.0824   21.3998 C   0  0  0  0  0  0  0  0  0  0  0  0
   18.7252   18.3197   20.6340 H   0  0  0  0  0  0  0  0  0  0  0  0
   18.2726   19.9479   21.1923 H   0  0  0  0  0  0  0  0  0  0  0  0
   20.4229   19.3916   21.6349 C   0  0  0  0  0  0  0  0  0  0  0  0
   21.0658   19.2410   20.7583 H   0  0  0  0  0  0  0  0  0  0  0  0
   20.3984   18.1999   22.6415 C   0  0  0  0  0  0  0  0  0  0  0  0
   20.5761   17.2208   22.1802 H   0  0  0  0  0  0  0  0  0  0  0  0
   21.0530   18.2972   23.5148 H   0  0  0  0  0  0  0  0  0  0  0  0
   20.6857   20.6509   22.2152 O   0  0  0  0  0  0  0  0  0  0  0  0
   20.0878   20.7296   22.9870 H   0  0  0  0  0  0  0  0  0  0  0  0
  1  2  1  0  0  0  0
  1  3  1  0  0  0  0
  1  4  1  0  0  0  0
  4  5  1  0  0  0  0
  4  6  1  0  0  0  0
  4  7  1  0  0  0  0
  7  8  1  0  0  0  0
  1  9  1  0  0  0  0
  7  9  1  0  0  0  0
  9 10  1  0  0  0  0
  9 11  1  0  0  0  0
  7 12  1  0  0  0  0
 12 13  1  0  0  0  0
M  END
> <VConfSearch Rank>
635

> <Conf_Id>
44

> <Delta U+W>
0.823

> <U+W>
-2.308

> <U>
0.039

> <W>
-2.348

> <W(PB)>
-3.918

> <W(SA)>
1.571

> <Valence>
7.320

> <Coulomb>
-8.530

> <VdW>
1.249

> <VdW6>
-2.615

> <VdW12>
3.864

> <Bond>
0.056

> <Angle>
0.694

> <Pdih>
6.570

> <Idih>
0.000

> <Tether>
0.000

$$$$
VeraChem MOL file


 13 13  0  0  0  0  0  0  0  0999 V2000     
   18.4301   19.2781   21.8535 C   0  0  0  0  0  0  0  0  0  0  0  0
   17.6976   19.2480   22.6709 H   0  0  0  0  0  0  0  0  0  0  0  0
   17.9110   19.5531   20.9277 H   0  0  0  0  0  0  0  0  0  0  0  0
   19.3690   18.0295   21.7699 C   0  0  0  0  0  0  0  0  0  0  0  0
   18.9329   17.0747   22.0830 H   0  0  0  0  0  0  0  0  0  0  0  0
   19.8640   17.8906   20.8007 H   0  0  0  0  0  0  0  0  0  0  0  0
   20.2358   18.7614   22.8384 C   0  0  0  0  0  0  0  0  0  0  0  0
   19.8817   18.6195   23.8687 H   0  0  0  0  0  0  0  0  0  0  0  0
   19.7353   20.0791   22.1733 C   0  0  0  0  0  0  0  0  0  0  0  0
   19.6216   20.9390   22.8426 H   0  0  0  0  0  0  0  0  0  0  0  0
   20.3089   20.3911   21.2916 H   0  0  0  0  0  0  0  0  0  0  0  0
   21.6227   18.5306   22.7498 O   0  0  0  0  0  0  0  0  0  0  0  0
   22.0621   19.1632   23.3580 H   0  0  0  0  0  0  0  0  0  0  0  0
  1  2  1  0  0  0  0
  1  3  1  0  0  0  0
  1  4  1  0  0  0  0
  4  5  1  0  0  0  0
  4  6  1  0  0  0  0
  4  7  1  0  0  0  0
  7  8  1  0  0  0  0
  1  9  1  0  0  0  0
  7  9  1  0  0  0  0
  9 10  1  0  0  0  0
  9 11  1  0  0  0  0
  7 12  1  0  0  0  0
 12 13  1  0  0  0  0
M  END
> <VConfSearch Rank>
636

> <Conf_Id>
22

> <Delta U+W>
0.000

> <U+W>
-3.131

> <U>
-0.154

> <W>
-2.978

> <W(PB)>
-4.579

> <W(SA)>
1.601

> <Valence>
6.333

> <Coulomb>
-7.439

> <VdW>
0.952

> <VdW6>
-2.120

> <VdW12>
3.072

> <Bond>
0.065

> <Angle>
0.931

> <Pdih>
5.338

> <Idih>
0.000

> <Tether>
0.000

$$$$
VeraChem MOL file


 13 13  0  0  0  0  0  0  0  0999 V2000     
   18.9384   19.8744   22.8491 C   0  0  0  0  0  0  0  0  0  0  0  0
   18.8888   20.8099   22.2766 H   0  0  0  0  0  0  0  0  0  0  0  0
   18.4261   20.0224   23.8073 H   0  0  0  0  0  0  0  0  0  0  0  0
   20.3605   19.2268   22.9233 C   0  0  0  0  0  0  0  0  0  0  0  0
   20.4920   18.5019   23.7363 H   0  0  0  0  0  0  0  0  0  0  0  0
   21.2072   19.9220   22.9303 H   0  0  0  0  0  0  0  0  0  0  0  0
   20.0113   18.5945   21.5421 C   0  0  0  0  0  0  0  0  0  0  0  0
   20.1871   19.2633   20.6884 H   0  0  0  0  0  0  0  0  0  0  0  0
   18.5365   18.5935   22.0459 C   0  0  0  0  0  0  0  0  0  0  0  0
   18.2683   17.7281   22.6646 H   0  0  0  0  0  0  0  0  0  0  0  0
   17.7698   18.7268   21.2750 H   0  0  0  0  0  0  0  0  0  0  0  0
   20.5672   17.3222   21.3038 O   0  0  0  0  0  0  0  0  0  0  0  0
   21.5289   17.4486   21.1544 H   0  0  0  0  0  0  0  0  0  0  0  0
  1  2  1  0  0  0  0
  1  3  1  0  0  0  0
  1  4  1  0  0  0  0
  4  5  1  0  0  0  0
  4  6  1  0  0  0  0
  4  7  1  0  0  0  0
  7  8  1  0  0  0  0
  1  9  1  0  0  0  0
  7  9  1  0  0  0  0
  9 10  1  0  0  0  0
  9 11  1  0  0  0  0
  7 12  1  0  0  0  0
 12 13  1  0  0  0  0
M  END
> <VConfSearch Rank>
637

> <Conf_Id>
19

> <Delta U+W>
-0.011

> <U+W>
-3.142

> <U>
-0.154

> <W>
-2.989

> <W(PB)>
-4.588

> <W(SA)>
1.599

> <Valence>
6.334

> <Coulomb>
-7.439

> <VdW>
0.951

> <VdW6>
-2.120

> <VdW12>
3.072

> <Bond>
0.065

> <Angle>
0.930

> <Pdih>
5.339

> <Idih>
0.000

> <Tether>
0.000

$$$$
VeraChem MOL file


 13 13  0  0  0  0  0  0  0  0999 V2000     
   20.0435   18.1796   21.5159 C   0  0  0  0  0  0  0  0  0  0  0  0
   20.8317   17.4388   21.3372 H   0  0  0  0  0  0  0  0  0  0  0  0
   19.2788   18.0738   20.7354 H   0  0  0  0  0  0  0  0  0  0  0  0
   20.5227   19.6492   21.7606 C   0  0  0  0  0  0  0  0  0  0  0  0
   21.5024   19.7334   22.2463 H   0  0  0  0  0  0  0  0  0  0  0  0
   20.5056   20.3124   20.8887 H   0  0  0  0  0  0  0  0  0  0  0  0
   19.3119   19.7808   22.7363 C   0  0  0  0  0  0  0  0  0  0  0  0
   19.5013   20.4063   23.6182 H   0  0  0  0  0  0  0  0  0  0  0  0
   19.4798   18.2474   22.9740 C   0  0  0  0  0  0  0  0  0  0  0  0
   18.5570   17.6865   23.1588 H   0  0  0  0  0  0  0  0  0  0  0  0
   20.2070   17.9911   23.7541 H   0  0  0  0  0  0  0  0  0  0  0  0
   18.0948   20.1608   22.1260 O   0  0  0  0  0  0  0  0  0  0  0  0
   17.3853   20.0398   22.7924 H   0  0  0  0  0  0  0  0  0  0  0  0
  1  2  1  0  0  0  0
  1  3  1  0  0  0  0
  1  4  1  0  0  0  0
  4  5  1  0  0  0  0
  4  6  1  0  0  0  0
  4  7  1  0  0  0  0
  7  8  1  0  0  0  0
  1  9  1  0  0  0  0
  7  9  1  0  0  0  0
  9 10  1  0  0  0  0
  9 11  1  0  0  0  0
  7 12  1  0  0  0  0
 12 13  1  0  0  0  0
M  END
> <VConfSearch Rank>
638

> <Conf_Id>
20

> <Delta U+W>
1.030

> <U+W>
-2.101

> <U>
0.841

> <W>
-2.942

> <W(PB)>
-4.530

> <W(SA)>
1.587

> <Valence>
6.736

> <Coulomb>
-7.246

> <VdW>
1.352

> <VdW6>
-2.500

> <VdW12>
3.851

> <Bond>
0.063

> <Angle>
0.687

> <Pdih>
5.986

> <Idih>
0.000

> <Tether>
0.000

$$$$
VeraChem MOL file


 13 13  0  0  0  0  0  0  0  0999 V2000     
   20.9022   19.1341   21.6876 C   0  0  0  0  0  0  0  0  0  0  0  0
   21.2096   20.1634   21.4601 H   0  0  0  0  0  0  0  0  0  0  0  0
   21.7106   18.4542   21.3930 H   0  0  0  0  0  0  0  0  0  0  0  0
   19.4689   18.7541   21.1891 C   0  0  0  0  0  0  0  0  0  0  0  0
   19.1355   19.2391   20.2651 H   0  0  0  0  0  0  0  0  0  0  0  0
   19.2838   17.6760   21.1074 H   0  0  0  0  0  0  0  0  0  0  0  0
   18.9689   19.4057   22.5138 C   0  0  0  0  0  0  0  0  0  0  0  0
   18.8670   20.4981   22.4605 H   0  0  0  0  0  0  0  0  0  0  0  0
   20.3206   18.9279   23.1252 C   0  0  0  0  0  0  0  0  0  0  0  0
   20.3258   17.8886   23.4761 H   0  0  0  0  0  0  0  0  0  0  0  0
   20.7393   19.5663   23.9109 H   0  0  0  0  0  0  0  0  0  0  0  0
   17.8141   18.8270   23.0737 O   0  0  0  0  0  0  0  0  0  0  0  0
   17.9623   17.8584   23.0955 H   0  0  0  0  0  0  0  0  0  0  0  0
  1  2  1  0  0  0  0
  1  3  1  0  0  0  0
  1  4  1  0  0  0  0
  4  5  1  0  0  0  0
  4  6  1  0  0  0  0
  4  7  1  0  0  0  0
  7  8  1  0  0  0  0
  1  9  1  0  0  0  0
  7  9  1  0  0  0  0
  9 10  1  0  0  0  0
  9 11  1  0  0  0  0
  7 12  1  0  0  0  0
 12 13  1  0  0  0  0
M  END
> <VConfSearch Rank>
639

> <Conf_Id>
24

> <Delta U+W>
0.356

> <U+W>
-2.775

> <U>
-0.184

> <W>
-2.591

> <W(PB)>
-4.184

> <W(SA)>
1.593

> <Valence>
6.840

> <Coulomb>
-7.916

> <VdW>
0.893

> <VdW6>
-2.167

> <VdW12>
3.060

> <Bond>
0.059

> <Angle>
0.918

> <Pdih>
5.862

> <Idih>
0.000

> <Tether>
0.000

$$$$
VeraChem MOL file


 13 13  0  0  0  0  0  0  0  0999 V2000     
   18.6735   18.5542   21.9796 C   0  0  0  0  0  0  0  0  0  0  0  0
   17.8810   18.4565   21.2281 H   0  0  0  0  0  0  0  0  0  0  0  0
   18.3522   18.0351   22.8916 H   0  0  0  0  0  0  0  0  0  0  0  0
   19.2273   20.0007   22.2057 C   0  0  0  0  0  0  0  0  0  0  0  0
   19.1936   20.6431   21.3174 H   0  0  0  0  0  0  0  0  0  0  0  0
   18.8035   20.5537   23.0515 H   0  0  0  0  0  0  0  0  0  0  0  0
   20.6145   19.3317   22.4550 C   0  0  0  0  0  0  0  0  0  0  0  0
   21.4751   19.9046   22.0867 H   0  0  0  0  0  0  0  0  0  0  0  0
   20.1207   18.2033   21.4974 C   0  0  0  0  0  0  0  0  0  0  0  0
   20.3060   18.4050   20.4353 H   0  0  0  0  0  0  0  0  0  0  0  0
   20.4745   17.1919   21.7266 H   0  0  0  0  0  0  0  0  0  0  0  0
   20.8425   18.9205   23.7857 O   0  0  0  0  0  0  0  0  0  0  0  0
   20.0478   18.4177   24.0594 H   0  0  0  0  0  0  0  0  0  0  0  0
  1  2  1  0  0  0  0
  1  3  1  0  0  0  0
  1  4  1  0  0  0  0
  4  5  1  0  0  0  0
  4  6  1  0  0  0  0
  4  7  1  0  0  0  0
  7  8  1  0  0  0  0
  1  9  1  0  0  0  0
  7  9  1  0  0  0  0
  9 10  1  0  0  0  0
  9 11  1  0  0  0  0
  7 12  1  0  0  0  0
 12 13  1  0  0  0  0
M  END
> <VConfSearch Rank>
640

> <Conf_Id>
44

> <Delta U+W>
0.823

> <U+W>
-2.308

> <U>
0.039

> <W>
-2.348

> <W(PB)>
-3.918

> <W(SA)>
1.571

> <Valence>
7.320

> <Coulomb>
-8.530

> <VdW>
1.249

> <VdW6>
-2.615

> <VdW12>
3.864

> <Bond>
0.056

> <Angle>
0.694

> <Pdih>
6.570

> <Idih>
0.000

> <Tether>
0.000

$$$$
VeraChem MOL file


 13 13  0  0  0  0  0  0  0  0999 V2000     
   20.8845   19.1401   22.7483 C   0  0  0  0  0  0  0  0  0  0  0  0
   20.9099   19.5816   23.7533 H   0  0  0  0  0  0  0  0  0  0  0  0
   21.9044   18.8536   22.4655 H   0  0  0  0  0  0  0  0  0  0  0  0
   20.0851   19.9690   21.6894 C   0  0  0  0  0  0  0  0  0  0  0  0
   20.1050   21.0574   21.8118 H   0  0  0  0  0  0  0  0  0  0  0  0
   20.3179   19.7270   20.6450 H   0  0  0  0  0  0  0  0  0  0  0  0
   18.8249   19.2466   22.2540 C   0  0  0  0  0  0  0  0  0  0  0  0
   18.4141   19.7151   23.1589 H   0  0  0  0  0  0  0  0  0  0  0  0
   19.7819   18.0500   22.5399 C   0  0  0  0  0  0  0  0  0  0  0  0
   19.5355   17.4397   23.4157 H   0  0  0  0  0  0  0  0  0  0  0  0
   19.9503   17.3862   21.6828 H   0  0  0  0  0  0  0  0  0  0  0  0
   17.8055   18.9922   21.3156 O   0  0  0  0  0  0  0  0  0  0  0  0
   17.1537   18.3994   21.7479 H   0  0  0  0  0  0  0  0  0  0  0  0
  1  2  1  0  0  0  0
  1  3  1  0  0  0  0
  1  4  1  0  0  0  0
  4  5  1  0  0  0  0
  4  6  1  0  0  0  0
  4  7  1  0  0  0  0
  7  8  1  0  0  0  0
  1  9  1  0  0  0  0
  7  9  1  0  0  0  0
  9 10  1  0  0  0  0
  9 11  1  0  0  0  0
  7 12  1  0  0  0  0
 12 13  1  0  0  0  0
M  END
> <VConfSearch Rank>
641

> <Conf_Id>
22

> <Delta U+W>
0.000

> <U+W>
-3.131

> <U>
-0.154

> <W>
-2.978

> <W(PB)>
-4.579

> <W(SA)>
1.601

> <Valence>
6.333

> <Coulomb>
-7.439

> <VdW>
0.952

> <VdW6>
-2.120

> <VdW12>
3.072

> <Bond>
0.065

> <Angle>
0.931

> <Pdih>
5.338

> <Idih>
0.000

> <Tether>
0.000

$$$$
VeraChem MOL file


 13 13  0  0  0  0  0  0  0  0999 V2000     
   20.3029   19.8650   22.8827 C   0  0  0  0  0  0  0  0  0  0  0  0
   19.8308   20.8548   22.8272 H   0  0  0  0  0  0  0  0  0  0  0  0
   21.2513   19.9590   23.4250 H   0  0  0  0  0  0  0  0  0  0  0  0
   20.3618   19.0908   21.5246 C   0  0  0  0  0  0  0  0  0  0  0  0
   21.0981   18.2780   21.4922 H   0  0  0  0  0  0  0  0  0  0  0  0
   20.4740   19.7045   20.6241 H   0  0  0  0  0  0  0  0  0  0  0  0
   18.9095   18.6357   21.8606 C   0  0  0  0  0  0  0  0  0  0  0  0
   18.1383   19.3699   21.5899 H   0  0  0  0  0  0  0  0  0  0  0  0
   19.3544   18.7129   23.3522 C   0  0  0  0  0  0  0  0  0  0  0  0
   19.8678   17.8160   23.7203 H   0  0  0  0  0  0  0  0  0  0  0  0
   18.5735   18.9909   24.0684 H   0  0  0  0  0  0  0  0  0  0  0  0
   18.5593   17.3504   21.4023 O   0  0  0  0  0  0  0  0  0  0  0  0
   18.4604   17.4064   20.4275 H   0  0  0  0  0  0  0  0  0  0  0  0
  1  2  1  0  0  0  0
  1  3  1  0  0  0  0
  1  4  1  0  0  0  0
  4  5  1  0  0  0  0
  4  6  1  0  0  0  0
  4  7  1  0  0  0  0
  7  8  1  0  0  0  0
  1  9  1  0  0  0  0
  7  9  1  0  0  0  0
  9 10  1  0  0  0  0
  9 11  1  0  0  0  0
  7 12  1  0  0  0  0
 12 13  1  0  0  0  0
M  END
> <VConfSearch Rank>
642

> <Conf_Id>
19

> <Delta U+W>
-0.011

> <U+W>
-3.142

> <U>
-0.154

> <W>
-2.989

> <W(PB)>
-4.588

> <W(SA)>
1.599

> <Valence>
6.334

> <Coulomb>
-7.439

> <VdW>
0.951

> <VdW6>
-2.120

> <VdW12>
3.072

> <Bond>
0.065

> <Angle>
0.930

> <Pdih>
5.339

> <Idih>
0.000

> <Tether>
0.000

$$$$
VeraChem MOL file


 13 13  0  0  0  0  0  0  0  0999 V2000     
   18.9619   18.4970   21.4097 C   0  0  0  0  0  0  0  0  0  0  0  0
   18.9779   18.0582   20.4051 H   0  0  0  0  0  0  0  0  0  0  0  0
   17.9692   18.3331   21.8487 H   0  0  0  0  0  0  0  0  0  0  0  0
   19.4900   19.9654   21.5281 C   0  0  0  0  0  0  0  0  0  0  0  0
   20.2731   20.2268   20.8062 H   0  0  0  0  0  0  0  0  0  0  0  0
   18.7283   20.7528   21.5194 H   0  0  0  0  0  0  0  0  0  0  0  0
   20.0279   19.5578   22.9352 C   0  0  0  0  0  0  0  0  0  0  0  0
   20.9796   20.0278   23.2145 H   0  0  0  0  0  0  0  0  0  0  0  0
   20.1575   18.1184   22.3456 C   0  0  0  0  0  0  0  0  0  0  0  0
   19.9776   17.2951   23.0456 H   0  0  0  0  0  0  0  0  0  0  0  0
   21.1027   17.9316   21.8215 H   0  0  0  0  0  0  0  0  0  0  0  0
   19.0954   19.6896   23.9894 O   0  0  0  0  0  0  0  0  0  0  0  0
   19.4804   19.2462   24.7751 H   0  0  0  0  0  0  0  0  0  0  0  0
  1  2  1  0  0  0  0
  1  3  1  0  0  0  0
  1  4  1  0  0  0  0
  4  5  1  0  0  0  0
  4  6  1  0  0  0  0
  4  7  1  0  0  0  0
  7  8  1  0  0  0  0
  1  9  1  0  0  0  0
  7  9  1  0  0  0  0
  9 10  1  0  0  0  0
  9 11  1  0  0  0  0
  7 12  1  0  0  0  0
 12 13  1  0  0  0  0
M  END
> <VConfSearch Rank>
643

> <Conf_Id>
20

> <Delta U+W>
1.030

> <U+W>
-2.101

> <U>
0.841

> <W>
-2.942

> <W(PB)>
-4.530

> <W(SA)>
1.587

> <Valence>
6.736

> <Coulomb>
-7.246

> <VdW>
1.352

> <VdW6>
-2.500

> <VdW12>
3.851

> <Bond>
0.063

> <Angle>
0.687

> <Pdih>
5.986

> <Idih>
0.000

> <Tether>
0.000

$$$$
VeraChem MOL file


 13 13  0  0  0  0  0  0  0  0999 V2000     
   20.5508   18.3259   21.4357 C   0  0  0  0  0  0  0  0  0  0  0  0
   21.6223   18.5539   21.5103 H   0  0  0  0  0  0  0  0  0  0  0  0
   20.4084   17.5625   20.6615 H   0  0  0  0  0  0  0  0  0  0  0  0
   19.6202   19.5801   21.3435 C   0  0  0  0  0  0  0  0  0  0  0  0
   20.0368   20.4528   20.8287 H   0  0  0  0  0  0  0  0  0  0  0  0
   18.6196   19.3787   20.9414 H   0  0  0  0  0  0  0  0  0  0  0  0
   19.7073   19.6067   22.8994 C   0  0  0  0  0  0  0  0  0  0  0  0
   20.6053   20.1080   23.2854 H   0  0  0  0  0  0  0  0  0  0  0  0
   19.8425   18.0569   22.8044 C   0  0  0  0  0  0  0  0  0  0  0  0
   18.8917   17.5152   22.7289 H   0  0  0  0  0  0  0  0  0  0  0  0
   20.4556   17.5845   23.5799 H   0  0  0  0  0  0  0  0  0  0  0  0
   18.5560   20.0736   23.5614 O   0  0  0  0  0  0  0  0  0  0  0  0
   17.7921   19.5940   23.1777 H   0  0  0  0  0  0  0  0  0  0  0  0
  1  2  1  0  0  0  0
  1  3  1  0  0  0  0
  1  4  1  0  0  0  0
  4  5  1  0  0  0  0
  4  6  1  0  0  0  0
  4  7  1  0  0  0  0
  7  8  1  0  0  0  0
  1  9  1  0  0  0  0
  7  9  1  0  0  0  0
  9 10  1  0  0  0  0
  9 11  1  0  0  0  0
  7 12  1  0  0  0  0
 12 13  1  0  0  0  0
M  END
> <VConfSearch Rank>
644

> <Conf_Id>
24

> <Delta U+W>
0.356

> <U+W>
-2.775

> <U>
-0.184

> <W>
-2.591

> <W(PB)>
-4.184

> <W(SA)>
1.593

> <Valence>
6.840

> <Coulomb>
-7.916

> <VdW>
0.893

> <VdW6>
-2.167

> <VdW12>
3.060

> <Bond>
0.059

> <Angle>
0.918

> <Pdih>
5.862

> <Idih>
0.000

> <Tether>
0.000

$$$$
VeraChem MOL file


 13 13  0  0  0  0  0  0  0  0999 V2000     
   20.7874   18.8293   21.9884 C   0  0  0  0  0  0  0  0  0  0  0  0
   21.6320   18.1300   21.9955 H   0  0  0  0  0  0  0  0  0  0  0  0
   21.1421   19.7972   21.6120 H   0  0  0  0  0  0  0  0  0  0  0  0
   19.9493   18.9032   23.3083 C   0  0  0  0  0  0  0  0  0  0  0  0
   19.9165   17.9663   23.8777 H   0  0  0  0  0  0  0  0  0  0  0  0
   20.2004   19.7193   23.9951 H   0  0  0  0  0  0  0  0  0  0  0  0
   18.7051   19.1377   22.3967 C   0  0  0  0  0  0  0  0  0  0  0  0
   17.7760   18.6789   22.7583 H   0  0  0  0  0  0  0  0  0  0  0  0
   19.4713   18.3058   21.3221 C   0  0  0  0  0  0  0  0  0  0  0  0
   19.3214   17.2224   21.4044 H   0  0  0  0  0  0  0  0  0  0  0  0
   19.3064   18.6019   20.2801 H   0  0  0  0  0  0  0  0  0  0  0  0
   18.4734   20.4853   22.0472 O   0  0  0  0  0  0  0  0  0  0  0  0
   19.3306   20.8407   21.7340 H   0  0  0  0  0  0  0  0  0  0  0  0
  1  2  1  0  0  0  0
  1  3  1  0  0  0  0
  1  4  1  0  0  0  0
  4  5  1  0  0  0  0
  4  6  1  0  0  0  0
  4  7  1  0  0  0  0
  7  8  1  0  0  0  0
  1  9  1  0  0  0  0
  7  9  1  0  0  0  0
  9 10  1  0  0  0  0
  9 11  1  0  0  0  0
  7 12  1  0  0  0  0
 12 13  1  0  0  0  0
M  END
> <VConfSearch Rank>
645

> <Conf_Id>
44

> <Delta U+W>
0.823

> <U+W>
-2.308

> <U>
0.039

> <W>
-2.348

> <W(PB)>
-3.918

> <W(SA)>
1.571

> <Valence>
7.320

> <Coulomb>
-8.530

> <VdW>
1.249

> <VdW6>
-2.615

> <VdW12>
3.864

> <Bond>
0.056

> <Angle>
0.694

> <Pdih>
6.570

> <Idih>
0.000

> <Tether>
0.000

$$$$
VeraChem MOL file


 13 13  0  0  0  0  0  0  0  0999 V2000     
   19.5376   19.9278   21.2780 C   0  0  0  0  0  0  0  0  0  0  0  0
   20.4531   20.5030   21.0864 H   0  0  0  0  0  0  0  0  0  0  0  0
   18.7747   20.2309   20.5511 H   0  0  0  0  0  0  0  0  0  0  0  0
   19.0858   19.8967   22.7754 C   0  0  0  0  0  0  0  0  0  0  0  0
   19.3064   20.7926   23.3659 H   0  0  0  0  0  0  0  0  0  0  0  0
   18.0360   19.6196   22.9333 H   0  0  0  0  0  0  0  0  0  0  0  0
   20.0944   18.7186   22.9288 C   0  0  0  0  0  0  0  0  0  0  0  0
   21.1323   19.0421   23.0875 H   0  0  0  0  0  0  0  0  0  0  0  0
   19.7550   18.3875   21.4441 C   0  0  0  0  0  0  0  0  0  0  0  0
   20.5674   17.9488   20.8545 H   0  0  0  0  0  0  0  0  0  0  0  0
   18.8516   17.7801   21.3076 H   0  0  0  0  0  0  0  0  0  0  0  0
   19.7295   17.7314   23.8651 O   0  0  0  0  0  0  0  0  0  0  0  0
   20.3489   16.9788   23.7504 H   0  0  0  0  0  0  0  0  0  0  0  0
  1  2  1  0  0  0  0
  1  3  1  0  0  0  0
  1  4  1  0  0  0  0
  4  5  1  0  0  0  0
  4  6  1  0  0  0  0
  4  7  1  0  0  0  0
  7  8  1  0  0  0  0
  1  9  1  0  0  0  0
  7  9  1  0  0  0  0
  9 10  1  0  0  0  0
  9 11  1  0  0  0  0
  7 12  1  0  0  0  0
 12 13  1  0  0  0  0
M  END
> <VConfSearch Rank>
646

> <Conf_Id>
22

> <Delta U+W>
0.000

> <U+W>
-3.131

> <U>
-0.154

> <W>
-2.978

> <W(PB)>
-4.579

> <W(SA)>
1.601

> <Valence>
6.333

> <Coulomb>
-7.439

> <VdW>
0.952

> <VdW6>
-2.120

> <VdW12>
3.072

> <Bond>
0.065

> <Angle>
0.931

> <Pdih>
5.338

> <Idih>
0.000

> <Tether>
0.000

$$$$
VeraChem MOL file


 13 13  0  0  0  0  0  0  0  0999 V2000     
   18.4466   18.6947   22.7835 C   0  0  0  0  0  0  0  0  0  0  0  0
   17.6086   18.9974   22.1418 H   0  0  0  0  0  0  0  0  0  0  0  0
   18.0442   18.3239   23.7337 H   0  0  0  0  0  0  0  0  0  0  0  0
   19.6022   19.7438   22.8893 C   0  0  0  0  0  0  0  0  0  0  0  0
   20.2647   19.6099   23.7536 H   0  0  0  0  0  0  0  0  0  0  0  0
   19.3045   20.7966   22.8329 H   0  0  0  0  0  0  0  0  0  0  0  0
   20.1306   19.1148   21.5648 C   0  0  0  0  0  0  0  0  0  0  0  0
   19.6449   19.5063   20.6604 H   0  0  0  0  0  0  0  0  0  0  0  0
   19.5094   17.7836   22.0853 C   0  0  0  0  0  0  0  0  0  0  0  0
   20.1533   17.2194   22.7714 H   0  0  0  0  0  0  0  0  0  0  0  0
   19.1313   17.1016   21.3159 H   0  0  0  0  0  0  0  0  0  0  0  0
   21.5316   19.1085   21.4174 O   0  0  0  0  0  0  0  0  0  0  0  0
   21.8101   20.0340   21.2470 H   0  0  0  0  0  0  0  0  0  0  0  0
  1  2  1  0  0  0  0
  1  3  1  0  0  0  0
  1  4  1  0  0  0  0
  4  5  1  0  0  0  0
  4  6  1  0  0  0  0
  4  7  1  0  0  0  0
  7  8  1  0  0  0  0
  1  9  1  0  0  0  0
  7  9  1  0  0  0  0
  9 10  1  0  0  0  0
  9 11  1  0  0  0  0
  7 12  1  0  0  0  0
 12 13  1  0  0  0  0
M  END
> <VConfSearch Rank>
647

> <Conf_Id>
19

> <Delta U+W>
-0.011

> <U+W>
-3.142

> <U>
-0.154

> <W>
-2.989

> <W(PB)>
-4.588

> <W(SA)>
1.599

> <Valence>
6.334

> <Coulomb>
-7.439

> <VdW>
0.951

> <VdW6>
-2.120

> <VdW12>
3.072

> <Bond>
0.065

> <Angle>
0.930

> <Pdih>
5.339

> <Idih>
0.000

> <Tether>
0.000

$$$$
VeraChem MOL file


 13 13  0  0  0  0  0  0  0  0999 V2000     
   19.8930   18.4831   21.2201 C   0  0  0  0  0  0  0  0  0  0  0  0
   20.3428   18.5927   20.2264 H   0  0  0  0  0  0  0  0  0  0  0  0
   19.6020   17.4338   21.3600 H   0  0  0  0  0  0  0  0  0  0  0  0
   18.7814   19.5203   21.5910 C   0  0  0  0  0  0  0  0  0  0  0  0
   18.9084   20.5076   21.1305 H   0  0  0  0  0  0  0  0  0  0  0  0
   17.7472   19.1927   21.4379 H   0  0  0  0  0  0  0  0  0  0  0  0
   19.3134   19.4244   23.0549 C   0  0  0  0  0  0  0  0  0  0  0  0
   19.2772   20.3665   23.6171 H   0  0  0  0  0  0  0  0  0  0  0  0
   20.6980   19.0993   22.4122 C   0  0  0  0  0  0  0  0  0  0  0  0
   21.3355   18.4052   22.9710 H   0  0  0  0  0  0  0  0  0  0  0  0
   21.2903   19.9845   22.1504 H   0  0  0  0  0  0  0  0  0  0  0  0
   18.7521   18.3800   23.8245 O   0  0  0  0  0  0  0  0  0  0  0  0
   19.2803   18.3096   24.6481 H   0  0  0  0  0  0  0  0  0  0  0  0
  1  2  1  0  0  0  0
  1  3  1  0  0  0  0
  1  4  1  0  0  0  0
  4  5  1  0  0  0  0
  4  6  1  0  0  0  0
  4  7  1  0  0  0  0
  7  8  1  0  0  0  0
  1  9  1  0  0  0  0
  7  9  1  0  0  0  0
  9 10  1  0  0  0  0
  9 11  1  0  0  0  0
  7 12  1  0  0  0  0
 12 13  1  0  0  0  0
M  END
> <VConfSearch Rank>
648

> <Conf_Id>
20

> <Delta U+W>
1.030

> <U+W>
-2.101

> <U>
0.841

> <W>
-2.942

> <W(PB)>
-4.530

> <W(SA)>
1.587

> <Valence>
6.736

> <Coulomb>
-7.246

> <VdW>
1.352

> <VdW6>
-2.500

> <VdW12>
3.851

> <Bond>
0.063

> <Angle>
0.687

> <Pdih>
5.986

> <Idih>
0.000

> <Tether>
0.000

$$$$
VeraChem MOL file


 13 13  0  0  0  0  0  0  0  0999 V2000     
   20.6724   18.4846   21.4596 C   0  0  0  0  0  0  0  0  0  0  0  0
   21.1050   17.5098   21.7210 H   0  0  0  0  0  0  0  0  0  0  0  0
   21.1668   18.8552   20.5537 H   0  0  0  0  0  0  0  0  0  0  0  0
   20.5706   19.4952   22.6493 C   0  0  0  0  0  0  0  0  0  0  0  0
   21.3558   19.4250   23.4101 H   0  0  0  0  0  0  0  0  0  0  0  0
   20.4635   20.5451   22.3499 H   0  0  0  0  0  0  0  0  0  0  0  0
   19.2327   18.7715   22.9890 C   0  0  0  0  0  0  0  0  0  0  0  0
   19.3617   17.8525   23.5768 H   0  0  0  0  0  0  0  0  0  0  0  0
   19.1085   18.5260   21.4549 C   0  0  0  0  0  0  0  0  0  0  0  0
   18.6747   19.3593   20.8885 H   0  0  0  0  0  0  0  0  0  0  0  0
   18.6026   17.5999   21.1607 H   0  0  0  0  0  0  0  0  0  0  0  0
   18.2320   19.5847   23.5539 O   0  0  0  0  0  0  0  0  0  0  0  0
   18.1623   20.3840   22.9908 H   0  0  0  0  0  0  0  0  0  0  0  0
  1  2  1  0  0  0  0
  1  3  1  0  0  0  0
  1  4  1  0  0  0  0
  4  5  1  0  0  0  0
  4  6  1  0  0  0  0
  4  7  1  0  0  0  0
  7  8  1  0  0  0  0
  1  9  1  0  0  0  0
  7  9  1  0  0  0  0
  9 10  1  0  0  0  0
  9 11  1  0  0  0  0
  7 12  1  0  0  0  0
 12 13  1  0  0  0  0
M  END
> <VConfSearch Rank>
649

> <Conf_Id>
24

> <Delta U+W>
0.356

> <U+W>
-2.775

> <U>
-0.184

> <W>
-2.591

> <W(PB)>
-4.184

> <W(SA)>
1.593

> <Valence>
6.840

> <Coulomb>
-7.916

> <VdW>
0.893

> <VdW6>
-2.167

> <VdW12>
3.060

> <Bond>
0.059

> <Angle>
0.918

> <Pdih>
5.862

> <Idih>
0.000

> <Tether>
0.000

$$$$
VeraChem MOL file


 13 13  0  0  0  0  0  0  0  0999 V2000     
   20.5119   18.3534   22.6727 C   0  0  0  0  0  0  0  0  0  0  0  0
   20.8351   17.7912   23.5569 H   0  0  0  0  0  0  0  0  0  0  0  0
   21.3076   18.3009   21.9187 H   0  0  0  0  0  0  0  0  0  0  0  0
   19.9541   19.7909   22.9422 C   0  0  0  0  0  0  0  0  0  0  0  0
   19.4587   19.9102   23.9134 H   0  0  0  0  0  0  0  0  0  0  0  0
   20.6618   20.6168   22.8086 H   0  0  0  0  0  0  0  0  0  0  0  0
   18.9745   19.5337   21.7555 C   0  0  0  0  0  0  0  0  0  0  0  0
   17.9766   19.9736   21.8783 H   0  0  0  0  0  0  0  0  0  0  0  0
   19.0772   18.0252   22.1399 C   0  0  0  0  0  0  0  0  0  0  0  0
   18.3667   17.7116   22.9145 H   0  0  0  0  0  0  0  0  0  0  0  0
   19.0215   17.3141   21.3080 H   0  0  0  0  0  0  0  0  0  0  0  0
   19.4904   19.8561   20.4820 O   0  0  0  0  0  0  0  0  0  0  0  0
   20.3757   19.4404   20.4293 H   0  0  0  0  0  0  0  0  0  0  0  0
  1  2  1  0  0  0  0
  1  3  1  0  0  0  0
  1  4  1  0  0  0  0
  4  5  1  0  0  0  0
  4  6  1  0  0  0  0
  4  7  1  0  0  0  0
  7  8  1  0  0  0  0
  1  9  1  0  0  0  0
  7  9  1  0  0  0  0
  9 10  1  0  0  0  0
  9 11  1  0  0  0  0
  7 12  1  0  0  0  0
 12 13  1  0  0  0  0
M  END
> <VConfSearch Rank>
650

> <Conf_Id>
44

> <Delta U+W>
0.823

> <U+W>
-2.308

> <U>
0.039

> <W>
-2.348

> <W(PB)>
-3.918

> <W(SA)>
1.571

> <Valence>
7.320

> <Coulomb>
-8.530

> <VdW>
1.249

> <VdW6>
-2.615

> <VdW12>
3.864

> <Bond>
0.056

> <Angle>
0.694

> <Pdih>
6.570

> <Idih>
0.000

> <Tether>
0.000

$$$$
VeraChem MOL file


 13 13  0  0  0  0  0  0  0  0999 V2000     
   18.6382   19.7427   21.8091 C   0  0  0  0  0  0  0  0  0  0  0  0
   18.5404   20.7247   22.2904 H   0  0  0  0  0  0  0  0  0  0  0  0
   17.8580   19.6479   21.0445 H   0  0  0  0  0  0  0  0  0  0  0  0
   18.7794   18.5397   22.7992 C   0  0  0  0  0  0  0  0  0  0  0  0
   18.2504   18.6343   23.7537 H   0  0  0  0  0  0  0  0  0  0  0  0
   18.5519   17.5581   22.3654 H   0  0  0  0  0  0  0  0  0  0  0  0
   20.2959   18.8977   22.8266 C   0  0  0  0  0  0  0  0  0  0  0  0
   20.5478   19.7052   23.5277 H   0  0  0  0  0  0  0  0  0  0  0  0
   20.0906   19.3766   21.3577 C   0  0  0  0  0  0  0  0  0  0  0  0
   20.7206   20.2129   21.0352 H   0  0  0  0  0  0  0  0  0  0  0  0
   20.1495   18.5796   20.6059 H   0  0  0  0  0  0  0  0  0  0  0  0
   21.1699   17.8046   22.9876 O   0  0  0  0  0  0  0  0  0  0  0  0
   22.0801   18.1339   22.8253 H   0  0  0  0  0  0  0  0  0  0  0  0
  1  2  1  0  0  0  0
  1  3  1  0  0  0  0
  1  4  1  0  0  0  0
  4  5  1  0  0  0  0
  4  6  1  0  0  0  0
  4  7  1  0  0  0  0
  7  8  1  0  0  0  0
  1  9  1  0  0  0  0
  7  9  1  0  0  0  0
  9 10  1  0  0  0  0
  9 11  1  0  0  0  0
  7 12  1  0  0  0  0
 12 13  1  0  0  0  0
M  END
> <VConfSearch Rank>
651

> <Conf_Id>
22

> <Delta U+W>
0.000

> <U+W>
-3.131

> <U>
-0.154

> <W>
-2.978

> <W(PB)>
-4.579

> <W(SA)>
1.601

> <Valence>
6.333

> <Coulomb>
-7.439

> <VdW>
0.952

> <VdW6>
-2.120

> <VdW12>
3.072

> <Bond>
0.065

> <Angle>
0.931

> <Pdih>
5.338

> <Idih>
0.000

> <Tether>
0.000

$$$$
VeraChem MOL file


 13 13  0  0  0  0  0  0  0  0999 V2000     
   20.2562   17.7645   22.2465 C   0  0  0  0  0  0  0  0  0  0  0  0
   21.3458   17.8563   22.3463 H   0  0  0  0  0  0  0  0  0  0  0  0
   20.0038   16.7047   22.1219 H   0  0  0  0  0  0  0  0  0  0  0  0
   19.6075   18.7506   21.2198 C   0  0  0  0  0  0  0  0  0  0  0  0
   18.6081   18.4591   20.8733 H   0  0  0  0  0  0  0  0  0  0  0  0
   20.2197   19.0129   20.3501 H   0  0  0  0  0  0  0  0  0  0  0  0
   19.6123   19.7800   22.3901 C   0  0  0  0  0  0  0  0  0  0  0  0
   20.5712   20.2995   22.5231 H   0  0  0  0  0  0  0  0  0  0  0  0
   19.4323   18.5449   23.3234 C   0  0  0  0  0  0  0  0  0  0  0  0
   18.3939   18.2103   23.4393 H   0  0  0  0  0  0  0  0  0  0  0  0
   19.8889   18.6272   24.3157 H   0  0  0  0  0  0  0  0  0  0  0  0
   18.5425   20.6965   22.3911 O   0  0  0  0  0  0  0  0  0  0  0  0
   18.6998   21.3278   21.6563 H   0  0  0  0  0  0  0  0  0  0  0  0
  1  2  1  0  0  0  0
  1  3  1  0  0  0  0
  1  4  1  0  0  0  0
  4  5  1  0  0  0  0
  4  6  1  0  0  0  0
  4  7  1  0  0  0  0
  7  8  1  0  0  0  0
  1  9  1  0  0  0  0
  7  9  1  0  0  0  0
  9 10  1  0  0  0  0
  9 11  1  0  0  0  0
  7 12  1  0  0  0  0
 12 13  1  0  0  0  0
M  END
> <VConfSearch Rank>
652

> <Conf_Id>
19

> <Delta U+W>
-0.011

> <U+W>
-3.142

> <U>
-0.154

> <W>
-2.989

> <W(PB)>
-4.588

> <W(SA)>
1.599

> <Valence>
6.334

> <Coulomb>
-7.439

> <VdW>
0.951

> <VdW6>
-2.120

> <VdW12>
3.072

> <Bond>
0.065

> <Angle>
0.930

> <Pdih>
5.339

> <Idih>
0.000

> <Tether>
0.000

$$$$
VeraChem MOL file


 13 13  0  0  0  0  0  0  0  0999 V2000     
   18.4922   19.1283   22.7407 C   0  0  0  0  0  0  0  0  0  0  0  0
   17.5751   18.5717   22.9665 H   0  0  0  0  0  0  0  0  0  0  0  0
   18.3843   20.1523   23.1216 H   0  0  0  0  0  0  0  0  0  0  0  0
   19.0089   19.0349   21.2665 C   0  0  0  0  0  0  0  0  0  0  0  0
   18.7809   18.0873   20.7636 H   0  0  0  0  0  0  0  0  0  0  0  0
   18.7254   19.8603   20.6040 H   0  0  0  0  0  0  0  0  0  0  0  0
   20.4476   19.1105   21.8663 C   0  0  0  0  0  0  0  0  0  0  0  0
   21.1964   18.5087   21.3353 H   0  0  0  0  0  0  0  0  0  0  0  0
   19.8363   18.4279   23.1298 C   0  0  0  0  0  0  0  0  0  0  0  0
   20.2705   18.7222   24.0917 H   0  0  0  0  0  0  0  0  0  0  0  0
   19.8086   17.3326   23.0791 H   0  0  0  0  0  0  0  0  0  0  0  0
   20.9377   20.4201   22.0731 O   0  0  0  0  0  0  0  0  0  0  0  0
   21.7576   20.3429   22.6060 H   0  0  0  0  0  0  0  0  0  0  0  0
  1  2  1  0  0  0  0
  1  3  1  0  0  0  0
  1  4  1  0  0  0  0
  4  5  1  0  0  0  0
  4  6  1  0  0  0  0
  4  7  1  0  0  0  0
  7  8  1  0  0  0  0
  1  9  1  0  0  0  0
  7  9  1  0  0  0  0
  9 10  1  0  0  0  0
  9 11  1  0  0  0  0
  7 12  1  0  0  0  0
 12 13  1  0  0  0  0
M  END
> <VConfSearch Rank>
653

> <Conf_Id>
20

> <Delta U+W>
1.030

> <U+W>
-2.101

> <U>
0.841

> <W>
-2.942

> <W(PB)>
-4.530

> <W(SA)>
1.587

> <Valence>
6.736

> <Coulomb>
-7.246

> <VdW>
1.352

> <VdW6>
-2.500

> <VdW12>
3.851

> <Bond>
0.063

> <Angle>
0.687

> <Pdih>
5.986

> <Idih>
0.000

> <Tether>
0.000

$$$$
VeraChem MOL file


 13 13  0  0  0  0  0  0  0  0999 V2000     
   18.7412   19.7131   21.9793 C   0  0  0  0  0  0  0  0  0  0  0  0
   18.9377   20.7372   21.6357 H   0  0  0  0  0  0  0  0  0  0  0  0
   17.6563   19.5691   22.0479 H   0  0  0  0  0  0  0  0  0  0  0  0
   19.5734   19.2713   23.2282 C   0  0  0  0  0  0  0  0  0  0  0  0
   19.8158   20.0595   23.9495 H   0  0  0  0  0  0  0  0  0  0  0  0
   19.1619   18.4116   23.7713 H   0  0  0  0  0  0  0  0  0  0  0  0
   20.6954   18.9228   22.2041 C   0  0  0  0  0  0  0  0  0  0  0  0
   21.3082   19.7845   21.9063 H   0  0  0  0  0  0  0  0  0  0  0  0
   19.5347   18.6029   21.2143 C   0  0  0  0  0  0  0  0  0  0  0  0
   19.1146   17.5938   21.3073 H   0  0  0  0  0  0  0  0  0  0  0  0
   19.7429   18.8009   20.1571 H   0  0  0  0  0  0  0  0  0  0  0  0
   21.5123   17.8300   22.5511 O   0  0  0  0  0  0  0  0  0  0  0  0
   20.9143   17.0964   22.8060 H   0  0  0  0  0  0  0  0  0  0  0  0
  1  2  1  0  0  0  0
  1  3  1  0  0  0  0
  1  4  1  0  0  0  0
  4  5  1  0  0  0  0
  4  6  1  0  0  0  0
  4  7  1  0  0  0  0
  7  8  1  0  0  0  0
  1  9  1  0  0  0  0
  7  9  1  0  0  0  0
  9 10  1  0  0  0  0
  9 11  1  0  0  0  0
  7 12  1  0  0  0  0
 12 13  1  0  0  0  0
M  END
> <VConfSearch Rank>
654

> <Conf_Id>
24

> <Delta U+W>
0.356

> <U+W>
-2.775

> <U>
-0.184

> <W>
-2.591

> <W(PB)>
-4.184

> <W(SA)>
1.593

> <Valence>
6.840

> <Coulomb>
-7.916

> <VdW>
0.893

> <VdW6>
-2.167

> <VdW12>
3.060

> <Bond>
0.059

> <Angle>
0.918

> <Pdih>
5.862

> <Idih>
0.000

> <Tether>
0.000

$$$$
VeraChem MOL file


 13 13  0  0  0  0  0  0  0  0999 V2000     
   19.0823   19.7089   22.7990 C   0  0  0  0  0  0  0  0  0  0  0  0
   18.1129   19.9157   23.2678 H   0  0  0  0  0  0  0  0  0  0  0  0
   19.7395   20.5716   22.9668 H   0  0  0  0  0  0  0  0  0  0  0  0
   19.0321   19.1971   21.3206 C   0  0  0  0  0  0  0  0  0  0  0  0
   18.1364   18.6145   21.0727 H   0  0  0  0  0  0  0  0  0  0  0  0
   19.1819   19.9535   20.5420 H   0  0  0  0  0  0  0  0  0  0  0  0
   20.2782   18.3282   21.6758 C   0  0  0  0  0  0  0  0  0  0  0  0
   20.3087   17.3454   21.1883 H   0  0  0  0  0  0  0  0  0  0  0  0
   19.7213   18.3196   23.1331 C   0  0  0  0  0  0  0  0  0  0  0  0
   18.9947   17.5218   23.3296 H   0  0  0  0  0  0  0  0  0  0  0  0
   20.4710   18.3121   23.9322 H   0  0  0  0  0  0  0  0  0  0  0  0
   21.5191   18.9822   21.5205 O   0  0  0  0  0  0  0  0  0  0  0  0
   21.4338   19.8473   21.9718 H   0  0  0  0  0  0  0  0  0  0  0  0
  1  2  1  0  0  0  0
  1  3  1  0  0  0  0
  1  4  1  0  0  0  0
  4  5  1  0  0  0  0
  4  6  1  0  0  0  0
  4  7  1  0  0  0  0
  7  8  1  0  0  0  0
  1  9  1  0  0  0  0
  7  9  1  0  0  0  0
  9 10  1  0  0  0  0
  9 11  1  0  0  0  0
  7 12  1  0  0  0  0
 12 13  1  0  0  0  0
M  END
> <VConfSearch Rank>
655

> <Conf_Id>
44

> <Delta U+W>
0.823

> <U+W>
-2.308

> <U>
0.039

> <W>
-2.348

> <W(PB)>
-3.918

> <W(SA)>
1.571

> <Valence>
7.320

> <Coulomb>
-8.530

> <VdW>
1.249

> <VdW6>
-2.615

> <VdW12>
3.864

> <Bond>
0.056

> <Angle>
0.694

> <Pdih>
6.570

> <Idih>
0.000

> <Tether>
0.000

$$$$
VeraChem MOL file


 13 13  0  0  0  0  0  0  0  0999 V2000     
   18.9946   17.9079   22.2221 C   0  0  0  0  0  0  0  0  0  0  0  0
   17.9099   18.0452   22.1204 H   0  0  0  0  0  0  0  0  0  0  0  0
   19.2134   16.8334   22.2215 H   0  0  0  0  0  0  0  0  0  0  0  0
   19.6551   18.7428   23.3684 C   0  0  0  0  0  0  0  0  0  0  0  0
   19.0374   18.9199   24.2555 H   0  0  0  0  0  0  0  0  0  0  0  0
   20.6402   18.3828   23.6904 H   0  0  0  0  0  0  0  0  0  0  0  0
   19.7000   19.9049   22.3309 C   0  0  0  0  0  0  0  0  0  0  0  0
   18.7588   20.4662   22.2537 H   0  0  0  0  0  0  0  0  0  0  0  0
   19.8588   18.7857   21.2578 C   0  0  0  0  0  0  0  0  0  0  0  0
   19.4206   18.9987   20.2766 H   0  0  0  0  0  0  0  0  0  0  0  0
   20.8880   18.4329   21.1160 H   0  0  0  0  0  0  0  0  0  0  0  0
   20.7963   20.7809   22.4549 O   0  0  0  0  0  0  0  0  0  0  0  0
   20.7997   21.3565   21.6600 H   0  0  0  0  0  0  0  0  0  0  0  0
  1  2  1  0  0  0  0
  1  3  1  0  0  0  0
  1  4  1  0  0  0  0
  4  5  1  0  0  0  0
  4  6  1  0  0  0  0
  4  7  1  0  0  0  0
  7  8  1  0  0  0  0
  1  9  1  0  0  0  0
  7  9  1  0  0  0  0
  9 10  1  0  0  0  0
  9 11  1  0  0  0  0
  7 12  1  0  0  0  0
 12 13  1  0  0  0  0
M  END
> <VConfSearch Rank>
656

> <Conf_Id>
22

> <Delta U+W>
0.000

> <U+W>
-3.131

> <U>
-0.154

> <W>
-2.978

> <W(PB)>
-4.579

> <W(SA)>
1.601

> <Valence>
6.333

> <Coulomb>
-7.439

> <VdW>
0.952

> <VdW6>
-2.120

> <VdW12>
3.072

> <Bond>
0.065

> <Angle>
0.931

> <Pdih>
5.338

> <Idih>
0.000

> <Tether>
0.000

$$$$
VeraChem MOL file


 13 13  0  0  0  0  0  0  0  0999 V2000     
   19.3818   18.2371   23.3440 C   0  0  0  0  0  0  0  0  0  0  0  0
   19.9895   17.3272   23.4354 H   0  0  0  0  0  0  0  0  0  0  0  0
   18.6896   18.2829   24.1932 H   0  0  0  0  0  0  0  0  0  0  0  0
   18.7512   18.4640   21.9305 C   0  0  0  0  0  0  0  0  0  0  0  0
   17.9033   19.1602   21.9135 H   0  0  0  0  0  0  0  0  0  0  0  0
   18.4772   17.5609   21.3741 H   0  0  0  0  0  0  0  0  0  0  0  0
   20.1220   19.1039   21.5557 C   0  0  0  0  0  0  0  0  0  0  0  0
   20.8915   18.3738   21.2694 H   0  0  0  0  0  0  0  0  0  0  0  0
   20.1953   19.5406   23.0499 C   0  0  0  0  0  0  0  0  0  0  0  0
   19.6657   20.4742   23.2770 H   0  0  0  0  0  0  0  0  0  0  0  0
   21.2004   19.5914   23.4825 H   0  0  0  0  0  0  0  0  0  0  0  0
   20.0604   20.1576   20.6226 O   0  0  0  0  0  0  0  0  0  0  0  0
   19.8541   19.7606   19.7491 H   0  0  0  0  0  0  0  0  0  0  0  0
  1  2  1  0  0  0  0
  1  3  1  0  0  0  0
  1  4  1  0  0  0  0
  4  5  1  0  0  0  0
  4  6  1  0  0  0  0
  4  7  1  0  0  0  0
  7  8  1  0  0  0  0
  1  9  1  0  0  0  0
  7  9  1  0  0  0  0
  9 10  1  0  0  0  0
  9 11  1  0  0  0  0
  7 12  1  0  0  0  0
 12 13  1  0  0  0  0
M  END
> <VConfSearch Rank>
657

> <Conf_Id>
19

> <Delta U+W>
-0.011

> <U+W>
-3.142

> <U>
-0.154

> <W>
-2.989

> <W(PB)>
-4.588

> <W(SA)>
1.599

> <Valence>
6.334

> <Coulomb>
-7.439

> <VdW>
0.951

> <VdW6>
-2.120

> <VdW12>
3.072

> <Bond>
0.065

> <Angle>
0.930

> <Pdih>
5.339

> <Idih>
0.000

> <Tether>
0.000

$$$$
VeraChem MOL file


 13 13  0  0  0  0  0  0  0  0999 V2000     
   20.6913   19.1887   21.6654 C   0  0  0  0  0  0  0  0  0  0  0  0
   21.1755   19.6547   20.7991 H   0  0  0  0  0  0  0  0  0  0  0  0
   21.4575   18.6782   22.2633 H   0  0  0  0  0  0  0  0  0  0  0  0
   19.4217   18.3253   21.3627 C   0  0  0  0  0  0  0  0  0  0  0  0
   18.8370   18.6633   20.4986 H   0  0  0  0  0  0  0  0  0  0  0  0
   19.5838   17.2453   21.2754 H   0  0  0  0  0  0  0  0  0  0  0  0
   18.8742   18.8196   22.7380 C   0  0  0  0  0  0  0  0  0  0  0  0
   17.7895   18.9854   22.7654 H   0  0  0  0  0  0  0  0  0  0  0  0
   19.7259   20.1038   22.4895 C   0  0  0  0  0  0  0  0  0  0  0  0
   20.1548   20.5751   23.3807 H   0  0  0  0  0  0  0  0  0  0  0  0
   19.2152   20.8736   21.8982 H   0  0  0  0  0  0  0  0  0  0  0  0
   19.2734   18.0443   23.8505 O   0  0  0  0  0  0  0  0  0  0  0  0
   19.0219   18.5424   24.6572 H   0  0  0  0  0  0  0  0  0  0  0  0
  1  2  1  0  0  0  0
  1  3  1  0  0  0  0
  1  4  1  0  0  0  0
  4  5  1  0  0  0  0
  4  6  1  0  0  0  0
  4  7  1  0  0  0  0
  7  8  1  0  0  0  0
  1  9  1  0  0  0  0
  7  9  1  0  0  0  0
  9 10  1  0  0  0  0
  9 11  1  0  0  0  0
  7 12  1  0  0  0  0
 12 13  1  0  0  0  0
M  END
> <VConfSearch Rank>
658

> <Conf_Id>
20

> <Delta U+W>
1.030

> <U+W>
-2.101

> <U>
0.841

> <W>
-2.942

> <W(PB)>
-4.530

> <W(SA)>
1.587

> <Valence>
6.736

> <Coulomb>
-7.246

> <VdW>
1.352

> <VdW6>
-2.500

> <VdW12>
3.851

> <Bond>
0.063

> <Angle>
0.687

> <Pdih>
5.986

> <Idih>
0.000

> <Tether>
0.000

$$$$
VeraChem MOL file


 13 13  0  0  0  0  0  0  0  0999 V2000     
   19.3817   19.4389   21.0836 C   0  0  0  0  0  0  0  0  0  0  0  0
   18.7435   18.8204   20.4387 H   0  0  0  0  0  0  0  0  0  0  0  0
   19.5709   20.3929   20.5772 H   0  0  0  0  0  0  0  0  0  0  0  0
   20.6381   18.7047   21.6579 C   0  0  0  0  0  0  0  0  0  0  0  0
   21.0810   17.9342   21.0172 H   0  0  0  0  0  0  0  0  0  0  0  0
   21.4356   19.3703   22.0105 H   0  0  0  0  0  0  0  0  0  0  0  0
   19.6761   18.1889   22.7703 C   0  0  0  0  0  0  0  0  0  0  0  0
   19.0970   17.3016   22.4804 H   0  0  0  0  0  0  0  0  0  0  0  0
   18.9114   19.5326   22.5727 C   0  0  0  0  0  0  0  0  0  0  0  0
   19.3229   20.3833   23.1297 H   0  0  0  0  0  0  0  0  0  0  0  0
   17.8294   19.4932   22.7399 H   0  0  0  0  0  0  0  0  0  0  0  0
   20.2604   18.0069   24.0381 O   0  0  0  0  0  0  0  0  0  0  0  0
   20.7605   18.8249   24.2418 H   0  0  0  0  0  0  0  0  0  0  0  0
  1  2  1  0  0  0  0
  1  3  1  0  0  0  0
  1  4  1  0  0  0  0
  4  5  1  0  0  0  0
  4  6  1  0  0  0  0
  4  7  1  0  0  0  0
  7  8  1  0  0  0  0
  1  9  1  0  0  0  0
  7  9  1  0  0  0  0
  9 10  1  0  0  0  0
  9 11  1  0  0  0  0
  7 12  1  0  0  0  0
 12 13  1  0  0  0  0
M  END
> <VConfSearch Rank>
659

> <Conf_Id>
24

> <Delta U+W>
0.356

> <U+W>
-2.775

> <U>
-0.184

> <W>
-2.591

> <W(PB)>
-4.184

> <W(SA)>
1.593

> <Valence>
6.840

> <Coulomb>
-7.916

> <VdW>
0.893

> <VdW6>
-2.167

> <VdW12>
3.060

> <Bond>
0.059

> <Angle>
0.918

> <Pdih>
5.862

> <Idih>
0.000

> <Tether>
0.000

$$$$
VeraChem MOL file


 13 13  0  0  0  0  0  0  0  0999 V2000     
   18.6863   18.6124   22.5610 C   0  0  0  0  0  0  0  0  0  0  0  0
   17.8117   18.8321   23.1849 H   0  0  0  0  0  0  0  0  0  0  0  0
   18.5271   17.6440   22.0699 H   0  0  0  0  0  0  0  0  0  0  0  0
   20.0800   18.7781   23.2540 C   0  0  0  0  0  0  0  0  0  0  0  0
   20.1089   19.5464   24.0362 H   0  0  0  0  0  0  0  0  0  0  0  0
   20.5357   17.8627   23.6480 H   0  0  0  0  0  0  0  0  0  0  0  0
   20.6090   19.2609   21.8680 C   0  0  0  0  0  0  0  0  0  0  0  0
   21.3686   20.0518   21.9148 H   0  0  0  0  0  0  0  0  0  0  0  0
   19.1549   19.7639   21.6099 C   0  0  0  0  0  0  0  0  0  0  0  0
   18.9570   20.7739   21.9891 H   0  0  0  0  0  0  0  0  0  0  0  0
   18.8053   19.7066   20.5730 H   0  0  0  0  0  0  0  0  0  0  0  0
   21.0396   18.2290   21.0069 O   0  0  0  0  0  0  0  0  0  0  0  0
   20.3276   17.5564   21.0043 H   0  0  0  0  0  0  0  0  0  0  0  0
  1  2  1  0  0  0  0
  1  3  1  0  0  0  0
  1  4  1  0  0  0  0
  4  5  1  0  0  0  0
  4  6  1  0  0  0  0
  4  7  1  0  0  0  0
  7  8  1  0  0  0  0
  1  9  1  0  0  0  0
  7  9  1  0  0  0  0
  9 10  1  0  0  0  0
  9 11  1  0  0  0  0
  7 12  1  0  0  0  0
 12 13  1  0  0  0  0
M  END
> <VConfSearch Rank>
660

> <Conf_Id>
44

> <Delta U+W>
0.823

> <U+W>
-2.308

> <U>
0.039

> <W>
-2.348

> <W(PB)>
-3.918

> <W(SA)>
1.571

> <Valence>
7.320

> <Coulomb>
-8.530

> <VdW>
1.249

> <VdW6>
-2.615

> <VdW12>
3.864

> <Bond>
0.056

> <Angle>
0.694

> <Pdih>
6.570

> <Idih>
0.000

> <Tether>
0.000

$$$$
VeraChem MOL file


 13 13  0  0  0  0  0  0  0  0999 V2000     
   18.5181   19.6910   22.2810 C   0  0  0  0  0  0  0  0  0  0  0  0
   17.7913   19.3291   21.5419 H   0  0  0  0  0  0  0  0  0  0  0  0
   18.0446   20.4758   22.8829 H   0  0  0  0  0  0  0  0  0  0  0  0
   19.9301   20.0296   21.6988 C   0  0  0  0  0  0  0  0  0  0  0  0
   19.9510   20.4134   20.6730 H   0  0  0  0  0  0  0  0  0  0  0  0
   20.5443   20.6817   22.3321 H   0  0  0  0  0  0  0  0  0  0  0  0
   20.2270   18.5081   21.8592 C   0  0  0  0  0  0  0  0  0  0  0  0
   19.8591   17.8948   21.0252 H   0  0  0  0  0  0  0  0  0  0  0  0
   19.2571   18.5658   23.0779 C   0  0  0  0  0  0  0  0  0  0  0  0
   18.6805   17.6550   23.2733 H   0  0  0  0  0  0  0  0  0  0  0  0
   19.7217   18.8976   24.0149 H   0  0  0  0  0  0  0  0  0  0  0  0
   21.5631   18.1844   22.1670 O   0  0  0  0  0  0  0  0  0  0  0  0
   21.5847   17.2315   22.4010 H   0  0  0  0  0  0  0  0  0  0  0  0
  1  2  1  0  0  0  0
  1  3  1  0  0  0  0
  1  4  1  0  0  0  0
  4  5  1  0  0  0  0
  4  6  1  0  0  0  0
  4  7  1  0  0  0  0
  7  8  1  0  0  0  0
  1  9  1  0  0  0  0
  7  9  1  0  0  0  0
  9 10  1  0  0  0  0
  9 11  1  0  0  0  0
  7 12  1  0  0  0  0
 12 13  1  0  0  0  0
M  END
> <VConfSearch Rank>
661

> <Conf_Id>
22

> <Delta U+W>
0.000

> <U+W>
-3.131

> <U>
-0.154

> <W>
-2.978

> <W(PB)>
-4.579

> <W(SA)>
1.601

> <Valence>
6.333

> <Coulomb>
-7.439

> <VdW>
0.952

> <VdW6>
-2.120

> <VdW12>
3.072

> <Bond>
0.065

> <Angle>
0.931

> <Pdih>
5.338

> <Idih>
0.000

> <Tether>
0.000

$$$$
VeraChem MOL file


 13 13  0  0  0  0  0  0  0  0999 V2000     
   18.9367   19.6944   21.4271 C   0  0  0  0  0  0  0  0  0  0  0  0
   19.0641   20.7673   21.6226 H   0  0  0  0  0  0  0  0  0  0  0  0
   18.2093   19.5700   20.6160 H   0  0  0  0  0  0  0  0  0  0  0  0
   18.6997   18.8202   22.7026 C   0  0  0  0  0  0  0  0  0  0  0  0
   18.2546   17.8365   22.5075 H   0  0  0  0  0  0  0  0  0  0  0  0
   18.1511   19.2996   23.5207 H   0  0  0  0  0  0  0  0  0  0  0  0
   20.2524   18.8131   22.8375 C   0  0  0  0  0  0  0  0  0  0  0  0
   20.6611   19.7051   23.3318 H   0  0  0  0  0  0  0  0  0  0  0  0
   20.2721   18.8927   21.2812 C   0  0  0  0  0  0  0  0  0  0  0  0
   20.1740   17.9242   20.7754 H   0  0  0  0  0  0  0  0  0  0  0  0
   21.1166   19.4354   20.8427 H   0  0  0  0  0  0  0  0  0  0  0  0
   20.8043   17.6394   23.3875 O   0  0  0  0  0  0  0  0  0  0  0  0
   20.5863   17.6364   24.3444 H   0  0  0  0  0  0  0  0  0  0  0  0
  1  2  1  0  0  0  0
  1  3  1  0  0  0  0
  1  4  1  0  0  0  0
  4  5  1  0  0  0  0
  4  6  1  0  0  0  0
  4  7  1  0  0  0  0
  7  8  1  0  0  0  0
  1  9  1  0  0  0  0
  7  9  1  0  0  0  0
  9 10  1  0  0  0  0
  9 11  1  0  0  0  0
  7 12  1  0  0  0  0
 12 13  1  0  0  0  0
M  END
> <VConfSearch Rank>
662

> <Conf_Id>
19

> <Delta U+W>
-0.011

> <U+W>
-3.142

> <U>
-0.154

> <W>
-2.989

> <W(PB)>
-4.588

> <W(SA)>
1.599

> <Valence>
6.334

> <Coulomb>
-7.439

> <VdW>
0.951

> <VdW6>
-2.120

> <VdW12>
3.072

> <Bond>
0.065

> <Angle>
0.930

> <Pdih>
5.339

> <Idih>
0.000

> <Tether>
0.000

$$$$
VeraChem MOL file


 13 13  0  0  0  0  0  0  0  0999 V2000     
   20.3707   18.4806   23.0828 C   0  0  0  0  0  0  0  0  0  0  0  0
   21.4115   18.2778   23.3615 H   0  0  0  0  0  0  0  0  0  0  0  0
   19.7120   18.0508   23.8487 H   0  0  0  0  0  0  0  0  0  0  0  0
   19.9711   18.1294   21.6111 C   0  0  0  0  0  0  0  0  0  0  0  0
   20.7844   18.2303   20.8823 H   0  0  0  0  0  0  0  0  0  0  0  0
   19.4862   17.1582   21.4628 H   0  0  0  0  0  0  0  0  0  0  0  0
   19.0153   19.3613   21.6772 C   0  0  0  0  0  0  0  0  0  0  0  0
   18.9227   19.9190   20.7363 H   0  0  0  0  0  0  0  0  0  0  0  0
   20.0376   19.9593   22.6938 C   0  0  0  0  0  0  0  0  0  0  0  0
   19.6144   20.5817   23.4900 H   0  0  0  0  0  0  0  0  0  0  0  0
   20.8677   20.5040   22.2279 H   0  0  0  0  0  0  0  0  0  0  0  0
   17.7333   19.0917   22.2079 O   0  0  0  0  0  0  0  0  0  0  0  0
   17.2948   19.9555   22.3619 H   0  0  0  0  0  0  0  0  0  0  0  0
  1  2  1  0  0  0  0
  1  3  1  0  0  0  0
  1  4  1  0  0  0  0
  4  5  1  0  0  0  0
  4  6  1  0  0  0  0
  4  7  1  0  0  0  0
  7  8  1  0  0  0  0
  1  9  1  0  0  0  0
  7  9  1  0  0  0  0
  9 10  1  0  0  0  0
  9 11  1  0  0  0  0
  7 12  1  0  0  0  0
 12 13  1  0  0  0  0
M  END
> <VConfSearch Rank>
663

> <Conf_Id>
20

> <Delta U+W>
1.030

> <U+W>
-2.101

> <U>
0.841

> <W>
-2.942

> <W(PB)>
-4.530

> <W(SA)>
1.587

> <Valence>
6.736

> <Coulomb>
-7.246

> <VdW>
1.352

> <VdW6>
-2.500

> <VdW12>
3.851

> <Bond>
0.063

> <Angle>
0.687

> <Pdih>
5.986

> <Idih>
0.000

> <Tether>
0.000

$$$$
VeraChem MOL file


 13 13  0  0  0  0  0  0  0  0999 V2000     
   20.1335   18.0358   21.4050 C   0  0  0  0  0  0  0  0  0  0  0  0
   19.5088   17.1380   21.3080 H   0  0  0  0  0  0  0  0  0  0  0  0
   21.0019   17.9311   20.7436 H   0  0  0  0  0  0  0  0  0  0  0  0
   20.4395   18.4636   22.8784 C   0  0  0  0  0  0  0  0  0  0  0  0
   20.5216   17.6514   23.6091 H   0  0  0  0  0  0  0  0  0  0  0  0
   21.3052   19.1276   22.9916 H   0  0  0  0  0  0  0  0  0  0  0  0
   19.0608   19.1885   22.8244 C   0  0  0  0  0  0  0  0  0  0  0  0
   18.2049   18.5309   23.0285 H   0  0  0  0  0  0  0  0  0  0  0  0
   19.3540   19.3886   21.3068 C   0  0  0  0  0  0  0  0  0  0  0  0
   19.9771   20.2594   21.0687 H   0  0  0  0  0  0  0  0  0  0  0  0
   18.4775   19.3934   20.6496 H   0  0  0  0  0  0  0  0  0  0  0  0
   18.9694   20.3707   23.5834 O   0  0  0  0  0  0  0  0  0  0  0  0
   19.7544   20.9139   23.3609 H   0  0  0  0  0  0  0  0  0  0  0  0
  1  2  1  0  0  0  0
  1  3  1  0  0  0  0
  1  4  1  0  0  0  0
  4  5  1  0  0  0  0
  4  6  1  0  0  0  0
  4  7  1  0  0  0  0
  7  8  1  0  0  0  0
  1  9  1  0  0  0  0
  7  9  1  0  0  0  0
  9 10  1  0  0  0  0
  9 11  1  0  0  0  0
  7 12  1  0  0  0  0
 12 13  1  0  0  0  0
M  END
> <VConfSearch Rank>
664

> <Conf_Id>
24

> <Delta U+W>
0.356

> <U+W>
-2.775

> <U>
-0.184

> <W>
-2.591

> <W(PB)>
-4.184

> <W(SA)>
1.593

> <Valence>
6.840

> <Coulomb>
-7.916

> <VdW>
0.893

> <VdW6>
-2.167

> <VdW12>
3.060

> <Bond>
0.059

> <Angle>
0.918

> <Pdih>
5.862

> <Idih>
0.000

> <Tether>
0.000

$$$$
VeraChem MOL file


 13 13  0  0  0  0  0  0  0  0999 V2000     
   20.0866   18.0470   22.7174 C   0  0  0  0  0  0  0  0  0  0  0  0
   20.9801   17.4955   23.0332 H   0  0  0  0  0  0  0  0  0  0  0  0
   19.2009   17.4705   23.0133 H   0  0  0  0  0  0  0  0  0  0  0  0
   20.0807   18.5485   21.2346 C   0  0  0  0  0  0  0  0  0  0  0  0
   21.0736   18.7806   20.8306 H   0  0  0  0  0  0  0  0  0  0  0  0
   19.5501   17.9172   20.5131 H   0  0  0  0  0  0  0  0  0  0  0  0
   19.2985   19.7939   21.7554 C   0  0  0  0  0  0  0  0  0  0  0  0
   19.5430   20.7364   21.2491 H   0  0  0  0  0  0  0  0  0  0  0  0
   20.0455   19.5629   23.1055 C   0  0  0  0  0  0  0  0  0  0  0  0
   21.0297   20.0437   23.1602 H   0  0  0  0  0  0  0  0  0  0  0  0
   19.4843   19.8144   24.0124 H   0  0  0  0  0  0  0  0  0  0  0  0
   17.8983   19.6293   21.8183 O   0  0  0  0  0  0  0  0  0  0  0  0
   17.7406   18.7782   22.2768 H   0  0  0  0  0  0  0  0  0  0  0  0
  1  2  1  0  0  0  0
  1  3  1  0  0  0  0
  1  4  1  0  0  0  0
  4  5  1  0  0  0  0
  4  6  1  0  0  0  0
  4  7  1  0  0  0  0
  7  8  1  0  0  0  0
  1  9  1  0  0  0  0
  7  9  1  0  0  0  0
  9 10  1  0  0  0  0
  9 11  1  0  0  0  0
  7 12  1  0  0  0  0
 12 13  1  0  0  0  0
M  END
> <VConfSearch Rank>
665

> <Conf_Id>
44

> <Delta U+W>
0.823

> <U+W>
-2.308

> <U>
0.039

> <W>
-2.348

> <W(PB)>
-3.918

> <W(SA)>
1.571

> <Valence>
7.320

> <Coulomb>
-8.530

> <VdW>
1.249

> <VdW6>
-2.615

> <VdW12>
3.864

> <Bond>
0.056

> <Angle>
0.694

> <Pdih>
6.570

> <Idih>
0.000

> <Tether>
0.000

$$$$
VeraChem MOL file


 13 13  0  0  0  0  0  0  0  0999 V2000     
   20.9027   19.4525   22.0313 C   0  0  0  0  0  0  0  0  0  0  0  0
   21.5311   19.4409   22.9317 H   0  0  0  0  0  0  0  0  0  0  0  0
   21.5181   19.7625   21.1784 H   0  0  0  0  0  0  0  0  0  0  0  0
   19.5351   20.1939   22.1973 C   0  0  0  0  0  0  0  0  0  0  0  0
   19.5278   21.0470   22.8843 H   0  0  0  0  0  0  0  0  0  0  0  0
   19.0579   20.4944   21.2562 H   0  0  0  0  0  0  0  0  0  0  0  0
   19.0146   18.8471   22.7837 C   0  0  0  0  0  0  0  0  0  0  0  0
   19.2457   18.7092   23.8489 H   0  0  0  0  0  0  0  0  0  0  0  0
   20.0354   18.1674   21.8219 C   0  0  0  0  0  0  0  0  0  0  0  0
   20.4728   17.2275   22.1758 H   0  0  0  0  0  0  0  0  0  0  0  0
   19.6701   18.0233   20.7974 H   0  0  0  0  0  0  0  0  0  0  0  0
   17.6597   18.5610   22.5247 O   0  0  0  0  0  0  0  0  0  0  0  0
   17.5018   17.6313   22.7965 H   0  0  0  0  0  0  0  0  0  0  0  0
  1  2  1  0  0  0  0
  1  3  1  0  0  0  0
  1  4  1  0  0  0  0
  4  5  1  0  0  0  0
  4  6  1  0  0  0  0
  4  7  1  0  0  0  0
  7  8  1  0  0  0  0
  1  9  1  0  0  0  0
  7  9  1  0  0  0  0
  9 10  1  0  0  0  0
  9 11  1  0  0  0  0
  7 12  1  0  0  0  0
 12 13  1  0  0  0  0
M  END
> <VConfSearch Rank>
666

> <Conf_Id>
22

> <Delta U+W>
0.000

> <U+W>
-3.131

> <U>
-0.154

> <W>
-2.978

> <W(PB)>
-4.579

> <W(SA)>
1.601

> <Valence>
6.333

> <Coulomb>
-7.439

> <VdW>
0.952

> <VdW6>
-2.120

> <VdW12>
3.072

> <Bond>
0.065

> <Angle>
0.931

> <Pdih>
5.338

> <Idih>
0.000

> <Tether>
0.000

$$$$
VeraChem MOL file


 13 13  0  0  0  0  0  0  0  0999 V2000     
   19.9991   19.7052   23.2444 C   0  0  0  0  0  0  0  0  0  0  0  0
   20.9364   20.2444   23.0537 H   0  0  0  0  0  0  0  0  0  0  0  0
   19.6600   19.9405   24.2603 H   0  0  0  0  0  0  0  0  0  0  0  0
   20.0274   18.1882   22.8636 C   0  0  0  0  0  0  0  0  0  0  0  0
   19.2453   17.5821   23.3377 H   0  0  0  0  0  0  0  0  0  0  0  0
   20.9898   17.6787   22.9838 H   0  0  0  0  0  0  0  0  0  0  0  0
   19.6882   18.6690   21.4204 C   0  0  0  0  0  0  0  0  0  0  0  0
   20.5637   18.9932   20.8411 H   0  0  0  0  0  0  0  0  0  0  0  0
   18.9260   19.8382   22.1139 C   0  0  0  0  0  0  0  0  0  0  0  0
   17.9016   19.5937   22.4213 H   0  0  0  0  0  0  0  0  0  0  0  0
   18.9131   20.7881   21.5686 H   0  0  0  0  0  0  0  0  0  0  0  0
   18.8860   17.7910   20.6654 O   0  0  0  0  0  0  0  0  0  0  0  0
   19.4455   17.0221   20.4228 H   0  0  0  0  0  0  0  0  0  0  0  0
  1  2  1  0  0  0  0
  1  3  1  0  0  0  0
  1  4  1  0  0  0  0
  4  5  1  0  0  0  0
  4  6  1  0  0  0  0
  4  7  1  0  0  0  0
  7  8  1  0  0  0  0
  1  9  1  0  0  0  0
  7  9  1  0  0  0  0
  9 10  1  0  0  0  0
  9 11  1  0  0  0  0
  7 12  1  0  0  0  0
 12 13  1  0  0  0  0
M  END
> <VConfSearch Rank>
667

> <Conf_Id>
19

> <Delta U+W>
-0.011

> <U+W>
-3.142

> <U>
-0.154

> <W>
-2.989

> <W(PB)>
-4.588

> <W(SA)>
1.599

> <Valence>
6.334

> <Coulomb>
-7.439

> <VdW>
0.951

> <VdW6>
-2.120

> <VdW12>
3.072

> <Bond>
0.065

> <Angle>
0.930

> <Pdih>
5.339

> <Idih>
0.000

> <Tether>
0.000

$$$$
VeraChem MOL file


 13 13  0  0  0  0  0  0  0  0999 V2000     
   19.1940   17.9957   22.7338 C   0  0  0  0  0  0  0  0  0  0  0  0
   19.4595   17.0211   23.1603 H   0  0  0  0  0  0  0  0  0  0  0  0
   18.1026   18.1087   22.7689 H   0  0  0  0  0  0  0  0  0  0  0  0
   19.8385   18.3402   21.3500 C   0  0  0  0  0  0  0  0  0  0  0  0
   20.8296   17.8998   21.1874 H   0  0  0  0  0  0  0  0  0  0  0  0
   19.2187   18.1437   20.4683 H   0  0  0  0  0  0  0  0  0  0  0  0
   19.8698   19.8215   21.8404 C   0  0  0  0  0  0  0  0  0  0  0  0
   20.7425   20.3960   21.5040 H   0  0  0  0  0  0  0  0  0  0  0  0
   19.9933   19.2261   23.2778 C   0  0  0  0  0  0  0  0  0  0  0  0
   19.5093   19.7979   24.0773 H   0  0  0  0  0  0  0  0  0  0  0  0
   21.0222   19.0000   23.5831 H   0  0  0  0  0  0  0  0  0  0  0  0
   18.6854   20.5537   21.5969 O   0  0  0  0  0  0  0  0  0  0  0  0
   18.7563   21.3953   22.0958 H   0  0  0  0  0  0  0  0  0  0  0  0
  1  2  1  0  0  0  0
  1  3  1  0  0  0  0
  1  4  1  0  0  0  0
  4  5  1  0  0  0  0
  4  6  1  0  0  0  0
  4  7  1  0  0  0  0
  7  8  1  0  0  0  0
  1  9  1  0  0  0  0
  7  9  1  0  0  0  0
  9 10  1  0  0  0  0
  9 11  1  0  0  0  0
  7 12  1  0  0  0  0
 12 13  1  0  0  0  0
M  END
> <VConfSearch Rank>
668

> <Conf_Id>
20

> <Delta U+W>
1.030

> <U+W>
-2.101

> <U>
0.841

> <W>
-2.942

> <W(PB)>
-4.530

> <W(SA)>
1.587

> <Valence>
6.736

> <Coulomb>
-7.246

> <VdW>
1.352

> <VdW6>
-2.500

> <VdW12>
3.851

> <Bond>
0.063

> <Angle>
0.687

> <Pdih>
5.986

> <Idih>
0.000

> <Tether>
0.000

$$$$
VeraChem MOL file


 13 13  0  0  0  0  0  0  0  0999 V2000     
   20.1770   18.1943   23.1511 C   0  0  0  0  0  0  0  0  0  0  0  0
   21.0733   17.5908   22.9561 H   0  0  0  0  0  0  0  0  0  0  0  0
   19.8354   17.9933   24.1736 H   0  0  0  0  0  0  0  0  0  0  0  0
   19.0837   18.1213   22.0345 C   0  0  0  0  0  0  0  0  0  0  0  0
   19.0030   17.1682   21.5004 H   0  0  0  0  0  0  0  0  0  0  0  0
   18.0814   18.4313   22.3547 H   0  0  0  0  0  0  0  0  0  0  0  0
   19.9147   19.2293   21.3197 C   0  0  0  0  0  0  0  0  0  0  0  0
   20.7600   18.8425   20.7345 H   0  0  0  0  0  0  0  0  0  0  0  0
   20.3042   19.7018   22.7529 C   0  0  0  0  0  0  0  0  0  0  0  0
   19.5746   20.3651   23.2337 H   0  0  0  0  0  0  0  0  0  0  0  0
   21.3013   20.1445   22.8533 H   0  0  0  0  0  0  0  0  0  0  0  0
   19.1676   20.1508   20.5617 O   0  0  0  0  0  0  0  0  0  0  0  0
   18.4324   20.4595   21.1317 H   0  0  0  0  0  0  0  0  0  0  0  0
  1  2  1  0  0  0  0
  1  3  1  0  0  0  0
  1  4  1  0  0  0  0
  4  5  1  0  0  0  0
  4  6  1  0  0  0  0
  4  7  1  0  0  0  0
  7  8  1  0  0  0  0
  1  9  1  0  0  0  0
  7  9  1  0  0  0  0
  9 10  1  0  0  0  0
  9 11  1  0  0  0  0
  7 12  1  0  0  0  0
 12 13  1  0  0  0  0
M  END
> <VConfSearch Rank>
669

> <Conf_Id>
24

> <Delta U+W>
0.356

> <U+W>
-2.775

> <U>
-0.184

> <W>
-2.591

> <W(PB)>
-4.184

> <W(SA)>
1.593

> <Valence>
6.840

> <Coulomb>
-7.916

> <VdW>
0.893

> <VdW6>
-2.167

> <VdW12>
3.060

> <Bond>
0.059

> <Angle>
0.918

> <Pdih>
5.862

> <Idih>
0.000

> <Tether>
0.000

$$$$
VeraChem MOL file


 13 13  0  0  0  0  0  0  0  0999 V2000     
   20.0096   18.1612   22.9239 C   0  0  0  0  0  0  0  0  0  0  0  0
   19.7635   17.6130   23.8411 H   0  0  0  0  0  0  0  0  0  0  0  0
   20.9540   17.7672   22.5275 H   0  0  0  0  0  0  0  0  0  0  0  0
   19.9352   19.7218   23.0187 C   0  0  0  0  0  0  0  0  0  0  0  0
   19.1923   20.0977   23.7327 H   0  0  0  0  0  0  0  0  0  0  0  0
   20.8836   20.2408   23.1976 H   0  0  0  0  0  0  0  0  0  0  0  0
   19.4404   19.6965   21.5394 C   0  0  0  0  0  0  0  0  0  0  0  0
   18.6910   20.4589   21.2911 H   0  0  0  0  0  0  0  0  0  0  0  0
   18.8566   18.2886   21.8729 C   0  0  0  0  0  0  0  0  0  0  0  0
   17.8492   18.3132   22.3059 H   0  0  0  0  0  0  0  0  0  0  0  0
   18.8661   17.5601   21.0544 H   0  0  0  0  0  0  0  0  0  0  0  0
   20.4677   19.6968   20.5718 O   0  0  0  0  0  0  0  0  0  0  0  0
   21.1027   19.0022   20.8429 H   0  0  0  0  0  0  0  0  0  0  0  0
  1  2  1  0  0  0  0
  1  3  1  0  0  0  0
  1  4  1  0  0  0  0
  4  5  1  0  0  0  0
  4  6  1  0  0  0  0
  4  7  1  0  0  0  0
  7  8  1  0  0  0  0
  1  9  1  0  0  0  0
  7  9  1  0  0  0  0
  9 10  1  0  0  0  0
  9 11  1  0  0  0  0
  7 12  1  0  0  0  0
 12 13  1  0  0  0  0
M  END
> <VConfSearch Rank>
670

> <Conf_Id>
44

> <Delta U+W>
0.823

> <U+W>
-2.308

> <U>
0.039

> <W>
-2.348

> <W(PB)>
-3.918

> <W(SA)>
1.571

> <Valence>
7.320

> <Coulomb>
-8.530

> <VdW>
1.249

> <VdW6>
-2.615

> <VdW12>
3.864

> <Bond>
0.056

> <Angle>
0.694

> <Pdih>
6.570

> <Idih>
0.000

> <Tether>
0.000

$$$$
VeraChem MOL file


 13 13  0  0  0  0  0  0  0  0999 V2000     
   18.3625   19.1550   22.4120 C   0  0  0  0  0  0  0  0  0  0  0  0
   18.0737   19.9981   23.0534 H   0  0  0  0  0  0  0  0  0  0  0  0
   17.4523   18.6679   22.0424 H   0  0  0  0  0  0  0  0  0  0  0  0
   19.4479   18.2091   23.0238 C   0  0  0  0  0  0  0  0  0  0  0  0
   19.4277   18.0903   24.1126 H   0  0  0  0  0  0  0  0  0  0  0  0
   19.5057   17.2159   22.5614 H   0  0  0  0  0  0  0  0  0  0  0  0
   20.4807   19.2384   22.4736 C   0  0  0  0  0  0  0  0  0  0  0  0
   20.6393   20.1024   23.1333 H   0  0  0  0  0  0  0  0  0  0  0  0
   19.4465   19.4928   21.3357 C   0  0  0  0  0  0  0  0  0  0  0  0
   19.4227   20.5102   20.9301 H   0  0  0  0  0  0  0  0  0  0  0  0
   19.5016   18.7815   20.5022 H   0  0  0  0  0  0  0  0  0  0  0  0
   21.7116   18.6933   22.0585 O   0  0  0  0  0  0  0  0  0  0  0  0
   22.2004   19.4032   21.5891 H   0  0  0  0  0  0  0  0  0  0  0  0
  1  2  1  0  0  0  0
  1  3  1  0  0  0  0
  1  4  1  0  0  0  0
  4  5  1  0  0  0  0
  4  6  1  0  0  0  0
  4  7  1  0  0  0  0
  7  8  1  0  0  0  0
  1  9  1  0  0  0  0
  7  9  1  0  0  0  0
  9 10  1  0  0  0  0
  9 11  1  0  0  0  0
  7 12  1  0  0  0  0
 12 13  1  0  0  0  0
M  END
> <VConfSearch Rank>
671

> <Conf_Id>
22

> <Delta U+W>
0.000

> <U+W>
-3.131

> <U>
-0.154

> <W>
-2.978

> <W(PB)>
-4.579

> <W(SA)>
1.601

> <Valence>
6.333

> <Coulomb>
-7.439

> <VdW>
0.952

> <VdW6>
-2.120

> <VdW12>
3.072

> <Bond>
0.065

> <Angle>
0.931

> <Pdih>
5.338

> <Idih>
0.000

> <Tether>
0.000

$$$$
VeraChem MOL file


 13 13  0  0  0  0  0  0  0  0999 V2000     
   20.1392   17.7113   22.1645 C   0  0  0  0  0  0  0  0  0  0  0  0
   20.2406   17.2140   23.1382 H   0  0  0  0  0  0  0  0  0  0  0  0
   20.5505   17.0529   21.3902 H   0  0  0  0  0  0  0  0  0  0  0  0
   20.6283   19.1969   22.1341 C   0  0  0  0  0  0  0  0  0  0  0  0
   20.8385   19.5896   21.1314 H   0  0  0  0  0  0  0  0  0  0  0  0
   21.4696   19.4412   22.7919 H   0  0  0  0  0  0  0  0  0  0  0  0
   19.2122   19.5469   22.6829 C   0  0  0  0  0  0  0  0  0  0  0  0
   19.1157   19.4352   23.7716 H   0  0  0  0  0  0  0  0  0  0  0  0
   18.7209   18.3060   21.8781 C   0  0  0  0  0  0  0  0  0  0  0  0
   18.5108   18.5048   20.8198 H   0  0  0  0  0  0  0  0  0  0  0  0
   17.8727   17.7636   22.3099 H   0  0  0  0  0  0  0  0  0  0  0  0
   18.6904   20.7849   22.2589 O   0  0  0  0  0  0  0  0  0  0  0  0
   19.1926   21.4871   22.7256 H   0  0  0  0  0  0  0  0  0  0  0  0
  1  2  1  0  0  0  0
  1  3  1  0  0  0  0
  1  4  1  0  0  0  0
  4  5  1  0  0  0  0
  4  6  1  0  0  0  0
  4  7  1  0  0  0  0
  7  8  1  0  0  0  0
  1  9  1  0  0  0  0
  7  9  1  0  0  0  0
  9 10  1  0  0  0  0
  9 11  1  0  0  0  0
  7 12  1  0  0  0  0
 12 13  1  0  0  0  0
M  END
> <VConfSearch Rank>
672

> <Conf_Id>
19

> <Delta U+W>
-0.011

> <U+W>
-3.142

> <U>
-0.154

> <W>
-2.989

> <W(PB)>
-4.588

> <W(SA)>
1.599

> <Valence>
6.334

> <Coulomb>
-7.439

> <VdW>
0.951

> <VdW6>
-2.120

> <VdW12>
3.072

> <Bond>
0.065

> <Angle>
0.930

> <Pdih>
5.339

> <Idih>
0.000

> <Tether>
0.000

$$$$
VeraChem MOL file


 13 13  0  0  0  0  0  0  0  0999 V2000     
   20.3101   18.7091   23.2496 C   0  0  0  0  0  0  0  0  0  0  0  0
   20.6547   17.8586   23.8495 H   0  0  0  0  0  0  0  0  0  0  0  0
   20.8017   19.6196   23.6164 H   0  0  0  0  0  0  0  0  0  0  0  0
   18.7617   18.8373   23.0626 C   0  0  0  0  0  0  0  0  0  0  0  0
   18.2236   17.8817   23.0554 H   0  0  0  0  0  0  0  0  0  0  0  0
   18.2495   19.5228   23.7468 H   0  0  0  0  0  0  0  0  0  0  0  0
   19.0756   19.4049   21.6432 C   0  0  0  0  0  0  0  0  0  0  0  0
   18.3541   19.1195   20.8669 H   0  0  0  0  0  0  0  0  0  0  0  0
   20.3619   18.5224   21.6968 C   0  0  0  0  0  0  0  0  0  0  0  0
   21.2452   18.9304   21.1931 H   0  0  0  0  0  0  0  0  0  0  0  0
   20.2121   17.4899   21.3585 H   0  0  0  0  0  0  0  0  0  0  0  0
   19.3089   20.7984   21.5982 O   0  0  0  0  0  0  0  0  0  0  0  0
   19.6627   21.0052   20.7070 H   0  0  0  0  0  0  0  0  0  0  0  0
  1  2  1  0  0  0  0
  1  3  1  0  0  0  0
  1  4  1  0  0  0  0
  4  5  1  0  0  0  0
  4  6  1  0  0  0  0
  4  7  1  0  0  0  0
  7  8  1  0  0  0  0
  1  9  1  0  0  0  0
  7  9  1  0  0  0  0
  9 10  1  0  0  0  0
  9 11  1  0  0  0  0
  7 12  1  0  0  0  0
 12 13  1  0  0  0  0
M  END
> <VConfSearch Rank>
673

> <Conf_Id>
20

> <Delta U+W>
1.030

> <U+W>
-2.101

> <U>
0.841

> <W>
-2.942

> <W(PB)>
-4.530

> <W(SA)>
1.587

> <Valence>
6.736

> <Coulomb>
-7.246

> <VdW>
1.352

> <VdW6>
-2.500

> <VdW12>
3.851

> <Bond>
0.063

> <Angle>
0.687

> <Pdih>
5.986

> <Idih>
0.000

> <Tether>
0.000

$$$$
VeraChem MOL file


 13 13  0  0  0  0  0  0  0  0999 V2000     
   19.5097   20.1903   22.4497 C   0  0  0  0  0  0  0  0  0  0  0  0
   18.6659   20.6625   21.9295 H   0  0  0  0  0  0  0  0  0  0  0  0
   19.9855   20.9381   23.0954 H   0  0  0  0  0  0  0  0  0  0  0  0
   20.4695   19.3684   21.5274 C   0  0  0  0  0  0  0  0  0  0  0  0
   20.5890   19.7393   20.5035 H   0  0  0  0  0  0  0  0  0  0  0  0
   21.4635   19.1815   21.9523 H   0  0  0  0  0  0  0  0  0  0  0  0
   19.4496   18.2042   21.7108 C   0  0  0  0  0  0  0  0  0  0  0  0
   18.5885   18.2569   21.0308 H   0  0  0  0  0  0  0  0  0  0  0  0
   19.1789   18.8154   23.1188 C   0  0  0  0  0  0  0  0  0  0  0  0
   19.8844   18.5049   23.8993 H   0  0  0  0  0  0  0  0  0  0  0  0
   18.1587   18.6979   23.5002 H   0  0  0  0  0  0  0  0  0  0  0  0
   20.0032   16.9099   21.7100 O   0  0  0  0  0  0  0  0  0  0  0  0
   20.7621   16.9237   22.3303 H   0  0  0  0  0  0  0  0  0  0  0  0
  1  2  1  0  0  0  0
  1  3  1  0  0  0  0
  1  4  1  0  0  0  0
  4  5  1  0  0  0  0
  4  6  1  0  0  0  0
  4  7  1  0  0  0  0
  7  8  1  0  0  0  0
  1  9  1  0  0  0  0
  7  9  1  0  0  0  0
  9 10  1  0  0  0  0
  9 11  1  0  0  0  0
  7 12  1  0  0  0  0
 12 13  1  0  0  0  0
M  END
> <VConfSearch Rank>
674

> <Conf_Id>
24

> <Delta U+W>
0.356

> <U+W>
-2.775

> <U>
-0.184

> <W>
-2.591

> <W(PB)>
-4.184

> <W(SA)>
1.593

> <Valence>
6.840

> <Coulomb>
-7.916

> <VdW>
0.893

> <VdW6>
-2.167

> <VdW12>
3.060

> <Bond>
0.059

> <Angle>
0.918

> <Pdih>
5.862

> <Idih>
0.000

> <Tether>
0.000

$$$$
VeraChem MOL file


 13 13  0  0  0  0  0  0  0  0999 V2000     
   18.5861   19.1365   22.0965 C   0  0  0  0  0  0  0  0  0  0  0  0
   17.7615   19.3145   21.3959 H   0  0  0  0  0  0  0  0  0  0  0  0
   18.1756   19.1042   23.1138 H   0  0  0  0  0  0  0  0  0  0  0  0
   19.8423   20.0539   21.9220 C   0  0  0  0  0  0  0  0  0  0  0  0
   20.0229   20.3841   20.8918 H   0  0  0  0  0  0  0  0  0  0  0  0
   19.8987   20.9266   22.5823 H   0  0  0  0  0  0  0  0  0  0  0  0
   20.6910   18.8175   22.3521 C   0  0  0  0  0  0  0  0  0  0  0  0
   21.6606   18.7258   21.8461 H   0  0  0  0  0  0  0  0  0  0  0  0
   19.5467   17.9542   21.7363 C   0  0  0  0  0  0  0  0  0  0  0  0
   19.6548   17.7696   20.6606 H   0  0  0  0  0  0  0  0  0  0  0  0
   19.3458   16.9994   22.2349 H   0  0  0  0  0  0  0  0  0  0  0  0
   20.8584   18.6707   23.7457 O   0  0  0  0  0  0  0  0  0  0  0  0
   19.9673   18.7611   24.1420 H   0  0  0  0  0  0  0  0  0  0  0  0
  1  2  1  0  0  0  0
  1  3  1  0  0  0  0
  1  4  1  0  0  0  0
  4  5  1  0  0  0  0
  4  6  1  0  0  0  0
  4  7  1  0  0  0  0
  7  8  1  0  0  0  0
  1  9  1  0  0  0  0
  7  9  1  0  0  0  0
  9 10  1  0  0  0  0
  9 11  1  0  0  0  0
  7 12  1  0  0  0  0
 12 13  1  0  0  0  0
M  END
> <VConfSearch Rank>
675

> <Conf_Id>
44

> <Delta U+W>
0.823

> <U+W>
-2.308

> <U>
0.039

> <W>
-2.348

> <W(PB)>
-3.918

> <W(SA)>
1.571

> <Valence>
7.320

> <Coulomb>
-8.530

> <VdW>
1.249

> <VdW6>
-2.615

> <VdW12>
3.864

> <Bond>
0.056

> <Angle>
0.694

> <Pdih>
6.570

> <Idih>
0.000

> <Tether>
0.000

$$$$
VeraChem MOL file


 13 13  0  0  0  0  0  0  0  0999 V2000     
   20.5608   18.6040   21.3823 C   0  0  0  0  0  0  0  0  0  0  0  0
   20.1398   17.9312   20.6235 H   0  0  0  0  0  0  0  0  0  0  0  0
   21.6236   18.7594   21.1619 H   0  0  0  0  0  0  0  0  0  0  0  0
   20.2140   18.2230   22.8594 C   0  0  0  0  0  0  0  0  0  0  0  0
   20.1074   17.1534   23.0707 H   0  0  0  0  0  0  0  0  0  0  0  0
   20.8722   18.6683   23.6157 H   0  0  0  0  0  0  0  0  0  0  0  0
   18.8856   19.0021   22.6203 C   0  0  0  0  0  0  0  0  0  0  0  0
   18.1077   18.4083   22.1210 H   0  0  0  0  0  0  0  0  0  0  0  0
   19.7190   19.8947   21.6519 C   0  0  0  0  0  0  0  0  0  0  0  0
   19.1761   20.3045   20.7932 H   0  0  0  0  0  0  0  0  0  0  0  0
   20.2703   20.7071   22.1417 H   0  0  0  0  0  0  0  0  0  0  0  0
   18.3631   19.6625   23.7496 O   0  0  0  0  0  0  0  0  0  0  0  0
   17.6332   20.2394   23.4371 H   0  0  0  0  0  0  0  0  0  0  0  0
  1  2  1  0  0  0  0
  1  3  1  0  0  0  0
  1  4  1  0  0  0  0
  4  5  1  0  0  0  0
  4  6  1  0  0  0  0
  4  7  1  0  0  0  0
  7  8  1  0  0  0  0
  1  9  1  0  0  0  0
  7  9  1  0  0  0  0
  9 10  1  0  0  0  0
  9 11  1  0  0  0  0
  7 12  1  0  0  0  0
 12 13  1  0  0  0  0
M  END
> <VConfSearch Rank>
676

> <Conf_Id>
22

> <Delta U+W>
0.000

> <U+W>
-3.131

> <U>
-0.154

> <W>
-2.978

> <W(PB)>
-4.579

> <W(SA)>
1.601

> <Valence>
6.333

> <Coulomb>
-7.439

> <VdW>
0.952

> <VdW6>
-2.120

> <VdW12>
3.072

> <Bond>
0.065

> <Angle>
0.931

> <Pdih>
5.338

> <Idih>
0.000

> <Tether>
0.000

$$$$
VeraChem MOL file


 13 13  0  0  0  0  0  0  0  0999 V2000     
   18.7827   18.9755   23.2568 C   0  0  0  0  0  0  0  0  0  0  0  0
   18.9485   18.1888   24.0046 H   0  0  0  0  0  0  0  0  0  0  0  0
   17.9031   19.5599   23.5522 H   0  0  0  0  0  0  0  0  0  0  0  0
   18.8143   18.4843   21.7719 C   0  0  0  0  0  0  0  0  0  0  0  0
   18.3378   19.1640   21.0543 H   0  0  0  0  0  0  0  0  0  0  0  0
   18.4471   17.4679   21.5922 H   0  0  0  0  0  0  0  0  0  0  0  0
   20.3613   18.6390   21.8813 C   0  0  0  0  0  0  0  0  0  0  0  0
   20.8640   17.7779   22.3426 H   0  0  0  0  0  0  0  0  0  0  0  0
   20.0585   19.7979   22.8783 C   0  0  0  0  0  0  0  0  0  0  0  0
   19.8572   20.7658   22.4025 H   0  0  0  0  0  0  0  0  0  0  0  0
   20.7943   19.9439   23.6766 H   0  0  0  0  0  0  0  0  0  0  0  0
   21.0143   19.0219   20.6932 O   0  0  0  0  0  0  0  0  0  0  0  0
   20.9990   18.2474   20.0905 H   0  0  0  0  0  0  0  0  0  0  0  0
  1  2  1  0  0  0  0
  1  3  1  0  0  0  0
  1  4  1  0  0  0  0
  4  5  1  0  0  0  0
  4  6  1  0  0  0  0
  4  7  1  0  0  0  0
  7  8  1  0  0  0  0
  1  9  1  0  0  0  0
  7  9  1  0  0  0  0
  9 10  1  0  0  0  0
  9 11  1  0  0  0  0
  7 12  1  0  0  0  0
 12 13  1  0  0  0  0
M  END
> <VConfSearch Rank>
677

> <Conf_Id>
19

> <Delta U+W>
-0.011

> <U+W>
-3.142

> <U>
-0.154

> <W>
-2.989

> <W(PB)>
-4.588

> <W(SA)>
1.599

> <Valence>
6.334

> <Coulomb>
-7.439

> <VdW>
0.951

> <VdW6>
-2.120

> <VdW12>
3.072

> <Bond>
0.065

> <Angle>
0.930

> <Pdih>
5.339

> <Idih>
0.000

> <Tether>
0.000

$$$$
VeraChem MOL file


 13 13  0  0  0  0  0  0  0  0999 V2000     
   20.6922   18.4799   22.0253 C   0  0  0  0  0  0  0  0  0  0  0  0
   21.4537   17.7874   22.4028 H   0  0  0  0  0  0  0  0  0  0  0  0
   20.9286   18.7270   20.9821 H   0  0  0  0  0  0  0  0  0  0  0  0
   20.3772   19.7170   22.9304 C   0  0  0  0  0  0  0  0  0  0  0  0
   20.4986   19.5369   24.0054 H   0  0  0  0  0  0  0  0  0  0  0  0
   20.8939   20.6475   22.6704 H   0  0  0  0  0  0  0  0  0  0  0  0
   18.9064   19.5937   22.4236 C   0  0  0  0  0  0  0  0  0  0  0  0
   18.1427   19.8428   23.1716 H   0  0  0  0  0  0  0  0  0  0  0  0
   19.2032   18.0686   22.2749 C   0  0  0  0  0  0  0  0  0  0  0  0
   18.6996   17.5604   21.4452 H   0  0  0  0  0  0  0  0  0  0  0  0
   19.0401   17.4882   23.1912 H   0  0  0  0  0  0  0  0  0  0  0  0
   18.6360   20.2704   21.2123 O   0  0  0  0  0  0  0  0  0  0  0  0
   17.7496   19.9801   20.9088 H   0  0  0  0  0  0  0  0  0  0  0  0
  1  2  1  0  0  0  0
  1  3  1  0  0  0  0
  1  4  1  0  0  0  0
  4  5  1  0  0  0  0
  4  6  1  0  0  0  0
  4  7  1  0  0  0  0
  7  8  1  0  0  0  0
  1  9  1  0  0  0  0
  7  9  1  0  0  0  0
  9 10  1  0  0  0  0
  9 11  1  0  0  0  0
  7 12  1  0  0  0  0
 12 13  1  0  0  0  0
M  END
> <VConfSearch Rank>
678

> <Conf_Id>
20

> <Delta U+W>
1.030

> <U+W>
-2.101

> <U>
0.841

> <W>
-2.942

> <W(PB)>
-4.530

> <W(SA)>
1.587

> <Valence>
6.736

> <Coulomb>
-7.246

> <VdW>
1.352

> <VdW6>
-2.500

> <VdW12>
3.851

> <Bond>
0.063

> <Angle>
0.687

> <Pdih>
5.986

> <Idih>
0.000

> <Tether>
0.000

$$$$
VeraChem MOL file


 13 13  0  0  0  0  0  0  0  0999 V2000     
   19.1515   19.2170   23.3162 C   0  0  0  0  0  0  0  0  0  0  0  0
   18.5339   18.4304   23.7694 H   0  0  0  0  0  0  0  0  0  0  0  0
   19.1124   20.1057   23.9575 H   0  0  0  0  0  0  0  0  0  0  0  0
   18.8904   19.4571   21.7925 C   0  0  0  0  0  0  0  0  0  0  0  0
   17.8636   19.2929   21.4476 H   0  0  0  0  0  0  0  0  0  0  0  0
   19.2371   20.4275   21.4163 H   0  0  0  0  0  0  0  0  0  0  0  0
   19.8789   18.2744   21.5622 C   0  0  0  0  0  0  0  0  0  0  0  0
   19.4126   17.2833   21.6451 H   0  0  0  0  0  0  0  0  0  0  0  0
   20.5776   18.7535   22.8704 C   0  0  0  0  0  0  0  0  0  0  0  0
   21.3015   19.5666   22.7351 H   0  0  0  0  0  0  0  0  0  0  0  0
   21.0409   17.9679   23.4774 H   0  0  0  0  0  0  0  0  0  0  0  0
   20.6602   18.3583   20.3941 O   0  0  0  0  0  0  0  0  0  0  0  0
   21.0481   19.2583   20.3744 H   0  0  0  0  0  0  0  0  0  0  0  0
  1  2  1  0  0  0  0
  1  3  1  0  0  0  0
  1  4  1  0  0  0  0
  4  5  1  0  0  0  0
  4  6  1  0  0  0  0
  4  7  1  0  0  0  0
  7  8  1  0  0  0  0
  1  9  1  0  0  0  0
  7  9  1  0  0  0  0
  9 10  1  0  0  0  0
  9 11  1  0  0  0  0
  7 12  1  0  0  0  0
 12 13  1  0  0  0  0
M  END
> <VConfSearch Rank>
679

> <Conf_Id>
24

> <Delta U+W>
0.356

> <U+W>
-2.775

> <U>
-0.184

> <W>
-2.591

> <W(PB)>
-4.184

> <W(SA)>
1.593

> <Valence>
6.840

> <Coulomb>
-7.916

> <VdW>
0.893

> <VdW6>
-2.167

> <VdW12>
3.060

> <Bond>
0.059

> <Angle>
0.918

> <Pdih>
5.862

> <Idih>
0.000

> <Tether>
0.000

$$$$
VeraChem MOL file


 13 13  0  0  0  0  0  0  0  0999 V2000     
   18.8038   19.1034   21.5330 C   0  0  0  0  0  0  0  0  0  0  0  0
   18.1651   19.8202   21.0033 H   0  0  0  0  0  0  0  0  0  0  0  0
   18.4332   18.0911   21.3273 H   0  0  0  0  0  0  0  0  0  0  0  0
   19.0716   19.4120   23.0440 C   0  0  0  0  0  0  0  0  0  0  0  0
   19.0725   20.4796   23.2954 H   0  0  0  0  0  0  0  0  0  0  0  0
   18.4363   18.8852   23.7648 H   0  0  0  0  0  0  0  0  0  0  0  0
   20.4932   18.8096   22.8204 C   0  0  0  0  0  0  0  0  0  0  0  0
   21.2955   19.2995   23.3869 H   0  0  0  0  0  0  0  0  0  0  0  0
   20.3462   19.2910   21.3437 C   0  0  0  0  0  0  0  0  0  0  0  0
   20.6597   20.3289   21.1782 H   0  0  0  0  0  0  0  0  0  0  0  0
   20.8203   18.6589   20.5845 H   0  0  0  0  0  0  0  0  0  0  0  0
   20.5746   17.4099   22.9810 O   0  0  0  0  0  0  0  0  0  0  0  0
   19.8399   17.0286   22.4574 H   0  0  0  0  0  0  0  0  0  0  0  0
  1  2  1  0  0  0  0
  1  3  1  0  0  0  0
  1  4  1  0  0  0  0
  4  5  1  0  0  0  0
  4  6  1  0  0  0  0
  4  7  1  0  0  0  0
  7  8  1  0  0  0  0
  1  9  1  0  0  0  0
  7  9  1  0  0  0  0
  9 10  1  0  0  0  0
  9 11  1  0  0  0  0
  7 12  1  0  0  0  0
 12 13  1  0  0  0  0
M  END
> <VConfSearch Rank>
680

> <Conf_Id>
44

> <Delta U+W>
0.823

> <U+W>
-2.308

> <U>
0.039

> <W>
-2.348

> <W(PB)>
-3.918

> <W(SA)>
1.571

> <Valence>
7.320

> <Coulomb>
-8.530

> <VdW>
1.249

> <VdW6>
-2.615

> <VdW12>
3.864

> <Bond>
0.056

> <Angle>
0.694

> <Pdih>
6.570

> <Idih>
0.000

> <Tether>
0.000

$$$$
VeraChem MOL file


 13 13  0  0  0  0  0  0  0  0999 V2000     
   19.6123   19.9486   23.2064 C   0  0  0  0  0  0  0  0  0  0  0  0
   20.0704   20.9070   22.9283 H   0  0  0  0  0  0  0  0  0  0  0  0
   19.1852   20.0431   24.2119 H   0  0  0  0  0  0  0  0  0  0  0  0
   20.5153   18.6954   22.9587 C   0  0  0  0  0  0  0  0  0  0  0  0
   21.5938   18.8450   23.0785 H   0  0  0  0  0  0  0  0  0  0  0  0
   20.2194   17.7980   23.5162 H   0  0  0  0  0  0  0  0  0  0  0  0
   19.9818   18.7514   21.4954 C   0  0  0  0  0  0  0  0  0  0  0  0
   20.5226   19.4606   20.8538 H   0  0  0  0  0  0  0  0  0  0  0  0
   18.6751   19.3304   22.1171 C   0  0  0  0  0  0  0  0  0  0  0  0
   18.1244   20.0433   21.4938 H   0  0  0  0  0  0  0  0  0  0  0  0
   17.9744   18.5737   22.4916 H   0  0  0  0  0  0  0  0  0  0  0  0
   19.8439   17.5035   20.8565 O   0  0  0  0  0  0  0  0  0  0  0  0
   19.3542   17.6578   20.0200 H   0  0  0  0  0  0  0  0  0  0  0  0
  1  2  1  0  0  0  0
  1  3  1  0  0  0  0
  1  4  1  0  0  0  0
  4  5  1  0  0  0  0
  4  6  1  0  0  0  0
  4  7  1  0  0  0  0
  7  8  1  0  0  0  0
  1  9  1  0  0  0  0
  7  9  1  0  0  0  0
  9 10  1  0  0  0  0
  9 11  1  0  0  0  0
  7 12  1  0  0  0  0
 12 13  1  0  0  0  0
M  END
> <VConfSearch Rank>
681

> <Conf_Id>
22

> <Delta U+W>
0.000

> <U+W>
-3.131

> <U>
-0.154

> <W>
-2.978

> <W(PB)>
-4.579

> <W(SA)>
1.601

> <Valence>
6.333

> <Coulomb>
-7.439

> <VdW>
0.952

> <VdW6>
-2.120

> <VdW12>
3.072

> <Bond>
0.065

> <Angle>
0.931

> <Pdih>
5.338

> <Idih>
0.000

> <Tether>
0.000

$$$$
VeraChem MOL file


 13 13  0  0  0  0  0  0  0  0999 V2000     
   19.9084   18.2028   23.3140 C   0  0  0  0  0  0  0  0  0  0  0  0
   19.7201   18.7291   24.2591 H   0  0  0  0  0  0  0  0  0  0  0  0
   20.3341   17.2179   23.5402 H   0  0  0  0  0  0  0  0  0  0  0  0
   20.6635   19.0461   22.2342 C   0  0  0  0  0  0  0  0  0  0  0  0
   21.1377   18.4553   21.4406 H   0  0  0  0  0  0  0  0  0  0  0  0
   21.3884   19.7754   22.6121 H   0  0  0  0  0  0  0  0  0  0  0  0
   19.2579   19.6116   21.8685 C   0  0  0  0  0  0  0  0  0  0  0  0
   18.9286   20.4387   22.5123 H   0  0  0  0  0  0  0  0  0  0  0  0
   18.7120   18.2190   22.3063 C   0  0  0  0  0  0  0  0  0  0  0  0
   18.7566   17.4480   21.5271 H   0  0  0  0  0  0  0  0  0  0  0  0
   17.7088   18.2176   22.7464 H   0  0  0  0  0  0  0  0  0  0  0  0
   19.0718   19.9311   20.5091 O   0  0  0  0  0  0  0  0  0  0  0  0
   19.5941   20.7418   20.3270 H   0  0  0  0  0  0  0  0  0  0  0  0
  1  2  1  0  0  0  0
  1  3  1  0  0  0  0
  1  4  1  0  0  0  0
  4  5  1  0  0  0  0
  4  6  1  0  0  0  0
  4  7  1  0  0  0  0
  7  8  1  0  0  0  0
  1  9  1  0  0  0  0
  7  9  1  0  0  0  0
  9 10  1  0  0  0  0
  9 11  1  0  0  0  0
  7 12  1  0  0  0  0
 12 13  1  0  0  0  0
M  END
> <VConfSearch Rank>
682

> <Conf_Id>
19

> <Delta U+W>
-0.011

> <U+W>
-3.142

> <U>
-0.154

> <W>
-2.989

> <W(PB)>
-4.588

> <W(SA)>
1.599

> <Valence>
6.334

> <Coulomb>
-7.439

> <VdW>
0.951

> <VdW6>
-2.120

> <VdW12>
3.072

> <Bond>
0.065

> <Angle>
0.930

> <Pdih>
5.339

> <Idih>
0.000

> <Tether>
0.000

$$$$
VeraChem MOL file


 13 13  0  0  0  0  0  0  0  0999 V2000     
   18.5074   19.3273   22.7011 C   0  0  0  0  0  0  0  0  0  0  0  0
   17.6762   18.9903   23.3316 H   0  0  0  0  0  0  0  0  0  0  0  0
   18.2824   20.3371   22.3339 H   0  0  0  0  0  0  0  0  0  0  0  0
   18.9841   18.3259   21.5970 C   0  0  0  0  0  0  0  0  0  0  0  0
   18.8624   17.2680   21.8591 H   0  0  0  0  0  0  0  0  0  0  0  0
   18.5768   18.4873   20.5928 H   0  0  0  0  0  0  0  0  0  0  0  0
   20.4201   18.8848   21.8441 C   0  0  0  0  0  0  0  0  0  0  0  0
   21.2219   18.1405   21.7551 H   0  0  0  0  0  0  0  0  0  0  0  0
   19.9415   19.1590   23.3042 C   0  0  0  0  0  0  0  0  0  0  0  0
   20.3653   20.0449   23.7899 H   0  0  0  0  0  0  0  0  0  0  0  0
   20.0516   18.3028   23.9809 H   0  0  0  0  0  0  0  0  0  0  0  0
   20.7461   20.0389   21.0959 O   0  0  0  0  0  0  0  0  0  0  0  0
   21.5859   20.3929   21.4587 H   0  0  0  0  0  0  0  0  0  0  0  0
  1  2  1  0  0  0  0
  1  3  1  0  0  0  0
  1  4  1  0  0  0  0
  4  5  1  0  0  0  0
  4  6  1  0  0  0  0
  4  7  1  0  0  0  0
  7  8  1  0  0  0  0
  1  9  1  0  0  0  0
  7  9  1  0  0  0  0
  9 10  1  0  0  0  0
  9 11  1  0  0  0  0
  7 12  1  0  0  0  0
 12 13  1  0  0  0  0
M  END
> <VConfSearch Rank>
683

> <Conf_Id>
20

> <Delta U+W>
1.030

> <U+W>
-2.101

> <U>
0.841

> <W>
-2.942

> <W(PB)>
-4.530

> <W(SA)>
1.587

> <Valence>
6.736

> <Coulomb>
-7.246

> <VdW>
1.352

> <VdW6>
-2.500

> <VdW12>
3.851

> <Bond>
0.063

> <Angle>
0.687

> <Pdih>
5.986

> <Idih>
0.000

> <Tether>
0.000

$$$$
VeraChem MOL file


 13 13  0  0  0  0  0  0  0  0999 V2000     
   20.7832   19.6417   21.9043 C   0  0  0  0  0  0  0  0  0  0  0  0
   21.0922   19.6649   20.8509 H   0  0  0  0  0  0  0  0  0  0  0  0
   21.4810   20.2546   22.4873 H   0  0  0  0  0  0  0  0  0  0  0  0
   20.4879   18.2125   22.4678 C   0  0  0  0  0  0  0  0  0  0  0  0
   21.0864   17.3959   22.0491 H   0  0  0  0  0  0  0  0  0  0  0  0
   20.5089   18.1388   23.5621 H   0  0  0  0  0  0  0  0  0  0  0  0
   19.0685   18.3963   21.8510 C   0  0  0  0  0  0  0  0  0  0  0  0
   19.0147   18.1551   20.7807 H   0  0  0  0  0  0  0  0  0  0  0  0
   19.2619   19.9145   22.1458 C   0  0  0  0  0  0  0  0  0  0  0  0
   19.0088   20.2213   23.1682 H   0  0  0  0  0  0  0  0  0  0  0  0
   18.7776   20.6011   21.4428 H   0  0  0  0  0  0  0  0  0  0  0  0
   18.0191   17.7732   22.5527 O   0  0  0  0  0  0  0  0  0  0  0  0
   18.1184   18.0230   23.4953 H   0  0  0  0  0  0  0  0  0  0  0  0
  1  2  1  0  0  0  0
  1  3  1  0  0  0  0
  1  4  1  0  0  0  0
  4  5  1  0  0  0  0
  4  6  1  0  0  0  0
  4  7  1  0  0  0  0
  7  8  1  0  0  0  0
  1  9  1  0  0  0  0
  7  9  1  0  0  0  0
  9 10  1  0  0  0  0
  9 11  1  0  0  0  0
  7 12  1  0  0  0  0
 12 13  1  0  0  0  0
M  END
> <VConfSearch Rank>
684

> <Conf_Id>
24

> <Delta U+W>
0.356

> <U+W>
-2.775

> <U>
-0.184

> <W>
-2.591

> <W(PB)>
-4.184

> <W(SA)>
1.593

> <Valence>
6.840

> <Coulomb>
-7.916

> <VdW>
0.893

> <VdW6>
-2.167

> <VdW12>
3.060

> <Bond>
0.059

> <Angle>
0.918

> <Pdih>
5.862

> <Idih>
0.000

> <Tether>
0.000

$$$$
VeraChem MOL file


 13 13  0  0  0  0  0  0  0  0999 V2000     
   20.6387   18.8608   22.8092 C   0  0  0  0  0  0  0  0  0  0  0  0
   21.6968   18.5736   22.7916 H   0  0  0  0  0  0  0  0  0  0  0  0
   20.3813   19.1728   23.8294 H   0  0  0  0  0  0  0  0  0  0  0  0
   19.6425   17.8422   22.1610 C   0  0  0  0  0  0  0  0  0  0  0  0
   20.0664   17.2553   21.3370 H   0  0  0  0  0  0  0  0  0  0  0  0
   19.1341   17.1584   22.8499 H   0  0  0  0  0  0  0  0  0  0  0  0
   18.8174   19.0833   21.6996 C   0  0  0  0  0  0  0  0  0  0  0  0
   18.3366   18.9781   20.7187 H   0  0  0  0  0  0  0  0  0  0  0  0
   20.1783   19.8460   21.6834 C   0  0  0  0  0  0  0  0  0  0  0  0
   20.7336   19.7504   20.7424 H   0  0  0  0  0  0  0  0  0  0  0  0
   20.1363   20.9063   21.9566 H   0  0  0  0  0  0  0  0  0  0  0  0
   17.8842   19.5584   22.6458 O   0  0  0  0  0  0  0  0  0  0  0  0
   18.3657   19.6322   23.4955 H   0  0  0  0  0  0  0  0  0  0  0  0
  1  2  1  0  0  0  0
  1  3  1  0  0  0  0
  1  4  1  0  0  0  0
  4  5  1  0  0  0  0
  4  6  1  0  0  0  0
  4  7  1  0  0  0  0
  7  8  1  0  0  0  0
  1  9  1  0  0  0  0
  7  9  1  0  0  0  0
  9 10  1  0  0  0  0
  9 11  1  0  0  0  0
  7 12  1  0  0  0  0
 12 13  1  0  0  0  0
M  END
> <VConfSearch Rank>
685

> <Conf_Id>
44

> <Delta U+W>
0.823

> <U+W>
-2.308

> <U>
0.039

> <W>
-2.348

> <W(PB)>
-3.918

> <W(SA)>
1.571

> <Valence>
7.320

> <Coulomb>
-8.530

> <VdW>
1.249

> <VdW6>
-2.615

> <VdW12>
3.864

> <Bond>
0.056

> <Angle>
0.694

> <Pdih>
6.570

> <Idih>
0.000

> <Tether>
0.000

$$$$
VeraChem MOL file


 13 13  0  0  0  0  0  0  0  0999 V2000     
   18.4563   18.5429   22.4074 C   0  0  0  0  0  0  0  0  0  0  0  0
   17.8294   19.1269   23.0940 H   0  0  0  0  0  0  0  0  0  0  0  0
   17.8583   17.7177   22.0028 H   0  0  0  0  0  0  0  0  0  0  0  0
   19.8636   18.1588   22.9725 C   0  0  0  0  0  0  0  0  0  0  0  0
   19.9198   17.9837   24.0524 H   0  0  0  0  0  0  0  0  0  0  0  0
   20.3558   17.3266   22.4540 H   0  0  0  0  0  0  0  0  0  0  0  0
   20.3083   19.5728   22.4912 C   0  0  0  0  0  0  0  0  0  0  0  0
   20.0712   20.3771   23.2011 H   0  0  0  0  0  0  0  0  0  0  0  0
   19.2497   19.3938   21.3614 C   0  0  0  0  0  0  0  0  0  0  0  0
   18.7605   20.3108   21.0151 H   0  0  0  0  0  0  0  0  0  0  0  0
   19.6050   18.8318   20.4887 H   0  0  0  0  0  0  0  0  0  0  0  0
   21.6446   19.6680   22.0555 O   0  0  0  0  0  0  0  0  0  0  0  0
   21.7503   20.5470   21.6320 H   0  0  0  0  0  0  0  0  0  0  0  0
  1  2  1  0  0  0  0
  1  3  1  0  0  0  0
  1  4  1  0  0  0  0
  4  5  1  0  0  0  0
  4  6  1  0  0  0  0
  4  7  1  0  0  0  0
  7  8  1  0  0  0  0
  1  9  1  0  0  0  0
  7  9  1  0  0  0  0
  9 10  1  0  0  0  0
  9 11  1  0  0  0  0
  7 12  1  0  0  0  0
 12 13  1  0  0  0  0
M  END
> <VConfSearch Rank>
686

> <Conf_Id>
22

> <Delta U+W>
0.000

> <U+W>
-3.131

> <U>
-0.154

> <W>
-2.978

> <W(PB)>
-4.579

> <W(SA)>
1.601

> <Valence>
6.333

> <Coulomb>
-7.439

> <VdW>
0.952

> <VdW6>
-2.120

> <VdW12>
3.072

> <Bond>
0.065

> <Angle>
0.931

> <Pdih>
5.338

> <Idih>
0.000

> <Tether>
0.000

$$$$
VeraChem MOL file


 13 13  0  0  0  0  0  0  0  0999 V2000     
   19.9287   17.8638   22.9699 C   0  0  0  0  0  0  0  0  0  0  0  0
   19.3302   16.9791   22.7158 H   0  0  0  0  0  0  0  0  0  0  0  0
   20.5854   17.6127   23.8113 H   0  0  0  0  0  0  0  0  0  0  0  0
   19.1104   19.1899   23.1090 C   0  0  0  0  0  0  0  0  0  0  0  0
   19.6189   19.9855   23.6677 H   0  0  0  0  0  0  0  0  0  0  0  0
   18.0887   19.0882   23.4909 H   0  0  0  0  0  0  0  0  0  0  0  0
   19.2500   19.2955   21.5602 C   0  0  0  0  0  0  0  0  0  0  0  0
   18.5057   18.7088   21.0044 H   0  0  0  0  0  0  0  0  0  0  0  0
   20.6129   18.5637   21.7495 C   0  0  0  0  0  0  0  0  0  0  0  0
   21.4507   19.2231   22.0079 H   0  0  0  0  0  0  0  0  0  0  0  0
   20.9203   17.9092   20.9266 H   0  0  0  0  0  0  0  0  0  0  0  0
   19.3358   20.6061   21.0507 O   0  0  0  0  0  0  0  0  0  0  0  0
   18.4446   21.0088   21.1330 H   0  0  0  0  0  0  0  0  0  0  0  0
  1  2  1  0  0  0  0
  1  3  1  0  0  0  0
  1  4  1  0  0  0  0
  4  5  1  0  0  0  0
  4  6  1  0  0  0  0
  4  7  1  0  0  0  0
  7  8  1  0  0  0  0
  1  9  1  0  0  0  0
  7  9  1  0  0  0  0
  9 10  1  0  0  0  0
  9 11  1  0  0  0  0
  7 12  1  0  0  0  0
 12 13  1  0  0  0  0
M  END
> <VConfSearch Rank>
687

> <Conf_Id>
19

> <Delta U+W>
-0.011

> <U+W>
-3.142

> <U>
-0.154

> <W>
-2.989

> <W(PB)>
-4.588

> <W(SA)>
1.599

> <Valence>
6.334

> <Coulomb>
-7.439

> <VdW>
0.951

> <VdW6>
-2.120

> <VdW12>
3.072

> <Bond>
0.065

> <Angle>
0.930

> <Pdih>
5.339

> <Idih>
0.000

> <Tether>
0.000

$$$$
VeraChem MOL file


 13 13  0  0  0  0  0  0  0  0999 V2000     
   20.4355   18.2229   21.8535 C   0  0  0  0  0  0  0  0  0  0  0  0
   20.8240   17.7250   20.9573 H   0  0  0  0  0  0  0  0  0  0  0  0
   21.0281   17.8999   22.7193 H   0  0  0  0  0  0  0  0  0  0  0  0
   18.8864   18.1518   22.0637 C   0  0  0  0  0  0  0  0  0  0  0  0
   18.3026   18.1148   21.1361 H   0  0  0  0  0  0  0  0  0  0  0  0
   18.5276   17.3640   22.7353 H   0  0  0  0  0  0  0  0  0  0  0  0
   19.0016   19.5764   22.6903 C   0  0  0  0  0  0  0  0  0  0  0  0
   18.1514   20.2382   22.4804 H   0  0  0  0  0  0  0  0  0  0  0  0
   20.2298   19.7705   21.7469 C   0  0  0  0  0  0  0  0  0  0  0  0
   21.0429   20.3913   22.1391 H   0  0  0  0  0  0  0  0  0  0  0  0
   19.9720   20.1259   20.7418 H   0  0  0  0  0  0  0  0  0  0  0  0
   19.3006   19.5963   24.0717 O   0  0  0  0  0  0  0  0  0  0  0  0
   19.5192   20.5227   24.3086 H   0  0  0  0  0  0  0  0  0  0  0  0
  1  2  1  0  0  0  0
  1  3  1  0  0  0  0
  1  4  1  0  0  0  0
  4  5  1  0  0  0  0
  4  6  1  0  0  0  0
  4  7  1  0  0  0  0
  7  8  1  0  0  0  0
  1  9  1  0  0  0  0
  7  9  1  0  0  0  0
  9 10  1  0  0  0  0
  9 11  1  0  0  0  0
  7 12  1  0  0  0  0
 12 13  1  0  0  0  0
M  END
> <VConfSearch Rank>
688

> <Conf_Id>
20

> <Delta U+W>
1.030

> <U+W>
-2.101

> <U>
0.841

> <W>
-2.942

> <W(PB)>
-4.530

> <W(SA)>
1.587

> <Valence>
6.736

> <Coulomb>
-7.246

> <VdW>
1.352

> <VdW6>
-2.500

> <VdW12>
3.851

> <Bond>
0.063

> <Angle>
0.687

> <Pdih>
5.986

> <Idih>
0.000

> <Tether>
0.000

$$$$
VeraChem MOL file


 13 13  0  0  0  0  0  0  0  0999 V2000     
   19.7337   19.4563   23.3910 C   0  0  0  0  0  0  0  0  0  0  0  0
   19.4954   20.5233   23.4933 H   0  0  0  0  0  0  0  0  0  0  0  0
   19.9174   19.0414   24.3892 H   0  0  0  0  0  0  0  0  0  0  0  0
   20.8075   19.1276   22.3018 C   0  0  0  0  0  0  0  0  0  0  0  0
   21.5838   19.8848   22.1461 H   0  0  0  0  0  0  0  0  0  0  0  0
   21.2887   18.1483   22.4147 H   0  0  0  0  0  0  0  0  0  0  0  0
   19.6183   19.1606   21.2949 C   0  0  0  0  0  0  0  0  0  0  0  0
   19.3542   20.1704   20.9525 H   0  0  0  0  0  0  0  0  0  0  0  0
   18.7476   18.6502   22.4826 C   0  0  0  0  0  0  0  0  0  0  0  0
   18.7684   17.5642   22.6359 H   0  0  0  0  0  0  0  0  0  0  0  0
   17.7047   18.9858   22.4865 H   0  0  0  0  0  0  0  0  0  0  0  0
   19.7267   18.2794   20.2025 O   0  0  0  0  0  0  0  0  0  0  0  0
   19.9623   17.4006   20.5671 H   0  0  0  0  0  0  0  0  0  0  0  0
  1  2  1  0  0  0  0
  1  3  1  0  0  0  0
  1  4  1  0  0  0  0
  4  5  1  0  0  0  0
  4  6  1  0  0  0  0
  4  7  1  0  0  0  0
  7  8  1  0  0  0  0
  1  9  1  0  0  0  0
  7  9  1  0  0  0  0
  9 10  1  0  0  0  0
  9 11  1  0  0  0  0
  7 12  1  0  0  0  0
 12 13  1  0  0  0  0
M  END
> <VConfSearch Rank>
689

> <Conf_Id>
24

> <Delta U+W>
0.356

> <U+W>
-2.775

> <U>
-0.184

> <W>
-2.591

> <W(PB)>
-4.184

> <W(SA)>
1.593

> <Valence>
6.840

> <Coulomb>
-7.916

> <VdW>
0.893

> <VdW6>
-2.167

> <VdW12>
3.060

> <Bond>
0.059

> <Angle>
0.918

> <Pdih>
5.862

> <Idih>
0.000

> <Tether>
0.000

$$$$
VeraChem MOL file


 13 13  0  0  0  0  0  0  0  0999 V2000     
   20.7335   18.5519   22.1169 C   0  0  0  0  0  0  0  0  0  0  0  0
   21.4268   17.9720   21.4962 H   0  0  0  0  0  0  0  0  0  0  0  0
   21.2589   18.8572   23.0307 H   0  0  0  0  0  0  0  0  0  0  0  0
   19.3245   17.9112   22.3504 C   0  0  0  0  0  0  0  0  0  0  0  0
   18.9701   17.2822   21.5247 H   0  0  0  0  0  0  0  0  0  0  0  0
   19.1936   17.3605   23.2886 H   0  0  0  0  0  0  0  0  0  0  0  0
   18.7611   19.3659   22.3294 C   0  0  0  0  0  0  0  0  0  0  0  0
   17.7703   19.4696   21.8689 H   0  0  0  0  0  0  0  0  0  0  0  0
   19.9592   19.7003   21.3877 C   0  0  0  0  0  0  0  0  0  0  0  0
   19.7604   19.5100   20.3259 H   0  0  0  0  0  0  0  0  0  0  0  0
   20.3807   20.7068   21.4879 H   0  0  0  0  0  0  0  0  0  0  0  0
   18.7855   20.0278   23.5755 O   0  0  0  0  0  0  0  0  0  0  0  0
   19.6871   19.9026   23.9372 H   0  0  0  0  0  0  0  0  0  0  0  0
  1  2  1  0  0  0  0
  1  3  1  0  0  0  0
  1  4  1  0  0  0  0
  4  5  1  0  0  0  0
  4  6  1  0  0  0  0
  4  7  1  0  0  0  0
  7  8  1  0  0  0  0
  1  9  1  0  0  0  0
  7  9  1  0  0  0  0
  9 10  1  0  0  0  0
  9 11  1  0  0  0  0
  7 12  1  0  0  0  0
 12 13  1  0  0  0  0
M  END
> <VConfSearch Rank>
690

> <Conf_Id>
44

> <Delta U+W>
0.823

> <U+W>
-2.308

> <U>
0.039

> <W>
-2.348

> <W(PB)>
-3.918

> <W(SA)>
1.571

> <Valence>
7.320

> <Coulomb>
-8.530

> <VdW>
1.249

> <VdW6>
-2.615

> <VdW12>
3.864

> <Bond>
0.056

> <Angle>
0.694

> <Pdih>
6.570

> <Idih>
0.000

> <Tether>
0.000

$$$$
VeraChem MOL file


 13 13  0  0  0  0  0  0  0  0999 V2000     
   18.8711   18.1046   21.7717 C   0  0  0  0  0  0  0  0  0  0  0  0
   18.3558   17.5306   22.5532 H   0  0  0  0  0  0  0  0  0  0  0  0
   18.5244   17.7531   20.7926 H   0  0  0  0  0  0  0  0  0  0  0  0
   20.4211   18.2126   21.9536 C   0  0  0  0  0  0  0  0  0  0  0  0
   20.9143   17.3531   22.4206 H   0  0  0  0  0  0  0  0  0  0  0  0
   20.9727   18.4855   21.0454 H   0  0  0  0  0  0  0  0  0  0  0  0
   20.1044   19.4091   22.9006 C   0  0  0  0  0  0  0  0  0  0  0  0
   19.8494   19.1071   23.9257 H   0  0  0  0  0  0  0  0  0  0  0  0
   18.8659   19.6541   21.9867 C   0  0  0  0  0  0  0  0  0  0  0  0
   17.9813   20.0694   22.4818 H   0  0  0  0  0  0  0  0  0  0  0  0
   19.0745   20.2425   21.0844 H   0  0  0  0  0  0  0  0  0  0  0  0
   21.0625   20.4419   22.9072 O   0  0  0  0  0  0  0  0  0  0  0  0
   20.6754   21.1943   23.4045 H   0  0  0  0  0  0  0  0  0  0  0  0
  1  2  1  0  0  0  0
  1  3  1  0  0  0  0
  1  4  1  0  0  0  0
  4  5  1  0  0  0  0
  4  6  1  0  0  0  0
  4  7  1  0  0  0  0
  7  8  1  0  0  0  0
  1  9  1  0  0  0  0
  7  9  1  0  0  0  0
  9 10  1  0  0  0  0
  9 11  1  0  0  0  0
  7 12  1  0  0  0  0
 12 13  1  0  0  0  0
M  END
> <VConfSearch Rank>
691

> <Conf_Id>
22

> <Delta U+W>
0.000

> <U+W>
-3.131

> <U>
-0.154

> <W>
-2.978

> <W(PB)>
-4.579

> <W(SA)>
1.601

> <Valence>
6.333

> <Coulomb>
-7.439

> <VdW>
0.952

> <VdW6>
-2.120

> <VdW12>
3.072

> <Bond>
0.065

> <Angle>
0.931

> <Pdih>
5.338

> <Idih>
0.000

> <Tether>
0.000

$$$$
VeraChem MOL file


 13 13  0  0  0  0  0  0  0  0999 V2000     
   20.7092   18.9240   23.0044 C   0  0  0  0  0  0  0  0  0  0  0  0
   21.6288   19.1663   22.4556 H   0  0  0  0  0  0  0  0  0  0  0  0
   20.9717   18.6947   24.0441 H   0  0  0  0  0  0  0  0  0  0  0  0
   19.7721   17.8953   22.2895 C   0  0  0  0  0  0  0  0  0  0  0  0
   19.0426   17.4062   22.9471 H   0  0  0  0  0  0  0  0  0  0  0  0
   20.2694   17.1301   21.6835 H   0  0  0  0  0  0  0  0  0  0  0  0
   19.2181   19.1260   21.5100 C   0  0  0  0  0  0  0  0  0  0  0  0
   19.8265   19.4146   20.6418 H   0  0  0  0  0  0  0  0  0  0  0  0
   19.5379   19.9405   22.7997 C   0  0  0  0  0  0  0  0  0  0  0  0
   18.7554   19.9011   23.5677 H   0  0  0  0  0  0  0  0  0  0  0  0
   19.8262   20.9857   22.6437 H   0  0  0  0  0  0  0  0  0  0  0  0
   17.8542   19.0565   21.1643 O   0  0  0  0  0  0  0  0  0  0  0  0
   17.7700   18.3933   20.4457 H   0  0  0  0  0  0  0  0  0  0  0  0
  1  2  1  0  0  0  0
  1  3  1  0  0  0  0
  1  4  1  0  0  0  0
  4  5  1  0  0  0  0
  4  6  1  0  0  0  0
  4  7  1  0  0  0  0
  7  8  1  0  0  0  0
  1  9  1  0  0  0  0
  7  9  1  0  0  0  0
  9 10  1  0  0  0  0
  9 11  1  0  0  0  0
  7 12  1  0  0  0  0
 12 13  1  0  0  0  0
M  END
> <VConfSearch Rank>
692

> <Conf_Id>
19

> <Delta U+W>
-0.011

> <U+W>
-3.142

> <U>
-0.154

> <W>
-2.989

> <W(PB)>
-4.588

> <W(SA)>
1.599

> <Valence>
6.334

> <Coulomb>
-7.439

> <VdW>
0.951

> <VdW6>
-2.120

> <VdW12>
3.072

> <Bond>
0.065

> <Angle>
0.930

> <Pdih>
5.339

> <Idih>
0.000

> <Tether>
0.000

$$$$
VeraChem MOL file


 13 13  0  0  0  0  0  0  0  0999 V2000     
   20.6235   19.5973   21.7904 C   0  0  0  0  0  0  0  0  0  0  0  0
   21.2642   19.6687   20.9036 H   0  0  0  0  0  0  0  0  0  0  0  0
   20.9550   20.3437   22.5240 H   0  0  0  0  0  0  0  0  0  0  0  0
   20.4139   18.1608   22.3746 C   0  0  0  0  0  0  0  0  0  0  0  0
   20.4431   17.3574   21.6286 H   0  0  0  0  0  0  0  0  0  0  0  0
   21.0614   17.8834   23.2138 H   0  0  0  0  0  0  0  0  0  0  0  0
   18.9743   18.6284   22.7547 C   0  0  0  0  0  0  0  0  0  0  0  0
   18.2035   17.8519   22.6671 H   0  0  0  0  0  0  0  0  0  0  0  0
   19.0811   19.5853   21.5263 C   0  0  0  0  0  0  0  0  0  0  0  0
   18.5697   20.5493   21.6231 H   0  0  0  0  0  0  0  0  0  0  0  0
   18.7873   19.1275   20.5739 H   0  0  0  0  0  0  0  0  0  0  0  0
   18.8702   19.2743   24.0077 O   0  0  0  0  0  0  0  0  0  0  0  0
   17.9747   19.6717   24.0564 H   0  0  0  0  0  0  0  0  0  0  0  0
  1  2  1  0  0  0  0
  1  3  1  0  0  0  0
  1  4  1  0  0  0  0
  4  5  1  0  0  0  0
  4  6  1  0  0  0  0
  4  7  1  0  0  0  0
  7  8  1  0  0  0  0
  1  9  1  0  0  0  0
  7  9  1  0  0  0  0
  9 10  1  0  0  0  0
  9 11  1  0  0  0  0
  7 12  1  0  0  0  0
 12 13  1  0  0  0  0
M  END
> <VConfSearch Rank>
693

> <Conf_Id>
20

> <Delta U+W>
1.030

> <U+W>
-2.101

> <U>
0.841

> <W>
-2.942

> <W(PB)>
-4.530

> <W(SA)>
1.587

> <Valence>
6.736

> <Coulomb>
-7.246

> <VdW>
1.352

> <VdW6>
-2.500

> <VdW12>
3.851

> <Bond>
0.063

> <Angle>
0.687

> <Pdih>
5.986

> <Idih>
0.000

> <Tether>
0.000

$$$$
VeraChem MOL file


 13 13  0  0  0  0  0  0  0  0999 V2000     
   20.1254   18.0203   21.4191 C   0  0  0  0  0  0  0  0  0  0  0  0
   21.0935   17.5400   21.6134 H   0  0  0  0  0  0  0  0  0  0  0  0
   19.6774   17.5582   20.5312 H   0  0  0  0  0  0  0  0  0  0  0  0
   20.1555   19.5843   21.4387 C   0  0  0  0  0  0  0  0  0  0  0  0
   21.0841   20.0530   21.0946 H   0  0  0  0  0  0  0  0  0  0  0  0
   19.3098   20.0646   20.9313 H   0  0  0  0  0  0  0  0  0  0  0  0
   19.9995   19.4457   22.9832 C   0  0  0  0  0  0  0  0  0  0  0  0
   20.9460   19.2657   23.5109 H   0  0  0  0  0  0  0  0  0  0  0  0
   19.1956   18.1475   22.6707 C   0  0  0  0  0  0  0  0  0  0  0  0
   18.1353   18.3067   22.4387 H   0  0  0  0  0  0  0  0  0  0  0  0
   19.2763   17.3473   23.4147 H   0  0  0  0  0  0  0  0  0  0  0  0
   19.2693   20.4723   23.6115 O   0  0  0  0  0  0  0  0  0  0  0  0
   18.4410   20.5873   23.1002 H   0  0  0  0  0  0  0  0  0  0  0  0
  1  2  1  0  0  0  0
  1  3  1  0  0  0  0
  1  4  1  0  0  0  0
  4  5  1  0  0  0  0
  4  6  1  0  0  0  0
  4  7  1  0  0  0  0
  7  8  1  0  0  0  0
  1  9  1  0  0  0  0
  7  9  1  0  0  0  0
  9 10  1  0  0  0  0
  9 11  1  0  0  0  0
  7 12  1  0  0  0  0
 12 13  1  0  0  0  0
M  END
> <VConfSearch Rank>
694

> <Conf_Id>
24

> <Delta U+W>
0.356

> <U+W>
-2.775

> <U>
-0.184

> <W>
-2.591

> <W(PB)>
-4.184

> <W(SA)>
1.593

> <Valence>
6.840

> <Coulomb>
-7.916

> <VdW>
0.893

> <VdW6>
-2.167

> <VdW12>
3.060

> <Bond>
0.059

> <Angle>
0.918

> <Pdih>
5.862

> <Idih>
0.000

> <Tether>
0.000

$$$$
VeraChem MOL file


 13 13  0  0  0  0  0  0  0  0999 V2000     
   18.7289   18.6313   21.7392 C   0  0  0  0  0  0  0  0  0  0  0  0
   18.0811   17.7761   21.5126 H   0  0  0  0  0  0  0  0  0  0  0  0
   18.2506   19.5403   21.3529 H   0  0  0  0  0  0  0  0  0  0  0  0
   20.2376   18.4673   21.3557 C   0  0  0  0  0  0  0  0  0  0  0  0
   20.6078   17.4359   21.4027 H   0  0  0  0  0  0  0  0  0  0  0  0
   20.5429   18.9035   20.3980 H   0  0  0  0  0  0  0  0  0  0  0  0
   20.5576   19.3167   22.6246 C   0  0  0  0  0  0  0  0  0  0  0  0
   21.4711   19.0230   23.1573 H   0  0  0  0  0  0  0  0  0  0  0  0
   19.2378   18.7317   23.2160 C   0  0  0  0  0  0  0  0  0  0  0  0
   19.3628   17.7651   23.7192 H   0  0  0  0  0  0  0  0  0  0  0  0
   18.6728   19.3980   23.8776 H   0  0  0  0  0  0  0  0  0  0  0  0
   20.5463   20.7131   22.4201 O   0  0  0  0  0  0  0  0  0  0  0  0
   19.7146   20.9158   21.9443 H   0  0  0  0  0  0  0  0  0  0  0  0
  1  2  1  0  0  0  0
  1  3  1  0  0  0  0
  1  4  1  0  0  0  0
  4  5  1  0  0  0  0
  4  6  1  0  0  0  0
  4  7  1  0  0  0  0
  7  8  1  0  0  0  0
  1  9  1  0  0  0  0
  7  9  1  0  0  0  0
  9 10  1  0  0  0  0
  9 11  1  0  0  0  0
  7 12  1  0  0  0  0
 12 13  1  0  0  0  0
M  END
> <VConfSearch Rank>
695

> <Conf_Id>
44

> <Delta U+W>
0.823

> <U+W>
-2.308

> <U>
0.039

> <W>
-2.348

> <W(PB)>
-3.918

> <W(SA)>
1.571

> <Valence>
7.320

> <Coulomb>
-8.530

> <VdW>
1.249

> <VdW6>
-2.615

> <VdW12>
3.864

> <Bond>
0.056

> <Angle>
0.694

> <Pdih>
6.570

> <Idih>
0.000

> <Tether>
0.000

$$$$
VeraChem MOL file


 13 13  0  0  0  0  0  0  0  0999 V2000     
   20.7193   19.6817   21.7727 C   0  0  0  0  0  0  0  0  0  0  0  0
   20.8635   20.6761   22.2156 H   0  0  0  0  0  0  0  0  0  0  0  0
   21.5459   19.4833   21.0801 H   0  0  0  0  0  0  0  0  0  0  0  0
   19.2806   19.4140   21.2199 C   0  0  0  0  0  0  0  0  0  0  0  0
   18.7508   20.2808   20.8101 H   0  0  0  0  0  0  0  0  0  0  0  0
   19.2100   18.5862   20.5034 H   0  0  0  0  0  0  0  0  0  0  0  0
   18.9199   19.0307   22.6868 C   0  0  0  0  0  0  0  0  0  0  0  0
   18.6822   19.8934   23.3243 H   0  0  0  0  0  0  0  0  0  0  0  0
   20.3973   18.5476   22.8011 C   0  0  0  0  0  0  0  0  0  0  0  0
   20.8579   18.6483   23.7899 H   0  0  0  0  0  0  0  0  0  0  0  0
   20.5741   17.5300   22.4310 H   0  0  0  0  0  0  0  0  0  0  0  0
   17.9442   18.0237   22.8237 O   0  0  0  0  0  0  0  0  0  0  0  0
   17.9272   17.7621   23.7694 H   0  0  0  0  0  0  0  0  0  0  0  0
  1  2  1  0  0  0  0
  1  3  1  0  0  0  0
  1  4  1  0  0  0  0
  4  5  1  0  0  0  0
  4  6  1  0  0  0  0
  4  7  1  0  0  0  0
  7  8  1  0  0  0  0
  1  9  1  0  0  0  0
  7  9  1  0  0  0  0
  9 10  1  0  0  0  0
  9 11  1  0  0  0  0
  7 12  1  0  0  0  0
 12 13  1  0  0  0  0
M  END
> <VConfSearch Rank>
696

> <Conf_Id>
22

> <Delta U+W>
0.000

> <U+W>
-3.131

> <U>
-0.154

> <W>
-2.978

> <W(PB)>
-4.579

> <W(SA)>
1.601

> <Valence>
6.333

> <Coulomb>
-7.439

> <VdW>
0.952

> <VdW6>
-2.120

> <VdW12>
3.072

> <Bond>
0.065

> <Angle>
0.931

> <Pdih>
5.338

> <Idih>
0.000

> <Tether>
0.000

$$$$
VeraChem MOL file


 13 13  0  0  0  0  0  0  0  0999 V2000     
   20.8539   18.6123   22.6249 C   0  0  0  0  0  0  0  0  0  0  0  0
   21.2588   17.7316   22.1091 H   0  0  0  0  0  0  0  0  0  0  0  0
   21.5888   18.9546   23.3633 H   0  0  0  0  0  0  0  0  0  0  0  0
   19.3856   18.4516   23.1402 C   0  0  0  0  0  0  0  0  0  0  0  0
   19.0925   19.1669   23.9188 H   0  0  0  0  0  0  0  0  0  0  0  0
   19.0937   17.4448   23.4584 H   0  0  0  0  0  0  0  0  0  0  0  0
   18.9633   18.8574   21.6959 C   0  0  0  0  0  0  0  0  0  0  0  0
   18.9705   18.0251   20.9788 H   0  0  0  0  0  0  0  0  0  0  0  0
   20.2667   19.7118   21.6796 C   0  0  0  0  0  0  0  0  0  0  0  0
   20.1652   20.7042   22.1360 H   0  0  0  0  0  0  0  0  0  0  0  0
   20.7526   19.8207   20.7039 H   0  0  0  0  0  0  0  0  0  0  0  0
   17.7628   19.5884   21.6018 O   0  0  0  0  0  0  0  0  0  0  0  0
   17.0277   18.9650   21.7865 H   0  0  0  0  0  0  0  0  0  0  0  0
  1  2  1  0  0  0  0
  1  3  1  0  0  0  0
  1  4  1  0  0  0  0
  4  5  1  0  0  0  0
  4  6  1  0  0  0  0
  4  7  1  0  0  0  0
  7  8  1  0  0  0  0
  1  9  1  0  0  0  0
  7  9  1  0  0  0  0
  9 10  1  0  0  0  0
  9 11  1  0  0  0  0
  7 12  1  0  0  0  0
 12 13  1  0  0  0  0
M  END
> <VConfSearch Rank>
697

> <Conf_Id>
19

> <Delta U+W>
-0.011

> <U+W>
-3.142

> <U>
-0.154

> <W>
-2.989

> <W(PB)>
-4.588

> <W(SA)>
1.599

> <Valence>
6.334

> <Coulomb>
-7.439

> <VdW>
0.951

> <VdW6>
-2.120

> <VdW12>
3.072

> <Bond>
0.065

> <Angle>
0.930

> <Pdih>
5.339

> <Idih>
0.000

> <Tether>
0.000

$$$$
VeraChem MOL file


 13 13  0  0  0  0  0  0  0  0999 V2000     
   20.3827   19.2959   21.3337 C   0  0  0  0  0  0  0  0  0  0  0  0
   20.6793   20.0442   20.5894 H   0  0  0  0  0  0  0  0  0  0  0  0
   21.0514   18.4295   21.2463 H   0  0  0  0  0  0  0  0  0  0  0  0
   18.8599   18.9387   21.3820 C   0  0  0  0  0  0  0  0  0  0  0  0
   18.1904   19.7625   21.1065 H   0  0  0  0  0  0  0  0  0  0  0  0
   18.5582   18.0421   20.8293 H   0  0  0  0  0  0  0  0  0  0  0  0
   19.0488   18.7554   22.9202 C   0  0  0  0  0  0  0  0  0  0  0  0
   18.1895   19.0691   23.5269 H   0  0  0  0  0  0  0  0  0  0  0  0
   20.1840   19.8192   22.7950 C   0  0  0  0  0  0  0  0  0  0  0  0
   21.0370   19.6926   23.4707 H   0  0  0  0  0  0  0  0  0  0  0  0
   19.8358   20.8572   22.8619 H   0  0  0  0  0  0  0  0  0  0  0  0
   19.4775   17.4684   23.3176 O   0  0  0  0  0  0  0  0  0  0  0  0
   19.7272   17.5248   24.2645 H   0  0  0  0  0  0  0  0  0  0  0  0
  1  2  1  0  0  0  0
  1  3  1  0  0  0  0
  1  4  1  0  0  0  0
  4  5  1  0  0  0  0
  4  6  1  0  0  0  0
  4  7  1  0  0  0  0
  7  8  1  0  0  0  0
  1  9  1  0  0  0  0
  7  9  1  0  0  0  0
  9 10  1  0  0  0  0
  9 11  1  0  0  0  0
  7 12  1  0  0  0  0
 12 13  1  0  0  0  0
M  END
> <VConfSearch Rank>
698

> <Conf_Id>
20

> <Delta U+W>
1.030

> <U+W>
-2.101

> <U>
0.841

> <W>
-2.942

> <W(PB)>
-4.530

> <W(SA)>
1.587

> <Valence>
6.736

> <Coulomb>
-7.246

> <VdW>
1.352

> <VdW6>
-2.500

> <VdW12>
3.851

> <Bond>
0.063

> <Angle>
0.687

> <Pdih>
5.986

> <Idih>
0.000

> <Tether>
0.000

$$$$
VeraChem MOL file


 13 13  0  0  0  0  0  0  0  0999 V2000     
   18.7480   19.3042   22.9347 C   0  0  0  0  0  0  0  0  0  0  0  0
   17.7729   19.4220   22.4437 H   0  0  0  0  0  0  0  0  0  0  0  0
   18.6321   19.5296   24.0015 H   0  0  0  0  0  0  0  0  0  0  0  0
   19.9366   20.0151   22.2073 C   0  0  0  0  0  0  0  0  0  0  0  0
   19.6926   20.9429   21.6783 H   0  0  0  0  0  0  0  0  0  0  0  0
   20.8188   20.1898   22.8355 H   0  0  0  0  0  0  0  0  0  0  0  0
   20.0043   18.7314   21.3260 C   0  0  0  0  0  0  0  0  0  0  0  0
   19.2909   18.7281   20.4906 H   0  0  0  0  0  0  0  0  0  0  0  0
   19.4971   17.9746   22.5906 C   0  0  0  0  0  0  0  0  0  0  0  0
   20.2810   17.6932   23.3046 H   0  0  0  0  0  0  0  0  0  0  0  0
   18.8648   17.1004   22.4002 H   0  0  0  0  0  0  0  0  0  0  0  0
   21.2902   18.3707   20.8810 O   0  0  0  0  0  0  0  0  0  0  0  0
   21.8792   18.3910   21.6642 H   0  0  0  0  0  0  0  0  0  0  0  0
  1  2  1  0  0  0  0
  1  3  1  0  0  0  0
  1  4  1  0  0  0  0
  4  5  1  0  0  0  0
  4  6  1  0  0  0  0
  4  7  1  0  0  0  0
  7  8  1  0  0  0  0
  1  9  1  0  0  0  0
  7  9  1  0  0  0  0
  9 10  1  0  0  0  0
  9 11  1  0  0  0  0
  7 12  1  0  0  0  0
 12 13  1  0  0  0  0
M  END
> <VConfSearch Rank>
699

> <Conf_Id>
24

> <Delta U+W>
0.356

> <U+W>
-2.775

> <U>
-0.184

> <W>
-2.591

> <W(PB)>
-4.184

> <W(SA)>
1.593

> <Valence>
6.840

> <Coulomb>
-7.916

> <VdW>
0.893

> <VdW6>
-2.167

> <VdW12>
3.060

> <Bond>
0.059

> <Angle>
0.918

> <Pdih>
5.862

> <Idih>
0.000

> <Tether>
0.000

$$$$
VeraChem MOL file


 13 13  0  0  0  0  0  0  0  0999 V2000     
   19.3721   18.0589   22.7852 C   0  0  0  0  0  0  0  0  0  0  0  0
   18.6859   17.6573   23.5403 H   0  0  0  0  0  0  0  0  0  0  0  0
   20.0208   17.2446   22.4384 H   0  0  0  0  0  0  0  0  0  0  0  0
   20.1209   19.3775   23.1734 C   0  0  0  0  0  0  0  0  0  0  0  0
   19.5611   20.0343   23.8504 H   0  0  0  0  0  0  0  0  0  0  0  0
   21.1373   19.2585   23.5653 H   0  0  0  0  0  0  0  0  0  0  0  0
   20.0126   19.7737   21.6684 C   0  0  0  0  0  0  0  0  0  0  0  0
   19.8554   20.8441   21.4839 H   0  0  0  0  0  0  0  0  0  0  0  0
   18.7150   18.9078   21.6460 C   0  0  0  0  0  0  0  0  0  0  0  0
   17.8104   19.4494   21.9484 H   0  0  0  0  0  0  0  0  0  0  0  0
   18.5076   18.3800   20.7084 H   0  0  0  0  0  0  0  0  0  0  0  0
   21.0591   19.2924   20.8530 O   0  0  0  0  0  0  0  0  0  0  0  0
   21.1537   18.3395   21.0590 H   0  0  0  0  0  0  0  0  0  0  0  0
  1  2  1  0  0  0  0
  1  3  1  0  0  0  0
  1  4  1  0  0  0  0
  4  5  1  0  0  0  0
  4  6  1  0  0  0  0
  4  7  1  0  0  0  0
  7  8  1  0  0  0  0
  1  9  1  0  0  0  0
  7  9  1  0  0  0  0
  9 10  1  0  0  0  0
  9 11  1  0  0  0  0
  7 12  1  0  0  0  0
 12 13  1  0  0  0  0
M  END
> <VConfSearch Rank>
700

> <Conf_Id>
44

> <Delta U+W>
0.823

> <U+W>
-2.308

> <U>
0.039

> <W>
-2.348

> <W(PB)>
-3.918

> <W(SA)>
1.571

> <Valence>
7.320

> <Coulomb>
-8.530

> <VdW>
1.249

> <VdW6>
-2.615

> <VdW12>
3.864

> <Bond>
0.056

> <Angle>
0.694

> <Pdih>
6.570

> <Idih>
0.000

> <Tether>
0.000

$$$$
VeraChem MOL file


 13 13  0  0  0  0  0  0  0  0999 V2000     
   20.0236   18.7975   23.4949 C   0  0  0  0  0  0  0  0  0  0  0  0
   20.5753   19.6238   23.9622 H   0  0  0  0  0  0  0  0  0  0  0  0
   19.8817   18.0054   24.2398 H   0  0  0  0  0  0  0  0  0  0  0  0
   20.5800   18.3422   22.1055 C   0  0  0  0  0  0  0  0  0  0  0  0
   21.6631   18.4288   21.9663 H   0  0  0  0  0  0  0  0  0  0  0  0
   20.2624   17.3410   21.7887 H   0  0  0  0  0  0  0  0  0  0  0  0
   19.7260   19.5062   21.5184 C   0  0  0  0  0  0  0  0  0  0  0  0
   20.2196   20.4865   21.5686 H   0  0  0  0  0  0  0  0  0  0  0  0
   18.7476   19.2293   22.6996 C   0  0  0  0  0  0  0  0  0  0  0  0
   18.2090   20.1005   23.0882 H   0  0  0  0  0  0  0  0  0  0  0  0
   18.0276   18.4222   22.5154 H   0  0  0  0  0  0  0  0  0  0  0  0
   19.1986   19.2769   20.2324 O   0  0  0  0  0  0  0  0  0  0  0  0
   18.5584   19.9976   20.0481 H   0  0  0  0  0  0  0  0  0  0  0  0
  1  2  1  0  0  0  0
  1  3  1  0  0  0  0
  1  4  1  0  0  0  0
  4  5  1  0  0  0  0
  4  6  1  0  0  0  0
  4  7  1  0  0  0  0
  7  8  1  0  0  0  0
  1  9  1  0  0  0  0
  7  9  1  0  0  0  0
  9 10  1  0  0  0  0
  9 11  1  0  0  0  0
  7 12  1  0  0  0  0
 12 13  1  0  0  0  0
M  END
> <VConfSearch Rank>
701

> <Conf_Id>
22

> <Delta U+W>
0.000

> <U+W>
-3.131

> <U>
-0.154

> <W>
-2.978

> <W(PB)>
-4.579

> <W(SA)>
1.601

> <Valence>
6.333

> <Coulomb>
-7.439

> <VdW>
0.952

> <VdW6>
-2.120

> <VdW12>
3.072

> <Bond>
0.065

> <Angle>
0.931

> <Pdih>
5.338

> <Idih>
0.000

> <Tether>
0.000

$$$$
VeraChem MOL file


 13 13  0  0  0  0  0  0  0  0999 V2000     
   20.6452   18.5514   23.0005 C   0  0  0  0  0  0  0  0  0  0  0  0
   21.2537   17.7559   22.5505 H   0  0  0  0  0  0  0  0  0  0  0  0
   21.0418   18.7741   23.9982 H   0  0  0  0  0  0  0  0  0  0  0  0
   19.1000   18.3239   22.9104 C   0  0  0  0  0  0  0  0  0  0  0  0
   18.5077   18.9157   23.6195 H   0  0  0  0  0  0  0  0  0  0  0  0
   18.7627   17.2824   22.9521 H   0  0  0  0  0  0  0  0  0  0  0  0
   19.2143   18.9450   21.4855 C   0  0  0  0  0  0  0  0  0  0  0  0
   19.5241   18.2301   20.7110 H   0  0  0  0  0  0  0  0  0  0  0  0
   20.3894   19.7842   22.0720 C   0  0  0  0  0  0  0  0  0  0  0  0
   20.0790   20.6972   22.5951 H   0  0  0  0  0  0  0  0  0  0  0  0
   21.1918   20.0357   21.3700 H   0  0  0  0  0  0  0  0  0  0  0  0
   18.0961   19.6892   21.0609 O   0  0  0  0  0  0  0  0  0  0  0  0
   17.3763   19.0496   20.8712 H   0  0  0  0  0  0  0  0  0  0  0  0
  1  2  1  0  0  0  0
  1  3  1  0  0  0  0
  1  4  1  0  0  0  0
  4  5  1  0  0  0  0
  4  6  1  0  0  0  0
  4  7  1  0  0  0  0
  7  8  1  0  0  0  0
  1  9  1  0  0  0  0
  7  9  1  0  0  0  0
  9 10  1  0  0  0  0
  9 11  1  0  0  0  0
  7 12  1  0  0  0  0
 12 13  1  0  0  0  0
M  END
> <VConfSearch Rank>
702

> <Conf_Id>
19

> <Delta U+W>
-0.011

> <U+W>
-3.142

> <U>
-0.154

> <W>
-2.989

> <W(PB)>
-4.588

> <W(SA)>
1.599

> <Valence>
6.334

> <Coulomb>
-7.439

> <VdW>
0.951

> <VdW6>
-2.120

> <VdW12>
3.072

> <Bond>
0.065

> <Angle>
0.930

> <Pdih>
5.339

> <Idih>
0.000

> <Tether>
0.000

$$$$
VeraChem MOL file


 13 13  0  0  0  0  0  0  0  0999 V2000     
   18.9941   18.9334   23.3270 C   0  0  0  0  0  0  0  0  0  0  0  0
   18.9598   19.1843   24.3937 H   0  0  0  0  0  0  0  0  0  0  0  0
   18.0666   18.4107   23.0593 H   0  0  0  0  0  0  0  0  0  0  0  0
   20.3015   18.2342   22.8260 C   0  0  0  0  0  0  0  0  0  0  0  0
   21.2085   18.5207   23.3718 H   0  0  0  0  0  0  0  0  0  0  0  0
   20.2658   17.1415   22.7547 H   0  0  0  0  0  0  0  0  0  0  0  0
   20.0893   19.0083   21.4876 C   0  0  0  0  0  0  0  0  0  0  0  0
   21.0150   19.3370   20.9979 H   0  0  0  0  0  0  0  0  0  0  0  0
   19.3877   20.0974   22.3581 C   0  0  0  0  0  0  0  0  0  0  0  0
   18.5558   20.6290   21.8831 H   0  0  0  0  0  0  0  0  0  0  0  0
   20.0732   20.8361   22.7910 H   0  0  0  0  0  0  0  0  0  0  0  0
   19.2509   18.3601   20.5521 O   0  0  0  0  0  0  0  0  0  0  0  0
   19.0533   19.0070   19.8418 H   0  0  0  0  0  0  0  0  0  0  0  0
  1  2  1  0  0  0  0
  1  3  1  0  0  0  0
  1  4  1  0  0  0  0
  4  5  1  0  0  0  0
  4  6  1  0  0  0  0
  4  7  1  0  0  0  0
  7  8  1  0  0  0  0
  1  9  1  0  0  0  0
  7  9  1  0  0  0  0
  9 10  1  0  0  0  0
  9 11  1  0  0  0  0
  7 12  1  0  0  0  0
 12 13  1  0  0  0  0
M  END
> <VConfSearch Rank>
703

> <Conf_Id>
20

> <Delta U+W>
1.030

> <U+W>
-2.101

> <U>
0.841

> <W>
-2.942

> <W(PB)>
-4.530

> <W(SA)>
1.587

> <Valence>
6.736

> <Coulomb>
-7.246

> <VdW>
1.352

> <VdW6>
-2.500

> <VdW12>
3.851

> <Bond>
0.063

> <Angle>
0.687

> <Pdih>
5.986

> <Idih>
0.000

> <Tether>
0.000

$$$$
VeraChem MOL file


 13 13  0  0  0  0  0  0  0  0999 V2000     
   19.9815   19.1705   23.4534 C   0  0  0  0  0  0  0  0  0  0  0  0
   19.1288   19.3969   24.1071 H   0  0  0  0  0  0  0  0  0  0  0  0
   20.8976   19.1837   24.0558 H   0  0  0  0  0  0  0  0  0  0  0  0
   20.0219   19.9924   22.1229 C   0  0  0  0  0  0  0  0  0  0  0  0
   19.6179   21.0096   22.1721 H   0  0  0  0  0  0  0  0  0  0  0  0
   21.0045   20.0272   21.6363 H   0  0  0  0  0  0  0  0  0  0  0  0
   19.0534   18.9058   21.5658 C   0  0  0  0  0  0  0  0  0  0  0  0
   17.9991   19.0772   21.8220 H   0  0  0  0  0  0  0  0  0  0  0  0
   19.7844   17.9232   22.5299 C   0  0  0  0  0  0  0  0  0  0  0  0
   20.7138   17.4954   22.1342 H   0  0  0  0  0  0  0  0  0  0  0  0
   19.1705   17.1129   22.9384 H   0  0  0  0  0  0  0  0  0  0  0  0
   19.1901   18.6203   20.1941 O   0  0  0  0  0  0  0  0  0  0  0  0
   20.1451   18.4776   20.0261 H   0  0  0  0  0  0  0  0  0  0  0  0
  1  2  1  0  0  0  0
  1  3  1  0  0  0  0
  1  4  1  0  0  0  0
  4  5  1  0  0  0  0
  4  6  1  0  0  0  0
  4  7  1  0  0  0  0
  7  8  1  0  0  0  0
  1  9  1  0  0  0  0
  7  9  1  0  0  0  0
  9 10  1  0  0  0  0
  9 11  1  0  0  0  0
  7 12  1  0  0  0  0
 12 13  1  0  0  0  0
M  END
> <VConfSearch Rank>
704

> <Conf_Id>
24

> <Delta U+W>
0.356

> <U+W>
-2.775

> <U>
-0.184

> <W>
-2.591

> <W(PB)>
-4.184

> <W(SA)>
1.593

> <Valence>
6.840

> <Coulomb>
-7.916

> <VdW>
0.893

> <VdW6>
-2.167

> <VdW12>
3.060

> <Bond>
0.059

> <Angle>
0.918

> <Pdih>
5.862

> <Idih>
0.000

> <Tether>
0.000

$$$$
VeraChem MOL file


 13 13  0  0  0  0  0  0  0  0999 V2000     
   19.0221   19.8706   22.2846 C   0  0  0  0  0  0  0  0  0  0  0  0
   18.7321   20.7387   22.8885 H   0  0  0  0  0  0  0  0  0  0  0  0
   18.4129   19.8643   21.3719 H   0  0  0  0  0  0  0  0  0  0  0  0
   19.0883   18.5020   23.0415 C   0  0  0  0  0  0  0  0  0  0  0  0
   19.3589   18.5827   24.1013 H   0  0  0  0  0  0  0  0  0  0  0  0
   18.2051   17.8591   22.9557 H   0  0  0  0  0  0  0  0  0  0  0  0
   20.2840   18.1463   22.1046 C   0  0  0  0  0  0  0  0  0  0  0  0
   21.0775   17.5523   22.5757 H   0  0  0  0  0  0  0  0  0  0  0  0
   20.5584   19.6812   22.0522 C   0  0  0  0  0  0  0  0  0  0  0  0
   21.1895   20.0510   22.8695 H   0  0  0  0  0  0  0  0  0  0  0  0
   20.9548   20.0648   21.1054 H   0  0  0  0  0  0  0  0  0  0  0  0
   19.9171   17.5685   20.8704 O   0  0  0  0  0  0  0  0  0  0  0  0
   19.2111   18.1365   20.4985 H   0  0  0  0  0  0  0  0  0  0  0  0
  1  2  1  0  0  0  0
  1  3  1  0  0  0  0
  1  4  1  0  0  0  0
  4  5  1  0  0  0  0
  4  6  1  0  0  0  0
  4  7  1  0  0  0  0
  7  8  1  0  0  0  0
  1  9  1  0  0  0  0
  7  9  1  0  0  0  0
  9 10  1  0  0  0  0
  9 11  1  0  0  0  0
  7 12  1  0  0  0  0
 12 13  1  0  0  0  0
M  END
> <VConfSearch Rank>
705

> <Conf_Id>
44

> <Delta U+W>
0.823

> <U+W>
-2.308

> <U>
0.039

> <W>
-2.348

> <W(PB)>
-3.918

> <W(SA)>
1.571

> <Valence>
7.320

> <Coulomb>
-8.530

> <VdW>
1.249

> <VdW6>
-2.615

> <VdW12>
3.864

> <Bond>
0.056

> <Angle>
0.694

> <Pdih>
6.570

> <Idih>
0.000

> <Tether>
0.000

$$$$
VeraChem MOL file


 13 13  0  0  0  0  0  0  0  0999 V2000     
   19.9106   17.9009   22.8630 C   0  0  0  0  0  0  0  0  0  0  0  0
   20.3171   17.1260   22.1998 H   0  0  0  0  0  0  0  0  0  0  0  0
   19.8719   17.5032   23.8841 H   0  0  0  0  0  0  0  0  0  0  0  0
   18.6048   18.5878   22.3433 C   0  0  0  0  0  0  0  0  0  0  0  0
   17.9292   17.9588   21.7534 H   0  0  0  0  0  0  0  0  0  0  0  0
   18.0209   19.1075   23.1132 H   0  0  0  0  0  0  0  0  0  0  0  0
   19.5597   19.5091   21.5258 C   0  0  0  0  0  0  0  0  0  0  0  0
   19.8920   19.0701   20.5751 H   0  0  0  0  0  0  0  0  0  0  0  0
   20.5660   19.3120   22.6996 C   0  0  0  0  0  0  0  0  0  0  0  0
   21.6269   19.3223   22.4264 H   0  0  0  0  0  0  0  0  0  0  0  0
   20.4134   19.9891   23.5493 H   0  0  0  0  0  0  0  0  0  0  0  0
   19.1063   20.8293   21.3358 O   0  0  0  0  0  0  0  0  0  0  0  0
   19.8538   21.3419   20.9593 H   0  0  0  0  0  0  0  0  0  0  0  0
  1  2  1  0  0  0  0
  1  3  1  0  0  0  0
  1  4  1  0  0  0  0
  4  5  1  0  0  0  0
  4  6  1  0  0  0  0
  4  7  1  0  0  0  0
  7  8  1  0  0  0  0
  1  9  1  0  0  0  0
  7  9  1  0  0  0  0
  9 10  1  0  0  0  0
  9 11  1  0  0  0  0
  7 12  1  0  0  0  0
 12 13  1  0  0  0  0
M  END
> <VConfSearch Rank>
706

> <Conf_Id>
22

> <Delta U+W>
0.000

> <U+W>
-3.131

> <U>
-0.154

> <W>
-2.978

> <W(PB)>
-4.579

> <W(SA)>
1.601

> <Valence>
6.333

> <Coulomb>
-7.439

> <VdW>
0.952

> <VdW6>
-2.120

> <VdW12>
3.072

> <Bond>
0.065

> <Angle>
0.931

> <Pdih>
5.338

> <Idih>
0.000

> <Tether>
0.000

$$$$
VeraChem MOL file


 13 13  0  0  0  0  0  0  0  0999 V2000     
   20.5218   19.5207   23.0146 C   0  0  0  0  0  0  0  0  0  0  0  0
   20.3734   20.6055   23.0970 H   0  0  0  0  0  0  0  0  0  0  0  0
   21.4259   19.2474   23.5716 H   0  0  0  0  0  0  0  0  0  0  0  0
   20.4128   18.9536   21.5607 C   0  0  0  0  0  0  0  0  0  0  0  0
   20.8705   17.9667   21.4184 H   0  0  0  0  0  0  0  0  0  0  0  0
   20.7499   19.6179   20.7574 H   0  0  0  0  0  0  0  0  0  0  0  0
   18.8759   18.9235   21.8181 C   0  0  0  0  0  0  0  0  0  0  0  0
   18.3765   19.8874   21.6489 H   0  0  0  0  0  0  0  0  0  0  0  0
   19.2478   18.6618   23.3087 C   0  0  0  0  0  0  0  0  0  0  0  0
   19.4477   17.6103   23.5493 H   0  0  0  0  0  0  0  0  0  0  0  0
   18.5521   19.0671   24.0514 H   0  0  0  0  0  0  0  0  0  0  0  0
   18.1781   17.8797   21.1792 O   0  0  0  0  0  0  0  0  0  0  0  0
   18.1497   18.0925   20.2216 H   0  0  0  0  0  0  0  0  0  0  0  0
  1  2  1  0  0  0  0
  1  3  1  0  0  0  0
  1  4  1  0  0  0  0
  4  5  1  0  0  0  0
  4  6  1  0  0  0  0
  4  7  1  0  0  0  0
  7  8  1  0  0  0  0
  1  9  1  0  0  0  0
  7  9  1  0  0  0  0
  9 10  1  0  0  0  0
  9 11  1  0  0  0  0
  7 12  1  0  0  0  0
 12 13  1  0  0  0  0
M  END
> <VConfSearch Rank>
707

> <Conf_Id>
19

> <Delta U+W>
-0.011

> <U+W>
-3.142

> <U>
-0.154

> <W>
-2.989

> <W(PB)>
-4.588

> <W(SA)>
1.599

> <Valence>
6.334

> <Coulomb>
-7.439

> <VdW>
0.951

> <VdW6>
-2.120

> <VdW12>
3.072

> <Bond>
0.065

> <Angle>
0.930

> <Pdih>
5.339

> <Idih>
0.000

> <Tether>
0.000

$$$$
VeraChem MOL file


 13 13  0  0  0  0  0  0  0  0999 V2000     
   20.1176   19.9821   22.9287 C   0  0  0  0  0  0  0  0  0  0  0  0
   20.7387   20.8843   22.8815 H   0  0  0  0  0  0  0  0  0  0  0  0
   19.7163   19.8850   23.9460 H   0  0  0  0  0  0  0  0  0  0  0  0
   20.7583   18.6744   22.3556 C   0  0  0  0  0  0  0  0  0  0  0  0
   21.4631   18.8365   21.5312 H   0  0  0  0  0  0  0  0  0  0  0  0
   21.2236   18.0055   23.0881 H   0  0  0  0  0  0  0  0  0  0  0  0
   19.3185   18.2826   21.8983 C   0  0  0  0  0  0  0  0  0  0  0  0
   19.2733   17.7410   20.9447 H   0  0  0  0  0  0  0  0  0  0  0  0
   19.0550   19.8173   21.7919 C   0  0  0  0  0  0  0  0  0  0  0  0
   18.0386   20.1476   22.0329 H   0  0  0  0  0  0  0  0  0  0  0  0
   19.3470   20.2573   20.8305 H   0  0  0  0  0  0  0  0  0  0  0  0
   18.5470   17.6104   22.8735 O   0  0  0  0  0  0  0  0  0  0  0  0
   17.6248   17.5755   22.5412 H   0  0  0  0  0  0  0  0  0  0  0  0
  1  2  1  0  0  0  0
  1  3  1  0  0  0  0
  1  4  1  0  0  0  0
  4  5  1  0  0  0  0
  4  6  1  0  0  0  0
  4  7  1  0  0  0  0
  7  8  1  0  0  0  0
  1  9  1  0  0  0  0
  7  9  1  0  0  0  0
  9 10  1  0  0  0  0
  9 11  1  0  0  0  0
  7 12  1  0  0  0  0
 12 13  1  0  0  0  0
M  END
> <VConfSearch Rank>
708

> <Conf_Id>
20

> <Delta U+W>
1.030

> <U+W>
-2.101

> <U>
0.841

> <W>
-2.942

> <W(PB)>
-4.530

> <W(SA)>
1.587

> <Valence>
6.736

> <Coulomb>
-7.246

> <VdW>
1.352

> <VdW6>
-2.500

> <VdW12>
3.851

> <Bond>
0.063

> <Angle>
0.687

> <Pdih>
5.986

> <Idih>
0.000

> <Tether>
0.000

$$$$
VeraChem MOL file


 13 13  0  0  0  0  0  0  0  0999 V2000     
   19.2481   18.0897   21.4070 C   0  0  0  0  0  0  0  0  0  0  0  0
   19.9406   17.4754   20.8166 H   0  0  0  0  0  0  0  0  0  0  0  0
   18.2210   17.8017   21.1528 H   0  0  0  0  0  0  0  0  0  0  0  0
   19.5561   19.6234   21.3887 C   0  0  0  0  0  0  0  0  0  0  0  0
   19.9930   20.0165   20.4641 H   0  0  0  0  0  0  0  0  0  0  0  0
   18.7134   20.2628   21.6794 H   0  0  0  0  0  0  0  0  0  0  0  0
   20.5654   19.3097   22.5341 C   0  0  0  0  0  0  0  0  0  0  0  0
   21.5416   18.9512   22.1801 H   0  0  0  0  0  0  0  0  0  0  0  0
   19.5820   18.1683   22.9333 C   0  0  0  0  0  0  0  0  0  0  0  0
   18.7452   18.4824   23.5692 H   0  0  0  0  0  0  0  0  0  0  0  0
   20.0418   17.2762   23.3728 H   0  0  0  0  0  0  0  0  0  0  0  0
   20.7292   20.3287   23.4915 O   0  0  0  0  0  0  0  0  0  0  0  0
   19.8311   20.6068   23.7686 H   0  0  0  0  0  0  0  0  0  0  0  0
  1  2  1  0  0  0  0
  1  3  1  0  0  0  0
  1  4  1  0  0  0  0
  4  5  1  0  0  0  0
  4  6  1  0  0  0  0
  4  7  1  0  0  0  0
  7  8  1  0  0  0  0
  1  9  1  0  0  0  0
  7  9  1  0  0  0  0
  9 10  1  0  0  0  0
  9 11  1  0  0  0  0
  7 12  1  0  0  0  0
 12 13  1  0  0  0  0
M  END
> <VConfSearch Rank>
709

> <Conf_Id>
24

> <Delta U+W>
0.356

> <U+W>
-2.775

> <U>
-0.184

> <W>
-2.591

> <W(PB)>
-4.184

> <W(SA)>
1.593

> <Valence>
6.840

> <Coulomb>
-7.916

> <VdW>
0.893

> <VdW6>
-2.167

> <VdW12>
3.060

> <Bond>
0.059

> <Angle>
0.918

> <Pdih>
5.862

> <Idih>
0.000

> <Tether>
0.000

$$$$
VeraChem MOL file


 13 13  0  0  0  0  0  0  0  0999 V2000     
   18.6552   18.5655   22.3654 C   0  0  0  0  0  0  0  0  0  0  0  0
   17.7143   18.2703   21.8859 H   0  0  0  0  0  0  0  0  0  0  0  0
   18.5587   18.4041   23.4466 H   0  0  0  0  0  0  0  0  0  0  0  0
   19.2213   19.9664   21.9567 C   0  0  0  0  0  0  0  0  0  0  0  0
   18.9754   20.2736   20.9329 H   0  0  0  0  0  0  0  0  0  0  0  0
   18.9916   20.7967   22.6339 H   0  0  0  0  0  0  0  0  0  0  0  0
   20.6400   19.3353   22.1084 C   0  0  0  0  0  0  0  0  0  0  0  0
   21.3844   19.6965   21.3873 H   0  0  0  0  0  0  0  0  0  0  0  0
   19.9605   17.9837   21.7267 C   0  0  0  0  0  0  0  0  0  0  0  0
   19.8959   17.8048   20.6465 H   0  0  0  0  0  0  0  0  0  0  0  0
   20.3743   17.0882   22.2038 H   0  0  0  0  0  0  0  0  0  0  0  0
   21.1716   19.3820   23.4148 O   0  0  0  0  0  0  0  0  0  0  0  0
   20.4687   19.0508   24.0111 H   0  0  0  0  0  0  0  0  0  0  0  0
  1  2  1  0  0  0  0
  1  3  1  0  0  0  0
  1  4  1  0  0  0  0
  4  5  1  0  0  0  0
  4  6  1  0  0  0  0
  4  7  1  0  0  0  0
  7  8  1  0  0  0  0
  1  9  1  0  0  0  0
  7  9  1  0  0  0  0
  9 10  1  0  0  0  0
  9 11  1  0  0  0  0
  7 12  1  0  0  0  0
 12 13  1  0  0  0  0
M  END
> <VConfSearch Rank>
710

> <Conf_Id>
44

> <Delta U+W>
0.823

> <U+W>
-2.308

> <U>
0.039

> <W>
-2.348

> <W(PB)>
-3.918

> <W(SA)>
1.571

> <Valence>
7.320

> <Coulomb>
-8.530

> <VdW>
1.249

> <VdW6>
-2.615

> <VdW12>
3.864

> <Bond>
0.056

> <Angle>
0.694

> <Pdih>
6.570

> <Idih>
0.000

> <Tether>
0.000

$$$$
VeraChem MOL file


 13 13  0  0  0  0  0  0  0  0999 V2000     
   19.0649   19.6652   21.2527 C   0  0  0  0  0  0  0  0  0  0  0  0
   19.6465   20.5028   20.8455 H   0  0  0  0  0  0  0  0  0  0  0  0
   18.1478   19.5555   20.6617 H   0  0  0  0  0  0  0  0  0  0  0  0
   18.8824   19.6893   22.8062 C   0  0  0  0  0  0  0  0  0  0  0  0
   18.8202   20.6794   23.2706 H   0  0  0  0  0  0  0  0  0  0  0  0
   18.0578   19.0708   23.1819 H   0  0  0  0  0  0  0  0  0  0  0  0
   20.2804   19.0026   22.8591 C   0  0  0  0  0  0  0  0  0  0  0  0
   21.1220   19.7056   22.7916 H   0  0  0  0  0  0  0  0  0  0  0  0
   19.8856   18.3560   21.4971 C   0  0  0  0  0  0  0  0  0  0  0  0
   20.7101   18.1667   20.8010 H   0  0  0  0  0  0  0  0  0  0  0  0
   19.2800   17.4451   21.5834 H   0  0  0  0  0  0  0  0  0  0  0  0
   20.4677   18.0989   23.9235 O   0  0  0  0  0  0  0  0  0  0  0  0
   21.3073   17.6200   23.7539 H   0  0  0  0  0  0  0  0  0  0  0  0
  1  2  1  0  0  0  0
  1  3  1  0  0  0  0
  1  4  1  0  0  0  0
  4  5  1  0  0  0  0
  4  6  1  0  0  0  0
  4  7  1  0  0  0  0
  7  8  1  0  0  0  0
  1  9  1  0  0  0  0
  7  9  1  0  0  0  0
  9 10  1  0  0  0  0
  9 11  1  0  0  0  0
  7 12  1  0  0  0  0
 12 13  1  0  0  0  0
M  END
> <VConfSearch Rank>
711

> <Conf_Id>
22

> <Delta U+W>
0.000

> <U+W>
-3.131

> <U>
-0.154

> <W>
-2.978

> <W(PB)>
-4.579

> <W(SA)>
1.601

> <Valence>
6.333

> <Coulomb>
-7.439

> <VdW>
0.952

> <VdW6>
-2.120

> <VdW12>
3.072

> <Bond>
0.065

> <Angle>
0.931

> <Pdih>
5.338

> <Idih>
0.000

> <Tether>
0.000

$$$$
VeraChem MOL file


 13 13  0  0  0  0  0  0  0  0999 V2000     
   20.0006   20.0454   22.8374 C   0  0  0  0  0  0  0  0  0  0  0  0
   20.9936   19.9855   23.3022 H   0  0  0  0  0  0  0  0  0  0  0  0
   19.5730   21.0324   23.0505 H   0  0  0  0  0  0  0  0  0  0  0  0
   19.0712   18.8187   23.1183 C   0  0  0  0  0  0  0  0  0  0  0  0
   18.0033   19.0049   22.9490 H   0  0  0  0  0  0  0  0  0  0  0  0
   19.1946   18.3334   24.0926 H   0  0  0  0  0  0  0  0  0  0  0  0
   19.8078   18.1416   21.9232 C   0  0  0  0  0  0  0  0  0  0  0  0
   20.7663   17.6784   22.1950 H   0  0  0  0  0  0  0  0  0  0  0  0
   19.9479   19.5817   21.3442 C   0  0  0  0  0  0  0  0  0  0  0  0
   19.0725   19.9334   20.7842 H   0  0  0  0  0  0  0  0  0  0  0  0
   20.8470   19.7697   20.7474 H   0  0  0  0  0  0  0  0  0  0  0  0
   19.0247   17.2573   21.1555 O   0  0  0  0  0  0  0  0  0  0  0  0
   18.8797   16.4521   21.6975 H   0  0  0  0  0  0  0  0  0  0  0  0
  1  2  1  0  0  0  0
  1  3  1  0  0  0  0
  1  4  1  0  0  0  0
  4  5  1  0  0  0  0
  4  6  1  0  0  0  0
  4  7  1  0  0  0  0
  7  8  1  0  0  0  0
  1  9  1  0  0  0  0
  7  9  1  0  0  0  0
  9 10  1  0  0  0  0
  9 11  1  0  0  0  0
  7 12  1  0  0  0  0
 12 13  1  0  0  0  0
M  END
> <VConfSearch Rank>
712

> <Conf_Id>
19

> <Delta U+W>
-0.011

> <U+W>
-3.142

> <U>
-0.154

> <W>
-2.989

> <W(PB)>
-4.588

> <W(SA)>
1.599

> <Valence>
6.334

> <Coulomb>
-7.439

> <VdW>
0.951

> <VdW6>
-2.120

> <VdW12>
3.072

> <Bond>
0.065

> <Angle>
0.930

> <Pdih>
5.339

> <Idih>
0.000

> <Tether>
0.000

$$$$
VeraChem MOL file


 13 13  0  0  0  0  0  0  0  0999 V2000     
   18.5761   19.3771   21.7352 C   0  0  0  0  0  0  0  0  0  0  0  0
   17.6488   19.9524   21.8403 H   0  0  0  0  0  0  0  0  0  0  0  0
   18.6174   18.9601   20.7205 H   0  0  0  0  0  0  0  0  0  0  0  0
   18.8802   18.3472   22.8735 C   0  0  0  0  0  0  0  0  0  0  0  0
   18.4985   18.6343   23.8607 H   0  0  0  0  0  0  0  0  0  0  0  0
   18.5903   17.3097   22.6738 H   0  0  0  0  0  0  0  0  0  0  0  0
   20.3867   18.6857   22.6473 C   0  0  0  0  0  0  0  0  0  0  0  0
   20.9976   18.6838   23.5592 H   0  0  0  0  0  0  0  0  0  0  0  0
   19.8877   20.0945   22.1974 C   0  0  0  0  0  0  0  0  0  0  0  0
   20.4722   20.5815   21.4091 H   0  0  0  0  0  0  0  0  0  0  0  0
   19.7499   20.8058   23.0208 H   0  0  0  0  0  0  0  0  0  0  0  0
   21.0218   17.9266   21.6380 O   0  0  0  0  0  0  0  0  0  0  0  0
   21.8945   18.3412   21.4682 H   0  0  0  0  0  0  0  0  0  0  0  0
  1  2  1  0  0  0  0
  1  3  1  0  0  0  0
  1  4  1  0  0  0  0
  4  5  1  0  0  0  0
  4  6  1  0  0  0  0
  4  7  1  0  0  0  0
  7  8  1  0  0  0  0
  1  9  1  0  0  0  0
  7  9  1  0  0  0  0
  9 10  1  0  0  0  0
  9 11  1  0  0  0  0
  7 12  1  0  0  0  0
 12 13  1  0  0  0  0
M  END
> <VConfSearch Rank>
713

> <Conf_Id>
20

> <Delta U+W>
1.030

> <U+W>
-2.101

> <U>
0.841

> <W>
-2.942

> <W(PB)>
-4.530

> <W(SA)>
1.587

> <Valence>
6.736

> <Coulomb>
-7.246

> <VdW>
1.352

> <VdW6>
-2.500

> <VdW12>
3.851

> <Bond>
0.063

> <Angle>
0.687

> <Pdih>
5.986

> <Idih>
0.000

> <Tether>
0.000

$$$$
VeraChem MOL file


 13 13  0  0  0  0  0  0  0  0999 V2000     
   19.4053   19.9072   21.4271 C   0  0  0  0  0  0  0  0  0  0  0  0
   19.6772   19.8241   20.3665 H   0  0  0  0  0  0  0  0  0  0  0  0
   18.8683   20.8513   21.5778 H   0  0  0  0  0  0  0  0  0  0  0  0
   20.5725   19.6134   22.4264 C   0  0  0  0  0  0  0  0  0  0  0  0
   21.5772   19.8922   22.0898 H   0  0  0  0  0  0  0  0  0  0  0  0
   20.4185   20.0076   23.4385 H   0  0  0  0  0  0  0  0  0  0  0  0
   20.1890   18.1140   22.2423 C   0  0  0  0  0  0  0  0  0  0  0  0
   20.6288   17.6495   21.3493 H   0  0  0  0  0  0  0  0  0  0  0  0
   18.7335   18.6304   22.0320 C   0  0  0  0  0  0  0  0  0  0  0  0
   18.1684   18.8049   22.9559 H   0  0  0  0  0  0  0  0  0  0  0  0
   18.1140   18.0411   21.3470 H   0  0  0  0  0  0  0  0  0  0  0  0
   20.3831   17.2973   23.3724 O   0  0  0  0  0  0  0  0  0  0  0  0
   19.9727   17.7600   24.1328 H   0  0  0  0  0  0  0  0  0  0  0  0
  1  2  1  0  0  0  0
  1  3  1  0  0  0  0
  1  4  1  0  0  0  0
  4  5  1  0  0  0  0
  4  6  1  0  0  0  0
  4  7  1  0  0  0  0
  7  8  1  0  0  0  0
  1  9  1  0  0  0  0
  7  9  1  0  0  0  0
  9 10  1  0  0  0  0
  9 11  1  0  0  0  0
  7 12  1  0  0  0  0
 12 13  1  0  0  0  0
M  END
> <VConfSearch Rank>
714

> <Conf_Id>
24

> <Delta U+W>
0.356

> <U+W>
-2.775

> <U>
-0.184

> <W>
-2.591

> <W(PB)>
-4.184

> <W(SA)>
1.593

> <Valence>
6.840

> <Coulomb>
-7.916

> <VdW>
0.893

> <VdW6>
-2.167

> <VdW12>
3.060

> <Bond>
0.059

> <Angle>
0.918

> <Pdih>
5.862

> <Idih>
0.000

> <Tether>
0.000

$$$$
VeraChem MOL file


 13 13  0  0  0  0  0  0  0  0999 V2000     
   20.6229   19.1492   21.6012 C   0  0  0  0  0  0  0  0  0  0  0  0
   21.3728   18.7032   20.9370 H   0  0  0  0  0  0  0  0  0  0  0  0
   20.8689   20.2098   21.7388 H   0  0  0  0  0  0  0  0  0  0  0  0
   20.3270   18.3650   22.9231 C   0  0  0  0  0  0  0  0  0  0  0  0
   20.4523   17.2783   22.8433 H   0  0  0  0  0  0  0  0  0  0  0  0
   20.8547   18.7114   23.8189 H   0  0  0  0  0  0  0  0  0  0  0  0
   18.8515   18.8484   22.7714 C   0  0  0  0  0  0  0  0  0  0  0  0
   18.0937   18.1242   23.0966 H   0  0  0  0  0  0  0  0  0  0  0  0
   19.1282   18.8619   21.2361 C   0  0  0  0  0  0  0  0  0  0  0  0
   18.9595   17.8970   20.7426 H   0  0  0  0  0  0  0  0  0  0  0  0
   18.6123   19.6407   20.6633 H   0  0  0  0  0  0  0  0  0  0  0  0
   18.5826   20.1139   23.3352 O   0  0  0  0  0  0  0  0  0  0  0  0
   19.2855   20.7149   23.0127 H   0  0  0  0  0  0  0  0  0  0  0  0
  1  2  1  0  0  0  0
  1  3  1  0  0  0  0
  1  4  1  0  0  0  0
  4  5  1  0  0  0  0
  4  6  1  0  0  0  0
  4  7  1  0  0  0  0
  7  8  1  0  0  0  0
  1  9  1  0  0  0  0
  7  9  1  0  0  0  0
  9 10  1  0  0  0  0
  9 11  1  0  0  0  0
  7 12  1  0  0  0  0
 12 13  1  0  0  0  0
M  END
> <VConfSearch Rank>
715

> <Conf_Id>
44

> <Delta U+W>
0.823

> <U+W>
-2.308

> <U>
0.039

> <W>
-2.348

> <W(PB)>
-3.918

> <W(SA)>
1.571

> <Valence>
7.320

> <Coulomb>
-8.530

> <VdW>
1.249

> <VdW6>
-2.615

> <VdW12>
3.864

> <Bond>
0.056

> <Angle>
0.694

> <Pdih>
6.570

> <Idih>
0.000

> <Tether>
0.000

$$$$
VeraChem MOL file


 13 13  0  0  0  0  0  0  0  0999 V2000     
   20.0585   20.0076   23.0592 C   0  0  0  0  0  0  0  0  0  0  0  0
   19.4395   20.0977   23.9616 H   0  0  0  0  0  0  0  0  0  0  0  0
   20.8767   20.7349   23.1215 H   0  0  0  0  0  0  0  0  0  0  0  0
   19.2576   19.9880   21.7155 C   0  0  0  0  0  0  0  0  0  0  0  0
   18.3355   20.5789   21.6934 H   0  0  0  0  0  0  0  0  0  0  0  0
   19.8504   20.2254   20.8234 H   0  0  0  0  0  0  0  0  0  0  0  0
   19.0792   18.4634   21.9851 C   0  0  0  0  0  0  0  0  0  0  0  0
   18.2478   18.2280   22.6637 H   0  0  0  0  0  0  0  0  0  0  0  0
   20.4673   18.5436   22.6892 C   0  0  0  0  0  0  0  0  0  0  0  0
   20.6169   17.8576   23.5302 H   0  0  0  0  0  0  0  0  0  0  0  0
   21.3271   18.4653   22.0122 H   0  0  0  0  0  0  0  0  0  0  0  0
   19.0324   17.6501   20.8358 O   0  0  0  0  0  0  0  0  0  0  0  0
   19.0840   16.7175   21.1374 H   0  0  0  0  0  0  0  0  0  0  0  0
  1  2  1  0  0  0  0
  1  3  1  0  0  0  0
  1  4  1  0  0  0  0
  4  5  1  0  0  0  0
  4  6  1  0  0  0  0
  4  7  1  0  0  0  0
  7  8  1  0  0  0  0
  1  9  1  0  0  0  0
  7  9  1  0  0  0  0
  9 10  1  0  0  0  0
  9 11  1  0  0  0  0
  7 12  1  0  0  0  0
 12 13  1  0  0  0  0
M  END
> <VConfSearch Rank>
716

> <Conf_Id>
22

> <Delta U+W>
0.000

> <U+W>
-3.131

> <U>
-0.154

> <W>
-2.978

> <W(PB)>
-4.579

> <W(SA)>
1.601

> <Valence>
6.333

> <Coulomb>
-7.439

> <VdW>
0.952

> <VdW6>
-2.120

> <VdW12>
3.072

> <Bond>
0.065

> <Angle>
0.931

> <Pdih>
5.338

> <Idih>
0.000

> <Tether>
0.000

$$$$
VeraChem MOL file


 13 13  0  0  0  0  0  0  0  0999 V2000     
   18.8432   18.1787   21.4942 C   0  0  0  0  0  0  0  0  0  0  0  0
   19.1295   17.1187   21.4814 H   0  0  0  0  0  0  0  0  0  0  0  0
   17.9919   18.3198   20.8177 H   0  0  0  0  0  0  0  0  0  0  0  0
   20.0324   19.1801   21.3203 C   0  0  0  0  0  0  0  0  0  0  0  0
   19.7390   20.1898   21.0070 H   0  0  0  0  0  0  0  0  0  0  0  0
   20.8598   18.8410   20.6874 H   0  0  0  0  0  0  0  0  0  0  0  0
   20.2384   19.0129   22.8561 C   0  0  0  0  0  0  0  0  0  0  0  0
   20.8208   18.1235   23.1336 H   0  0  0  0  0  0  0  0  0  0  0  0
   18.6961   18.7996   22.9225 C   0  0  0  0  0  0  0  0  0  0  0  0
   18.1105   19.7264   22.9628 H   0  0  0  0  0  0  0  0  0  0  0  0
   18.3420   18.1245   23.7092 H   0  0  0  0  0  0  0  0  0  0  0  0
   20.7180   20.1545   23.5278 O   0  0  0  0  0  0  0  0  0  0  0  0
   21.6605   20.2648   23.2771 H   0  0  0  0  0  0  0  0  0  0  0  0
  1  2  1  0  0  0  0
  1  3  1  0  0  0  0
  1  4  1  0  0  0  0
  4  5  1  0  0  0  0
  4  6  1  0  0  0  0
  4  7  1  0  0  0  0
  7  8  1  0  0  0  0
  1  9  1  0  0  0  0
  7  9  1  0  0  0  0
  9 10  1  0  0  0  0
  9 11  1  0  0  0  0
  7 12  1  0  0  0  0
 12 13  1  0  0  0  0
M  END
> <VConfSearch Rank>
717

> <Conf_Id>
19

> <Delta U+W>
-0.011

> <U+W>
-3.142

> <U>
-0.154

> <W>
-2.989

> <W(PB)>
-4.588

> <W(SA)>
1.599

> <Valence>
6.334

> <Coulomb>
-7.439

> <VdW>
0.951

> <VdW6>
-2.120

> <VdW12>
3.072

> <Bond>
0.065

> <Angle>
0.930

> <Pdih>
5.339

> <Idih>
0.000

> <Tether>
0.000

$$$$
VeraChem MOL file


 13 13  0  0  0  0  0  0  0  0999 V2000     
   20.0285   19.3562   23.4069 C   0  0  0  0  0  0  0  0  0  0  0  0
   20.8400   19.2436   24.1356 H   0  0  0  0  0  0  0  0  0  0  0  0
   19.2913   20.0633   23.8090 H   0  0  0  0  0  0  0  0  0  0  0  0
   19.4172   18.0291   22.8466 C   0  0  0  0  0  0  0  0  0  0  0  0
   20.1242   17.1929   22.7850 H   0  0  0  0  0  0  0  0  0  0  0  0
   18.5008   17.6781   23.3338 H   0  0  0  0  0  0  0  0  0  0  0  0
   19.2190   18.7989   21.5036 C   0  0  0  0  0  0  0  0  0  0  0  0
   19.3628   18.1897   20.6020 H   0  0  0  0  0  0  0  0  0  0  0  0
   20.4632   19.6390   21.9305 C   0  0  0  0  0  0  0  0  0  0  0  0
   20.4611   20.6903   21.6222 H   0  0  0  0  0  0  0  0  0  0  0  0
   21.4244   19.1933   21.6471 H   0  0  0  0  0  0  0  0  0  0  0  0
   18.0110   19.5268   21.4081 O   0  0  0  0  0  0  0  0  0  0  0  0
   18.0782   20.0985   20.6138 H   0  0  0  0  0  0  0  0  0  0  0  0
  1  2  1  0  0  0  0
  1  3  1  0  0  0  0
  1  4  1  0  0  0  0
  4  5  1  0  0  0  0
  4  6  1  0  0  0  0
  4  7  1  0  0  0  0
  7  8  1  0  0  0  0
  1  9  1  0  0  0  0
  7  9  1  0  0  0  0
  9 10  1  0  0  0  0
  9 11  1  0  0  0  0
  7 12  1  0  0  0  0
 12 13  1  0  0  0  0
M  END
> <VConfSearch Rank>
718

> <Conf_Id>
20

> <Delta U+W>
1.030

> <U+W>
-2.101

> <U>
0.841

> <W>
-2.942

> <W(PB)>
-4.530

> <W(SA)>
1.587

> <Valence>
6.736

> <Coulomb>
-7.246

> <VdW>
1.352

> <VdW6>
-2.500

> <VdW12>
3.851

> <Bond>
0.063

> <Angle>
0.687

> <Pdih>
5.986

> <Idih>
0.000

> <Tether>
0.000

$$$$
VeraChem MOL file


 13 13  0  0  0  0  0  0  0  0999 V2000     
   20.7700   18.5916   21.5301 C   0  0  0  0  0  0  0  0  0  0  0  0
   21.7376   19.0525   21.7689 H   0  0  0  0  0  0  0  0  0  0  0  0
   20.9143   17.8808   20.7077 H   0  0  0  0  0  0  0  0  0  0  0  0
   19.5871   19.6022   21.3655 C   0  0  0  0  0  0  0  0  0  0  0  0
   19.8464   20.5857   20.9585 H   0  0  0  0  0  0  0  0  0  0  0  0
   18.7235   19.2098   20.8144 H   0  0  0  0  0  0  0  0  0  0  0  0
   19.4649   19.5227   22.9172 C   0  0  0  0  0  0  0  0  0  0  0  0
   20.1603   20.1839   23.4519 H   0  0  0  0  0  0  0  0  0  0  0  0
   19.9765   18.0581   22.7683 C   0  0  0  0  0  0  0  0  0  0  0  0
   19.1999   17.3206   22.5308 H   0  0  0  0  0  0  0  0  0  0  0  0
   20.5796   17.6779   23.6002 H   0  0  0  0  0  0  0  0  0  0  0  0
   18.1602   19.6582   23.4284 O   0  0  0  0  0  0  0  0  0  0  0  0
   17.5884   19.0488   22.9163 H   0  0  0  0  0  0  0  0  0  0  0  0
  1  2  1  0  0  0  0
  1  3  1  0  0  0  0
  1  4  1  0  0  0  0
  4  5  1  0  0  0  0
  4  6  1  0  0  0  0
  4  7  1  0  0  0  0
  7  8  1  0  0  0  0
  1  9  1  0  0  0  0
  7  9  1  0  0  0  0
  9 10  1  0  0  0  0
  9 11  1  0  0  0  0
  7 12  1  0  0  0  0
 12 13  1  0  0  0  0
M  END
> <VConfSearch Rank>
719

> <Conf_Id>
24

> <Delta U+W>
0.356

> <U+W>
-2.775

> <U>
-0.184

> <W>
-2.591

> <W(PB)>
-4.184

> <W(SA)>
1.593

> <Valence>
6.840

> <Coulomb>
-7.916

> <VdW>
0.893

> <VdW6>
-2.167

> <VdW12>
3.060

> <Bond>
0.059

> <Angle>
0.918

> <Pdih>
5.862

> <Idih>
0.000

> <Tether>
0.000

$$$$
VeraChem MOL file


 13 13  0  0  0  0  0  0  0  0999 V2000     
   19.6331   18.4125   23.1844 C   0  0  0  0  0  0  0  0  0  0  0  0
   20.0482   17.5998   23.7923 H   0  0  0  0  0  0  0  0  0  0  0  0
   18.8209   18.8877   23.7491 H   0  0  0  0  0  0  0  0  0  0  0  0
   19.2798   18.0477   21.7038 C   0  0  0  0  0  0  0  0  0  0  0  0
   19.9131   17.2665   21.2659 H   0  0  0  0  0  0  0  0  0  0  0  0
   18.2315   17.7985   21.5044 H   0  0  0  0  0  0  0  0  0  0  0  0
   19.7167   19.5002   21.3383 C   0  0  0  0  0  0  0  0  0  0  0  0
   20.2204   19.5995   20.3683 H   0  0  0  0  0  0  0  0  0  0  0  0
   20.6739   19.4051   22.5666 C   0  0  0  0  0  0  0  0  0  0  0  0
   21.6489   18.9567   22.3403 H   0  0  0  0  0  0  0  0  0  0  0  0
   20.8390   20.3373   23.1183 H   0  0  0  0  0  0  0  0  0  0  0  0
   18.6991   20.4710   21.4550 O   0  0  0  0  0  0  0  0  0  0  0  0
   18.2874   20.3355   22.3334 H   0  0  0  0  0  0  0  0  0  0  0  0
  1  2  1  0  0  0  0
  1  3  1  0  0  0  0
  1  4  1  0  0  0  0
  4  5  1  0  0  0  0
  4  6  1  0  0  0  0
  4  7  1  0  0  0  0
  7  8  1  0  0  0  0
  1  9  1  0  0  0  0
  7  9  1  0  0  0  0
  9 10  1  0  0  0  0
  9 11  1  0  0  0  0
  7 12  1  0  0  0  0
 12 13  1  0  0  0  0
M  END
> <VConfSearch Rank>
720

> <Conf_Id>
44

> <Delta U+W>
0.823

> <U+W>
-2.308

> <U>
0.039

> <W>
-2.348

> <W(PB)>
-3.918

> <W(SA)>
1.571

> <Valence>
7.320

> <Coulomb>
-8.530

> <VdW>
1.249

> <VdW6>
-2.615

> <VdW12>
3.864

> <Bond>
0.056

> <Angle>
0.694

> <Pdih>
6.570

> <Idih>
0.000

> <Tether>
0.000

$$$$
VeraChem MOL file


 13 13  0  0  0  0  0  0  0  0999 V2000     
   20.8010   18.5594   21.7772 C   0  0  0  0  0  0  0  0  0  0  0  0
   20.6665   17.8892   20.9180 H   0  0  0  0  0  0  0  0  0  0  0  0
   21.8748   18.6746   21.9671 H   0  0  0  0  0  0  0  0  0  0  0  0
   19.9166   18.2147   23.0207 C   0  0  0  0  0  0  0  0  0  0  0  0
   19.6987   17.1530   23.1799 H   0  0  0  0  0  0  0  0  0  0  0  0
   20.2635   18.6494   23.9664 H   0  0  0  0  0  0  0  0  0  0  0  0
   18.8024   19.0350   22.3034 C   0  0  0  0  0  0  0  0  0  0  0  0
   18.2434   18.4603   21.5523 H   0  0  0  0  0  0  0  0  0  0  0  0
   19.9690   19.8826   21.7119 C   0  0  0  0  0  0  0  0  0  0  0  0
   19.7995   20.2968   20.7119 H   0  0  0  0  0  0  0  0  0  0  0  0
   20.3296   20.6834   22.3695 H   0  0  0  0  0  0  0  0  0  0  0  0
   17.9236   19.7314   23.1563 O   0  0  0  0  0  0  0  0  0  0  0  0
   17.3843   20.3279   22.5937 H   0  0  0  0  0  0  0  0  0  0  0  0
  1  2  1  0  0  0  0
  1  3  1  0  0  0  0
  1  4  1  0  0  0  0
  4  5  1  0  0  0  0
  4  6  1  0  0  0  0
  4  7  1  0  0  0  0
  7  8  1  0  0  0  0
  1  9  1  0  0  0  0
  7  9  1  0  0  0  0
  9 10  1  0  0  0  0
  9 11  1  0  0  0  0
  7 12  1  0  0  0  0
 12 13  1  0  0  0  0
M  END
> <VConfSearch Rank>
721

> <Conf_Id>
22

> <Delta U+W>
0.000

> <U+W>
-3.131

> <U>
-0.154

> <W>
-2.978

> <W(PB)>
-4.579

> <W(SA)>
1.601

> <Valence>
6.333

> <Coulomb>
-7.439

> <VdW>
0.952

> <VdW6>
-2.120

> <VdW12>
3.072

> <Bond>
0.065

> <Angle>
0.931

> <Pdih>
5.338

> <Idih>
0.000

> <Tether>
0.000

$$$$
VeraChem MOL file


 13 13  0  0  0  0  0  0  0  0999 V2000     
   20.7898   19.1480   22.8335 C   0  0  0  0  0  0  0  0  0  0  0  0
   21.4161   19.8766   22.3020 H   0  0  0  0  0  0  0  0  0  0  0  0
   21.3496   18.7684   23.6966 H   0  0  0  0  0  0  0  0  0  0  0  0
   20.1219   18.0686   21.9191 C   0  0  0  0  0  0  0  0  0  0  0  0
   19.7784   17.1701   22.4469 H   0  0  0  0  0  0  0  0  0  0  0  0
   20.6949   17.7622   21.0371 H   0  0  0  0  0  0  0  0  0  0  0  0
   19.0149   19.1378   21.6730 C   0  0  0  0  0  0  0  0  0  0  0  0
   19.2675   19.8699   20.8937 H   0  0  0  0  0  0  0  0  0  0  0  0
   19.3282   19.6266   23.1193 C   0  0  0  0  0  0  0  0  0  0  0  0
   18.8085   19.0706   23.9094 H   0  0  0  0  0  0  0  0  0  0  0  0
   19.1968   20.6993   23.2984 H   0  0  0  0  0  0  0  0  0  0  0  0
   17.7165   18.6273   21.4778 O   0  0  0  0  0  0  0  0  0  0  0  0
   17.6990   18.2090   20.5901 H   0  0  0  0  0  0  0  0  0  0  0  0
  1  2  1  0  0  0  0
  1  3  1  0  0  0  0
  1  4  1  0  0  0  0
  4  5  1  0  0  0  0
  4  6  1  0  0  0  0
  4  7  1  0  0  0  0
  7  8  1  0  0  0  0
  1  9  1  0  0  0  0
  7  9  1  0  0  0  0
  9 10  1  0  0  0  0
  9 11  1  0  0  0  0
  7 12  1  0  0  0  0
 12 13  1  0  0  0  0
M  END
> <VConfSearch Rank>
722

> <Conf_Id>
19

> <Delta U+W>
-0.011

> <U+W>
-3.142

> <U>
-0.154

> <W>
-2.989

> <W(PB)>
-4.588

> <W(SA)>
1.599

> <Valence>
6.334

> <Coulomb>
-7.439

> <VdW>
0.951

> <VdW6>
-2.120

> <VdW12>
3.072

> <Bond>
0.065

> <Angle>
0.930

> <Pdih>
5.339

> <Idih>
0.000

> <Tether>
0.000

$$$$
VeraChem MOL file


 13 13  0  0  0  0  0  0  0  0999 V2000     
   20.2299   19.0932   21.2037 C   0  0  0  0  0  0  0  0  0  0  0  0
   20.1535   19.3531   20.1414 H   0  0  0  0  0  0  0  0  0  0  0  0
   21.2654   18.7991   21.4196 H   0  0  0  0  0  0  0  0  0  0  0  0
   19.1467   18.1049   21.7505 C   0  0  0  0  0  0  0  0  0  0  0  0
   18.1726   18.1762   21.2516 H   0  0  0  0  0  0  0  0  0  0  0  0
   19.4388   17.0501   21.7999 H   0  0  0  0  0  0  0  0  0  0  0  0
   19.2375   18.8972   23.0919 C   0  0  0  0  0  0  0  0  0  0  0  0
   18.2855   18.9974   23.6290 H   0  0  0  0  0  0  0  0  0  0  0  0
   19.6238   20.1262   22.2108 C   0  0  0  0  0  0  0  0  0  0  0  0
   20.3313   20.8336   22.6574 H   0  0  0  0  0  0  0  0  0  0  0  0
   18.7653   20.6880   21.8230 H   0  0  0  0  0  0  0  0  0  0  0  0
   20.2477   18.4554   23.9764 O   0  0  0  0  0  0  0  0  0  0  0  0
   20.3237   19.1253   24.6889 H   0  0  0  0  0  0  0  0  0  0  0  0
  1  2  1  0  0  0  0
  1  3  1  0  0  0  0
  1  4  1  0  0  0  0
  4  5  1  0  0  0  0
  4  6  1  0  0  0  0
  4  7  1  0  0  0  0
  7  8  1  0  0  0  0
  1  9  1  0  0  0  0
  7  9  1  0  0  0  0
  9 10  1  0  0  0  0
  9 11  1  0  0  0  0
  7 12  1  0  0  0  0
 12 13  1  0  0  0  0
M  END
> <VConfSearch Rank>
723

> <Conf_Id>
20

> <Delta U+W>
1.030

> <U+W>
-2.101

> <U>
0.841

> <W>
-2.942

> <W(PB)>
-4.530

> <W(SA)>
1.587

> <Valence>
6.736

> <Coulomb>
-7.246

> <VdW>
1.352

> <VdW6>
-2.500

> <VdW12>
3.851

> <Bond>
0.063

> <Angle>
0.687

> <Pdih>
5.986

> <Idih>
0.000

> <Tether>
0.000

$$$$
VeraChem MOL file


 13 13  0  0  0  0  0  0  0  0999 V2000     
   19.3916   20.1526   21.9322 C   0  0  0  0  0  0  0  0  0  0  0  0
   20.1767   20.8757   21.6745 H   0  0  0  0  0  0  0  0  0  0  0  0
   18.4204   20.6596   21.8870 H   0  0  0  0  0  0  0  0  0  0  0  0
   19.6711   19.3168   23.2248 C   0  0  0  0  0  0  0  0  0  0  0  0
   20.2359   19.8245   24.0145 H   0  0  0  0  0  0  0  0  0  0  0  0
   18.7826   18.8527   23.6705 H   0  0  0  0  0  0  0  0  0  0  0  0
   20.5006   18.3823   22.2934 C   0  0  0  0  0  0  0  0  0  0  0  0
   21.5255   18.7331   22.1110 H   0  0  0  0  0  0  0  0  0  0  0  0
   19.4889   18.7852   21.1784 C   0  0  0  0  0  0  0  0  0  0  0  0
   18.5597   18.2022   21.1666 H   0  0  0  0  0  0  0  0  0  0  0  0
   19.8928   18.8234   20.1607 H   0  0  0  0  0  0  0  0  0  0  0  0
   20.4988   17.0198   22.6475 O   0  0  0  0  0  0  0  0  0  0  0  0
   19.5642   16.7650   22.7968 H   0  0  0  0  0  0  0  0  0  0  0  0
  1  2  1  0  0  0  0
  1  3  1  0  0  0  0
  1  4  1  0  0  0  0
  4  5  1  0  0  0  0
  4  6  1  0  0  0  0
  4  7  1  0  0  0  0
  7  8  1  0  0  0  0
  1  9  1  0  0  0  0
  7  9  1  0  0  0  0
  9 10  1  0  0  0  0
  9 11  1  0  0  0  0
  7 12  1  0  0  0  0
 12 13  1  0  0  0  0
M  END
> <VConfSearch Rank>
724

> <Conf_Id>
24

> <Delta U+W>
0.356

> <U+W>
-2.775

> <U>
-0.184

> <W>
-2.591

> <W(PB)>
-4.184

> <W(SA)>
1.593

> <Valence>
6.840

> <Coulomb>
-7.916

> <VdW>
0.893

> <VdW6>
-2.167

> <VdW12>
3.060

> <Bond>
0.059

> <Angle>
0.918

> <Pdih>
5.862

> <Idih>
0.000

> <Tether>
0.000

$$$$
VeraChem MOL file


 13 13  0  0  0  0  0  0  0  0999 V2000     
   20.6773   18.5334   21.8829 C   0  0  0  0  0  0  0  0  0  0  0  0
   21.7644   18.5372   22.0263 H   0  0  0  0  0  0  0  0  0  0  0  0
   20.4337   17.8058   21.0984 H   0  0  0  0  0  0  0  0  0  0  0  0
   20.0050   19.9365   21.7113 C   0  0  0  0  0  0  0  0  0  0  0  0
   20.5132   20.7507   22.2423 H   0  0  0  0  0  0  0  0  0  0  0  0
   19.8143   20.2583   20.6813 H   0  0  0  0  0  0  0  0  0  0  0  0
   18.7826   19.3426   22.4775 C   0  0  0  0  0  0  0  0  0  0  0  0
   18.2683   20.0484   23.1421 H   0  0  0  0  0  0  0  0  0  0  0  0
   19.8160   18.4117   23.1843 C   0  0  0  0  0  0  0  0  0  0  0  0
   20.2779   18.8520   24.0764 H   0  0  0  0  0  0  0  0  0  0  0  0
   19.4608   17.4063   23.4364 H   0  0  0  0  0  0  0  0  0  0  0  0
   17.8430   18.6735   21.6643 O   0  0  0  0  0  0  0  0  0  0  0  0
   18.3553   18.0616   21.0965 H   0  0  0  0  0  0  0  0  0  0  0  0
  1  2  1  0  0  0  0
  1  3  1  0  0  0  0
  1  4  1  0  0  0  0
  4  5  1  0  0  0  0
  4  6  1  0  0  0  0
  4  7  1  0  0  0  0
  7  8  1  0  0  0  0
  1  9  1  0  0  0  0
  7  9  1  0  0  0  0
  9 10  1  0  0  0  0
  9 11  1  0  0  0  0
  7 12  1  0  0  0  0
 12 13  1  0  0  0  0
M  END
> <VConfSearch Rank>
725

> <Conf_Id>
44

> <Delta U+W>
0.823

> <U+W>
-2.308

> <U>
0.039

> <W>
-2.348

> <W(PB)>
-3.918

> <W(SA)>
1.571

> <Valence>
7.320

> <Coulomb>
-8.530

> <VdW>
1.249

> <VdW6>
-2.615

> <VdW12>
3.864

> <Bond>
0.056

> <Angle>
0.694

> <Pdih>
6.570

> <Idih>
0.000

> <Tether>
0.000

$$$$
VeraChem MOL file


 13 13  0  0  0  0  0  0  0  0999 V2000     
   20.6488   19.9246   22.2336 C   0  0  0  0  0  0  0  0  0  0  0  0
   21.0954   20.0645   21.2403 H   0  0  0  0  0  0  0  0  0  0  0  0
   21.1302   20.6167   22.9348 H   0  0  0  0  0  0  0  0  0  0  0  0
   20.5451   18.4351   22.7006 C   0  0  0  0  0  0  0  0  0  0  0  0
   21.3380   17.7633   22.3543 H   0  0  0  0  0  0  0  0  0  0  0  0
   20.4153   18.3002   23.7815 H   0  0  0  0  0  0  0  0  0  0  0  0
   19.2197   18.3978   21.8816 C   0  0  0  0  0  0  0  0  0  0  0  0
   19.3672   18.2133   20.8086 H   0  0  0  0  0  0  0  0  0  0  0  0
   19.0847   19.9059   22.2514 C   0  0  0  0  0  0  0  0  0  0  0  0
   18.5863   20.5375   21.5078 H   0  0  0  0  0  0  0  0  0  0  0  0
   18.6354   20.0957   23.2342 H   0  0  0  0  0  0  0  0  0  0  0  0
   18.2148   17.5577   22.4002 O   0  0  0  0  0  0  0  0  0  0  0  0
   17.3919   17.7456   21.8994 H   0  0  0  0  0  0  0  0  0  0  0  0
  1  2  1  0  0  0  0
  1  3  1  0  0  0  0
  1  4  1  0  0  0  0
  4  5  1  0  0  0  0
  4  6  1  0  0  0  0
  4  7  1  0  0  0  0
  7  8  1  0  0  0  0
  1  9  1  0  0  0  0
  7  9  1  0  0  0  0
  9 10  1  0  0  0  0
  9 11  1  0  0  0  0
  7 12  1  0  0  0  0
 12 13  1  0  0  0  0
M  END
> <VConfSearch Rank>
726

> <Conf_Id>
22

> <Delta U+W>
0.000

> <U+W>
-3.131

> <U>
-0.154

> <W>
-2.978

> <W(PB)>
-4.579

> <W(SA)>
1.601

> <Valence>
6.333

> <Coulomb>
-7.439

> <VdW>
0.952

> <VdW6>
-2.120

> <VdW12>
3.072

> <Bond>
0.065

> <Angle>
0.931

> <Pdih>
5.338

> <Idih>
0.000

> <Tether>
0.000

$$$$
VeraChem MOL file


 13 13  0  0  0  0  0  0  0  0999 V2000     
   18.7215   19.6587   22.8622 C   0  0  0  0  0  0  0  0  0  0  0  0
   17.7104   19.2334   22.8138 H   0  0  0  0  0  0  0  0  0  0  0  0
   18.6714   20.6234   23.3811 H   0  0  0  0  0  0  0  0  0  0  0  0
   19.5020   19.6475   21.5065 C   0  0  0  0  0  0  0  0  0  0  0  0
   20.3493   20.3430   21.4599 H   0  0  0  0  0  0  0  0  0  0  0  0
   18.8973   19.7672   20.6009 H   0  0  0  0  0  0  0  0  0  0  0  0
   19.8857   18.1836   21.8793 C   0  0  0  0  0  0  0  0  0  0  0  0
   19.1162   17.4422   21.6241 H   0  0  0  0  0  0  0  0  0  0  0  0
   19.8252   18.6677   23.3594 C   0  0  0  0  0  0  0  0  0  0  0  0
   20.7446   19.1463   23.7190 H   0  0  0  0  0  0  0  0  0  0  0  0
   19.5077   17.9187   24.0929 H   0  0  0  0  0  0  0  0  0  0  0  0
   21.1542   17.7612   21.4352 O   0  0  0  0  0  0  0  0  0  0  0  0
   21.0967   17.6415   20.4628 H   0  0  0  0  0  0  0  0  0  0  0  0
  1  2  1  0  0  0  0
  1  3  1  0  0  0  0
  1  4  1  0  0  0  0
  4  5  1  0  0  0  0
  4  6  1  0  0  0  0
  4  7  1  0  0  0  0
  7  8  1  0  0  0  0
  1  9  1  0  0  0  0
  7  9  1  0  0  0  0
  9 10  1  0  0  0  0
  9 11  1  0  0  0  0
  7 12  1  0  0  0  0
 12 13  1  0  0  0  0
M  END
> <VConfSearch Rank>
727

> <Conf_Id>
19

> <Delta U+W>
-0.011

> <U+W>
-3.142

> <U>
-0.154

> <W>
-2.989

> <W(PB)>
-4.588

> <W(SA)>
1.599

> <Valence>
6.334

> <Coulomb>
-7.439

> <VdW>
0.951

> <VdW6>
-2.120

> <VdW12>
3.072

> <Bond>
0.065

> <Angle>
0.930

> <Pdih>
5.339

> <Idih>
0.000

> <Tether>
0.000

$$$$
VeraChem MOL file


 13 13  0  0  0  0  0  0  0  0999 V2000     
   19.9833   20.1815   22.6307 C   0  0  0  0  0  0  0  0  0  0  0  0
   20.4789   21.1076   22.3166 H   0  0  0  0  0  0  0  0  0  0  0  0
   19.5889   20.3212   23.6456 H   0  0  0  0  0  0  0  0  0  0  0  0
   20.7980   18.8612   22.4264 C   0  0  0  0  0  0  0  0  0  0  0  0
   21.4827   18.8769   21.5699 H   0  0  0  0  0  0  0  0  0  0  0  0
   21.3414   18.4906   23.3027 H   0  0  0  0  0  0  0  0  0  0  0  0
   19.4278   18.1724   22.1372 C   0  0  0  0  0  0  0  0  0  0  0  0
   19.4644   17.3847   21.3737 H   0  0  0  0  0  0  0  0  0  0  0  0
   18.9630   19.5680   21.6151 C   0  0  0  0  0  0  0  0  0  0  0  0
   17.9093   19.8167   21.7833 H   0  0  0  0  0  0  0  0  0  0  0  0
   19.2028   19.7557   20.5615 H   0  0  0  0  0  0  0  0  0  0  0  0
   18.7436   17.7049   23.2824 O   0  0  0  0  0  0  0  0  0  0  0  0
   17.8375   17.4583   22.9991 H   0  0  0  0  0  0  0  0  0  0  0  0
  1  2  1  0  0  0  0
  1  3  1  0  0  0  0
  1  4  1  0  0  0  0
  4  5  1  0  0  0  0
  4  6  1  0  0  0  0
  4  7  1  0  0  0  0
  7  8  1  0  0  0  0
  1  9  1  0  0  0  0
  7  9  1  0  0  0  0
  9 10  1  0  0  0  0
  9 11  1  0  0  0  0
  7 12  1  0  0  0  0
 12 13  1  0  0  0  0
M  END
> <VConfSearch Rank>
728

> <Conf_Id>
20

> <Delta U+W>
1.030

> <U+W>
-2.101

> <U>
0.841

> <W>
-2.942

> <W(PB)>
-4.530

> <W(SA)>
1.587

> <Valence>
6.736

> <Coulomb>
-7.246

> <VdW>
1.352

> <VdW6>
-2.500

> <VdW12>
3.851

> <Bond>
0.063

> <Angle>
0.687

> <Pdih>
5.986

> <Idih>
0.000

> <Tether>
0.000

$$$$
VeraChem MOL file


 13 13  0  0  0  0  0  0  0  0999 V2000     
   19.3738   19.6534   23.2189 C   0  0  0  0  0  0  0  0  0  0  0  0
   19.4342   19.1961   24.2153 H   0  0  0  0  0  0  0  0  0  0  0  0
   18.9818   20.6720   23.3244 H   0  0  0  0  0  0  0  0  0  0  0  0
   18.6883   18.7625   22.1309 C   0  0  0  0  0  0  0  0  0  0  0  0
   17.8916   18.0983   22.4836 H   0  0  0  0  0  0  0  0  0  0  0  0
   18.3264   19.3106   21.2523 H   0  0  0  0  0  0  0  0  0  0  0  0
   20.0913   18.1054   21.9607 C   0  0  0  0  0  0  0  0  0  0  0  0
   20.3044   17.3168   22.6951 H   0  0  0  0  0  0  0  0  0  0  0  0
   20.6658   19.5009   22.3500 C   0  0  0  0  0  0  0  0  0  0  0  0
   20.7459   20.2141   21.5203 H   0  0  0  0  0  0  0  0  0  0  0  0
   21.6155   19.4889   22.8961 H   0  0  0  0  0  0  0  0  0  0  0  0
   20.3993   17.6667   20.6590 O   0  0  0  0  0  0  0  0  0  0  0  0
   20.1902   18.4069   20.0515 H   0  0  0  0  0  0  0  0  0  0  0  0
  1  2  1  0  0  0  0
  1  3  1  0  0  0  0
  1  4  1  0  0  0  0
  4  5  1  0  0  0  0
  4  6  1  0  0  0  0
  4  7  1  0  0  0  0
  7  8  1  0  0  0  0
  1  9  1  0  0  0  0
  7  9  1  0  0  0  0
  9 10  1  0  0  0  0
  9 11  1  0  0  0  0
  7 12  1  0  0  0  0
 12 13  1  0  0  0  0
M  END
> <VConfSearch Rank>
729

> <Conf_Id>
24

> <Delta U+W>
0.356

> <U+W>
-2.775

> <U>
-0.184

> <W>
-2.591

> <W(PB)>
-4.184

> <W(SA)>
1.593

> <Valence>
6.840

> <Coulomb>
-7.916

> <VdW>
0.893

> <VdW6>
-2.167

> <VdW12>
3.060

> <Bond>
0.059

> <Angle>
0.918

> <Pdih>
5.862

> <Idih>
0.000

> <Tether>
0.000

$$$$
VeraChem MOL file


 13 13  0  0  0  0  0  0  0  0999 V2000     
   19.2728   18.2311   22.9457 C   0  0  0  0  0  0  0  0  0  0  0  0
   18.4280   17.9797   23.5979 H   0  0  0  0  0  0  0  0  0  0  0  0
   20.0304   17.4428   23.0406 H   0  0  0  0  0  0  0  0  0  0  0  0
   19.8228   19.6912   23.0707 C   0  0  0  0  0  0  0  0  0  0  0  0
   19.0689   20.4373   23.3499 H   0  0  0  0  0  0  0  0  0  0  0  0
   20.6993   19.8240   23.7148 H   0  0  0  0  0  0  0  0  0  0  0  0
   20.1077   19.6171   21.5385 C   0  0  0  0  0  0  0  0  0  0  0  0
   19.9543   20.5583   20.9953 H   0  0  0  0  0  0  0  0  0  0  0  0
   18.9088   18.6208   21.4741 C   0  0  0  0  0  0  0  0  0  0  0  0
   17.9308   19.1044   21.3619 H   0  0  0  0  0  0  0  0  0  0  0  0
   18.9897   17.8218   20.7285 H   0  0  0  0  0  0  0  0  0  0  0  0
   21.3584   19.0606   21.1956 O   0  0  0  0  0  0  0  0  0  0  0  0
   21.4401   18.2289   21.7065 H   0  0  0  0  0  0  0  0  0  0  0  0
  1  2  1  0  0  0  0
  1  3  1  0  0  0  0
  1  4  1  0  0  0  0
  4  5  1  0  0  0  0
  4  6  1  0  0  0  0
  4  7  1  0  0  0  0
  7  8  1  0  0  0  0
  1  9  1  0  0  0  0
  7  9  1  0  0  0  0
  9 10  1  0  0  0  0
  9 11  1  0  0  0  0
  7 12  1  0  0  0  0
 12 13  1  0  0  0  0
M  END
> <VConfSearch Rank>
730

> <Conf_Id>
44

> <Delta U+W>
0.823

> <U+W>
-2.308

> <U>
0.039

> <W>
-2.348

> <W(PB)>
-3.918

> <W(SA)>
1.571

> <Valence>
7.320

> <Coulomb>
-8.530

> <VdW>
1.249

> <VdW6>
-2.615

> <VdW12>
3.864

> <Bond>
0.056

> <Angle>
0.694

> <Pdih>
6.570

> <Idih>
0.000

> <Tether>
0.000

$$$$
VeraChem MOL file


 13 13  0  0  0  0  0  0  0  0999 V2000     
   20.8002   18.6560   21.6936 C   0  0  0  0  0  0  0  0  0  0  0  0
   21.0633   17.6140   21.9186 H   0  0  0  0  0  0  0  0  0  0  0  0
   21.5533   19.0680   21.0113 H   0  0  0  0  0  0  0  0  0  0  0  0
   20.4562   19.5291   22.9453 C   0  0  0  0  0  0  0  0  0  0  0  0
   20.9932   19.2842   23.8681 H   0  0  0  0  0  0  0  0  0  0  0  0
   20.5137   20.6121   22.7803 H   0  0  0  0  0  0  0  0  0  0  0  0
   19.0225   18.9317   22.8166 C   0  0  0  0  0  0  0  0  0  0  0  0
   18.9113   17.9430   23.2827 H   0  0  0  0  0  0  0  0  0  0  0  0
   19.3069   18.8806   21.2851 C   0  0  0  0  0  0  0  0  0  0  0  0
   18.8284   18.0615   20.7372 H   0  0  0  0  0  0  0  0  0  0  0  0
   19.1137   19.8211   20.7540 H   0  0  0  0  0  0  0  0  0  0  0  0
   17.9754   19.7894   23.2070 O   0  0  0  0  0  0  0  0  0  0  0  0
   17.1345   19.3671   22.9284 H   0  0  0  0  0  0  0  0  0  0  0  0
  1  2  1  0  0  0  0
  1  3  1  0  0  0  0
  1  4  1  0  0  0  0
  4  5  1  0  0  0  0
  4  6  1  0  0  0  0
  4  7  1  0  0  0  0
  7  8  1  0  0  0  0
  1  9  1  0  0  0  0
  7  9  1  0  0  0  0
  9 10  1  0  0  0  0
  9 11  1  0  0  0  0
  7 12  1  0  0  0  0
 12 13  1  0  0  0  0
M  END
> <VConfSearch Rank>
731

> <Conf_Id>
22

> <Delta U+W>
0.000

> <U+W>
-3.131

> <U>
-0.154

> <W>
-2.978

> <W(PB)>
-4.579

> <W(SA)>
1.601

> <Valence>
6.333

> <Coulomb>
-7.439

> <VdW>
0.952

> <VdW6>
-2.120

> <VdW12>
3.072

> <Bond>
0.065

> <Angle>
0.931

> <Pdih>
5.338

> <Idih>
0.000

> <Tether>
0.000

$$$$
VeraChem MOL file


 13 13  0  0  0  0  0  0  0  0999 V2000     
   19.1610   19.6636   23.2346 C   0  0  0  0  0  0  0  0  0  0  0  0
   18.4789   19.1192   23.9008 H   0  0  0  0  0  0  0  0  0  0  0  0
   19.2160   20.7073   23.5663 H   0  0  0  0  0  0  0  0  0  0  0  0
   18.9018   19.4407   21.7080 C   0  0  0  0  0  0  0  0  0  0  0  0
   19.3381   20.2050   21.0528 H   0  0  0  0  0  0  0  0  0  0  0  0
   17.8588   19.2783   21.4147 H   0  0  0  0  0  0  0  0  0  0  0  0
   19.7697   18.1566   21.8723 C   0  0  0  0  0  0  0  0  0  0  0  0
   19.2144   17.2890   22.2546 H   0  0  0  0  0  0  0  0  0  0  0  0
   20.5299   18.9519   22.9761 C   0  0  0  0  0  0  0  0  0  0  0  0
   21.3246   19.6071   22.5982 H   0  0  0  0  0  0  0  0  0  0  0  0
   20.9288   18.3554   23.8037 H   0  0  0  0  0  0  0  0  0  0  0  0
   20.5397   17.8015   20.7474 O   0  0  0  0  0  0  0  0  0  0  0  0
   19.9203   17.4589   20.0675 H   0  0  0  0  0  0  0  0  0  0  0  0
  1  2  1  0  0  0  0
  1  3  1  0  0  0  0
  1  4  1  0  0  0  0
  4  5  1  0  0  0  0
  4  6  1  0  0  0  0
  4  7  1  0  0  0  0
  7  8  1  0  0  0  0
  1  9  1  0  0  0  0
  7  9  1  0  0  0  0
  9 10  1  0  0  0  0
  9 11  1  0  0  0  0
  7 12  1  0  0  0  0
 12 13  1  0  0  0  0
M  END
> <VConfSearch Rank>
732

> <Conf_Id>
19

> <Delta U+W>
-0.011

> <U+W>
-3.142

> <U>
-0.154

> <W>
-2.989

> <W(PB)>
-4.588

> <W(SA)>
1.599

> <Valence>
6.334

> <Coulomb>
-7.439

> <VdW>
0.951

> <VdW6>
-2.120

> <VdW12>
3.072

> <Bond>
0.065

> <Angle>
0.930

> <Pdih>
5.339

> <Idih>
0.000

> <Tether>
0.000

$$$$
VeraChem MOL file


 13 13  0  0  0  0  0  0  0  0999 V2000     
   18.6137   19.7465   22.2774 C   0  0  0  0  0  0  0  0  0  0  0  0
   17.8432   20.2106   21.6506 H   0  0  0  0  0  0  0  0  0  0  0  0
   18.3561   19.9130   23.3315 H   0  0  0  0  0  0  0  0  0  0  0  0
   20.0966   20.0855   21.9099 C   0  0  0  0  0  0  0  0  0  0  0  0
   20.2693   20.2742   20.8434 H   0  0  0  0  0  0  0  0  0  0  0  0
   20.5638   20.8902   22.4883 H   0  0  0  0  0  0  0  0  0  0  0  0
   20.4419   18.6337   22.3665 C   0  0  0  0  0  0  0  0  0  0  0  0
   21.2353   18.1479   21.7840 H   0  0  0  0  0  0  0  0  0  0  0  0
   18.9899   18.2689   21.9254 C   0  0  0  0  0  0  0  0  0  0  0  0
   18.4900   17.4924   22.5149 H   0  0  0  0  0  0  0  0  0  0  0  0
   18.8937   18.0171   20.8622 H   0  0  0  0  0  0  0  0  0  0  0  0
   20.7000   18.4906   23.7489 O   0  0  0  0  0  0  0  0  0  0  0  0
   20.7282   17.5291   23.9412 H   0  0  0  0  0  0  0  0  0  0  0  0
  1  2  1  0  0  0  0
  1  3  1  0  0  0  0
  1  4  1  0  0  0  0
  4  5  1  0  0  0  0
  4  6  1  0  0  0  0
  4  7  1  0  0  0  0
  7  8  1  0  0  0  0
  1  9  1  0  0  0  0
  7  9  1  0  0  0  0
  9 10  1  0  0  0  0
  9 11  1  0  0  0  0
  7 12  1  0  0  0  0
 12 13  1  0  0  0  0
M  END
> <VConfSearch Rank>
733

> <Conf_Id>
20

> <Delta U+W>
1.030

> <U+W>
-2.101

> <U>
0.841

> <W>
-2.942

> <W(PB)>
-4.530

> <W(SA)>
1.587

> <Valence>
6.736

> <Coulomb>
-7.246

> <VdW>
1.352

> <VdW6>
-2.500

> <VdW12>
3.851

> <Bond>
0.063

> <Angle>
0.687

> <Pdih>
5.986

> <Idih>
0.000

> <Tether>
0.000

$$$$
VeraChem MOL file


 13 13  0  0  0  0  0  0  0  0999 V2000     
   19.1360   19.5517   23.1669 C   0  0  0  0  0  0  0  0  0  0  0  0
   19.2667   20.6378   23.2616 H   0  0  0  0  0  0  0  0  0  0  0  0
   18.4677   19.2087   23.9658 H   0  0  0  0  0  0  0  0  0  0  0  0
   20.4652   18.7460   22.9896 C   0  0  0  0  0  0  0  0  0  0  0  0
   21.3477   19.1547   23.4940 H   0  0  0  0  0  0  0  0  0  0  0  0
   20.3877   17.6777   23.2264 H   0  0  0  0  0  0  0  0  0  0  0  0
   20.3296   19.0927   21.4761 C   0  0  0  0  0  0  0  0  0  0  0  0
   20.7146   20.0871   21.2121 H   0  0  0  0  0  0  0  0  0  0  0  0
   18.7911   19.0579   21.7231 C   0  0  0  0  0  0  0  0  0  0  0  0
   18.3394   18.0593   21.6768 H   0  0  0  0  0  0  0  0  0  0  0  0
   18.1952   19.7421   21.1091 H   0  0  0  0  0  0  0  0  0  0  0  0
   20.8212   18.1187   20.5865 O   0  0  0  0  0  0  0  0  0  0  0  0
   20.4465   17.2584   20.8699 H   0  0  0  0  0  0  0  0  0  0  0  0
  1  2  1  0  0  0  0
  1  3  1  0  0  0  0
  1  4  1  0  0  0  0
  4  5  1  0  0  0  0
  4  6  1  0  0  0  0
  4  7  1  0  0  0  0
  7  8  1  0  0  0  0
  1  9  1  0  0  0  0
  7  9  1  0  0  0  0
  9 10  1  0  0  0  0
  9 11  1  0  0  0  0
  7 12  1  0  0  0  0
 12 13  1  0  0  0  0
M  END
> <VConfSearch Rank>
734

> <Conf_Id>
24

> <Delta U+W>
0.356

> <U+W>
-2.775

> <U>
-0.184

> <W>
-2.591

> <W(PB)>
-4.184

> <W(SA)>
1.593

> <Valence>
6.840

> <Coulomb>
-7.916

> <VdW>
0.893

> <VdW6>
-2.167

> <VdW12>
3.060

> <Bond>
0.059

> <Angle>
0.918

> <Pdih>
5.862

> <Idih>
0.000

> <Tether>
0.000

$$$$
VeraChem MOL file


 13 13  0  0  0  0  0  0  0  0999 V2000     
   20.5297   18.2198   22.2598 C   0  0  0  0  0  0  0  0  0  0  0  0
   20.9231   17.2717   21.8741 H   0  0  0  0  0  0  0  0  0  0  0  0
   21.2340   18.6094   23.0058 H   0  0  0  0  0  0  0  0  0  0  0  0
   19.0317   18.2049   22.7134 C   0  0  0  0  0  0  0  0  0  0  0  0
   18.3978   17.5003   22.1613 H   0  0  0  0  0  0  0  0  0  0  0  0
   18.8528   18.0676   23.7857 H   0  0  0  0  0  0  0  0  0  0  0  0
   18.9547   19.6733   22.1920 C   0  0  0  0  0  0  0  0  0  0  0  0
   17.9971   19.9494   21.7324 H   0  0  0  0  0  0  0  0  0  0  0  0
   20.0699   19.2584   21.1829 C   0  0  0  0  0  0  0  0  0  0  0  0
   19.6906   18.8121   20.2555 H   0  0  0  0  0  0  0  0  0  0  0  0
   20.7947   20.0381   20.9229 H   0  0  0  0  0  0  0  0  0  0  0  0
   19.3406   20.6550   23.1295 O   0  0  0  0  0  0  0  0  0  0  0  0
   20.1952   20.3579   23.5046 H   0  0  0  0  0  0  0  0  0  0  0  0
  1  2  1  0  0  0  0
  1  3  1  0  0  0  0
  1  4  1  0  0  0  0
  4  5  1  0  0  0  0
  4  6  1  0  0  0  0
  4  7  1  0  0  0  0
  7  8  1  0  0  0  0
  1  9  1  0  0  0  0
  7  9  1  0  0  0  0
  9 10  1  0  0  0  0
  9 11  1  0  0  0  0
  7 12  1  0  0  0  0
 12 13  1  0  0  0  0
M  END
> <VConfSearch Rank>
735

> <Conf_Id>
44

> <Delta U+W>
0.823

> <U+W>
-2.308

> <U>
0.039

> <W>
-2.348

> <W(PB)>
-3.918

> <W(SA)>
1.571

> <Valence>
7.320

> <Coulomb>
-8.530

> <VdW>
1.249

> <VdW6>
-2.615

> <VdW12>
3.864

> <Bond>
0.056

> <Angle>
0.694

> <Pdih>
6.570

> <Idih>
0.000

> <Tether>
0.000

$$$$
VeraChem MOL file


 13 13  0  0  0  0  0  0  0  0999 V2000     
   18.4170   18.6274   22.3241 C   0  0  0  0  0  0  0  0  0  0  0  0
   17.7987   19.2250   23.0069 H   0  0  0  0  0  0  0  0  0  0  0  0
   17.7831   17.8675   21.8516 H   0  0  0  0  0  0  0  0  0  0  0  0
   19.7618   18.1153   22.9377 C   0  0  0  0  0  0  0  0  0  0  0  0
   19.7491   17.8886   24.0094 H   0  0  0  0  0  0  0  0  0  0  0  0
   20.2193   17.2729   22.4042 H   0  0  0  0  0  0  0  0  0  0  0  0
   20.3312   19.5125   22.5473 C   0  0  0  0  0  0  0  0  0  0  0  0
   20.1157   20.2997   23.2828 H   0  0  0  0  0  0  0  0  0  0  0  0
   19.3225   19.4629   21.3601 C   0  0  0  0  0  0  0  0  0  0  0  0
   18.9191   20.4281   21.0351 H   0  0  0  0  0  0  0  0  0  0  0  0
   19.6816   18.9156   20.4796 H   0  0  0  0  0  0  0  0  0  0  0  0
   21.6917   19.5278   22.1821 O   0  0  0  0  0  0  0  0  0  0  0  0
   21.8820   20.4146   21.8071 H   0  0  0  0  0  0  0  0  0  0  0  0
  1  2  1  0  0  0  0
  1  3  1  0  0  0  0
  1  4  1  0  0  0  0
  4  5  1  0  0  0  0
  4  6  1  0  0  0  0
  4  7  1  0  0  0  0
  7  8  1  0  0  0  0
  1  9  1  0  0  0  0
  7  9  1  0  0  0  0
  9 10  1  0  0  0  0
  9 11  1  0  0  0  0
  7 12  1  0  0  0  0
 12 13  1  0  0  0  0
M  END
> <VConfSearch Rank>
736

> <Conf_Id>
22

> <Delta U+W>
0.000

> <U+W>
-3.131

> <U>
-0.154

> <W>
-2.978

> <W(PB)>
-4.579

> <W(SA)>
1.601

> <Valence>
6.333

> <Coulomb>
-7.439

> <VdW>
0.952

> <VdW6>
-2.120

> <VdW12>
3.072

> <Bond>
0.065

> <Angle>
0.931

> <Pdih>
5.338

> <Idih>
0.000

> <Tether>
0.000

$$$$
VeraChem MOL file


 13 13  0  0  0  0  0  0  0  0999 V2000     
   20.9324   19.1256   22.3049 C   0  0  0  0  0  0  0  0  0  0  0  0
   21.4883   18.6217   21.5032 H   0  0  0  0  0  0  0  0  0  0  0  0
   21.6492   19.6216   22.9701 H   0  0  0  0  0  0  0  0  0  0  0  0
   19.8449   18.2432   23.0020 C   0  0  0  0  0  0  0  0  0  0  0  0
   19.5238   18.6049   23.9868 H   0  0  0  0  0  0  0  0  0  0  0  0
   20.0663   17.1727   23.0744 H   0  0  0  0  0  0  0  0  0  0  0  0
   18.9187   18.6678   21.8226 C   0  0  0  0  0  0  0  0  0  0  0  0
   19.0505   18.0657   20.9131 H   0  0  0  0  0  0  0  0  0  0  0  0
   19.7292   19.9989   21.8179 C   0  0  0  0  0  0  0  0  0  0  0  0
   19.3805   20.7458   22.5418 H   0  0  0  0  0  0  0  0  0  0  0  0
   19.8460   20.4819   20.8417 H   0  0  0  0  0  0  0  0  0  0  0  0
   17.5531   18.7953   22.1445 O   0  0  0  0  0  0  0  0  0  0  0  0
   17.1991   17.8891   22.2738 H   0  0  0  0  0  0  0  0  0  0  0  0
  1  2  1  0  0  0  0
  1  3  1  0  0  0  0
  1  4  1  0  0  0  0
  4  5  1  0  0  0  0
  4  6  1  0  0  0  0
  4  7  1  0  0  0  0
  7  8  1  0  0  0  0
  1  9  1  0  0  0  0
  7  9  1  0  0  0  0
  9 10  1  0  0  0  0
  9 11  1  0  0  0  0
  7 12  1  0  0  0  0
 12 13  1  0  0  0  0
M  END
> <VConfSearch Rank>
737

> <Conf_Id>
19

> <Delta U+W>
-0.011

> <U+W>
-3.142

> <U>
-0.154

> <W>
-2.989

> <W(PB)>
-4.588

> <W(SA)>
1.599

> <Valence>
6.334

> <Coulomb>
-7.439

> <VdW>
0.951

> <VdW6>
-2.120

> <VdW12>
3.072

> <Bond>
0.065

> <Angle>
0.930

> <Pdih>
5.339

> <Idih>
0.000

> <Tether>
0.000

$$$$
VeraChem MOL file


 13 13  0  0  0  0  0  0  0  0999 V2000     
   19.9971   19.5754   21.2255 C   0  0  0  0  0  0  0  0  0  0  0  0
   20.5505   20.4097   20.7788 H   0  0  0  0  0  0  0  0  0  0  0  0
   19.6815   18.8944   20.4244 H   0  0  0  0  0  0  0  0  0  0  0  0
   18.8641   19.9619   22.2335 C   0  0  0  0  0  0  0  0  0  0  0  0
   19.0499   20.8857   22.7945 H   0  0  0  0  0  0  0  0  0  0  0  0
   17.8483   19.9984   21.8247 H   0  0  0  0  0  0  0  0  0  0  0  0
   19.2375   18.6585   23.0062 C   0  0  0  0  0  0  0  0  0  0  0  0
   19.1526   18.7341   24.0980 H   0  0  0  0  0  0  0  0  0  0  0  0
   20.6786   18.8721   22.4461 C   0  0  0  0  0  0  0  0  0  0  0  0
   21.2458   17.9622   22.2209 H   0  0  0  0  0  0  0  0  0  0  0  0
   21.3049   19.5321   23.0585 H   0  0  0  0  0  0  0  0  0  0  0  0
   18.5867   17.4895   22.5502 O   0  0  0  0  0  0  0  0  0  0  0  0
   19.0241   16.7256   22.9829 H   0  0  0  0  0  0  0  0  0  0  0  0
  1  2  1  0  0  0  0
  1  3  1  0  0  0  0
  1  4  1  0  0  0  0
  4  5  1  0  0  0  0
  4  6  1  0  0  0  0
  4  7  1  0  0  0  0
  7  8  1  0  0  0  0
  1  9  1  0  0  0  0
  7  9  1  0  0  0  0
  9 10  1  0  0  0  0
  9 11  1  0  0  0  0
  7 12  1  0  0  0  0
 12 13  1  0  0  0  0
M  END
> <VConfSearch Rank>
738

> <Conf_Id>
20

> <Delta U+W>
1.030

> <U+W>
-2.101

> <U>
0.841

> <W>
-2.942

> <W(PB)>
-4.530

> <W(SA)>
1.587

> <Valence>
6.736

> <Coulomb>
-7.246

> <VdW>
1.352

> <VdW6>
-2.500

> <VdW12>
3.851

> <Bond>
0.063

> <Angle>
0.687

> <Pdih>
5.986

> <Idih>
0.000

> <Tether>
0.000

$$$$
VeraChem MOL file


 13 13  0  0  0  0  0  0  0  0999 V2000     
   20.6995   19.7087   22.6178 C   0  0  0  0  0  0  0  0  0  0  0  0
   20.4339   20.6470   23.1226 H   0  0  0  0  0  0  0  0  0  0  0  0
   21.7925   19.6313   22.5756 H   0  0  0  0  0  0  0  0  0  0  0  0
   19.9399   19.4508   21.2748 C   0  0  0  0  0  0  0  0  0  0  0  0
   19.6810   20.3396   20.6889 H   0  0  0  0  0  0  0  0  0  0  0  0
   20.4181   18.7193   20.6118 H   0  0  0  0  0  0  0  0  0  0  0  0
   18.8017   18.8761   22.1712 C   0  0  0  0  0  0  0  0  0  0  0  0
   18.1315   19.6425   22.5837 H   0  0  0  0  0  0  0  0  0  0  0  0
   19.9409   18.4457   23.1439 C   0  0  0  0  0  0  0  0  0  0  0  0
   20.4195   17.4895   22.8987 H   0  0  0  0  0  0  0  0  0  0  0  0
   19.6831   18.4468   24.2086 H   0  0  0  0  0  0  0  0  0  0  0  0
   18.0601   17.8221   21.6048 O   0  0  0  0  0  0  0  0  0  0  0  0
   18.7069   17.1736   21.2557 H   0  0  0  0  0  0  0  0  0  0  0  0
  1  2  1  0  0  0  0
  1  3  1  0  0  0  0
  1  4  1  0  0  0  0
  4  5  1  0  0  0  0
  4  6  1  0  0  0  0
  4  7  1  0  0  0  0
  7  8  1  0  0  0  0
  1  9  1  0  0  0  0
  7  9  1  0  0  0  0
  9 10  1  0  0  0  0
  9 11  1  0  0  0  0
  7 12  1  0  0  0  0
 12 13  1  0  0  0  0
M  END
> <VConfSearch Rank>
739

> <Conf_Id>
24

> <Delta U+W>
0.356

> <U+W>
-2.775

> <U>
-0.184

> <W>
-2.591

> <W(PB)>
-4.184

> <W(SA)>
1.593

> <Valence>
6.840

> <Coulomb>
-7.916

> <VdW>
0.893

> <VdW6>
-2.167

> <VdW12>
3.060

> <Bond>
0.059

> <Angle>
0.918

> <Pdih>
5.862

> <Idih>
0.000

> <Tether>
0.000

$$$$
VeraChem MOL file


 13 13  0  0  0  0  0  0  0  0999 V2000     
   20.6404   18.5804   21.7438 C   0  0  0  0  0  0  0  0  0  0  0  0
   21.7270   18.7008   21.6596 H   0  0  0  0  0  0  0  0  0  0  0  0
   20.3367   17.7297   21.1205 H   0  0  0  0  0  0  0  0  0  0  0  0
   19.7905   19.8796   21.5441 C   0  0  0  0  0  0  0  0  0  0  0  0
   20.2936   20.8029   21.8563 H   0  0  0  0  0  0  0  0  0  0  0  0
   19.3705   20.0332   20.5437 H   0  0  0  0  0  0  0  0  0  0  0  0
   18.8141   19.2948   22.6111 C   0  0  0  0  0  0  0  0  0  0  0  0
   18.3586   20.0397   23.2761 H   0  0  0  0  0  0  0  0  0  0  0  0
   20.0639   18.5694   23.1990 C   0  0  0  0  0  0  0  0  0  0  0  0
   20.6341   19.1714   23.9171 H   0  0  0  0  0  0  0  0  0  0  0  0
   19.8819   17.5826   23.6392 H   0  0  0  0  0  0  0  0  0  0  0  0
   17.8197   18.4362   22.0956 O   0  0  0  0  0  0  0  0  0  0  0  0
   18.2810   17.7974   21.5137 H   0  0  0  0  0  0  0  0  0  0  0  0
  1  2  1  0  0  0  0
  1  3  1  0  0  0  0
  1  4  1  0  0  0  0
  4  5  1  0  0  0  0
  4  6  1  0  0  0  0
  4  7  1  0  0  0  0
  7  8  1  0  0  0  0
  1  9  1  0  0  0  0
  7  9  1  0  0  0  0
  9 10  1  0  0  0  0
  9 11  1  0  0  0  0
  7 12  1  0  0  0  0
 12 13  1  0  0  0  0
M  END
> <VConfSearch Rank>
740

> <Conf_Id>
44

> <Delta U+W>
0.823

> <U+W>
-2.308

> <U>
0.039

> <W>
-2.348

> <W(PB)>
-3.918

> <W(SA)>
1.571

> <Valence>
7.320

> <Coulomb>
-8.530

> <VdW>
1.249

> <VdW6>
-2.615

> <VdW12>
3.864

> <Bond>
0.056

> <Angle>
0.694

> <Pdih>
6.570

> <Idih>
0.000

> <Tether>
0.000

$$$$
VeraChem MOL file


 13 13  0  0  0  0  0  0  0  0999 V2000     
   18.9732   18.5154   23.2390 C   0  0  0  0  0  0  0  0  0  0  0  0
   18.9558   17.4177   23.2241 H   0  0  0  0  0  0  0  0  0  0  0  0
   18.4346   18.8623   24.1289 H   0  0  0  0  0  0  0  0  0  0  0  0
   18.5757   19.1947   21.8871 C   0  0  0  0  0  0  0  0  0  0  0  0
   17.8348   18.6645   21.2788 H   0  0  0  0  0  0  0  0  0  0  0  0
   18.2753   20.2465   21.9718 H   0  0  0  0  0  0  0  0  0  0  0  0
   20.0649   18.9794   21.4811 C   0  0  0  0  0  0  0  0  0  0  0  0
   20.2770   17.9740   21.0922 H   0  0  0  0  0  0  0  0  0  0  0  0
   20.3821   19.1511   22.9974 C   0  0  0  0  0  0  0  0  0  0  0  0
   21.2390   18.5817   23.3738 H   0  0  0  0  0  0  0  0  0  0  0  0
   20.4774   20.1929   23.3281 H   0  0  0  0  0  0  0  0  0  0  0  0
   20.6077   19.9674   20.6362 O   0  0  0  0  0  0  0  0  0  0  0  0
   21.5753   19.8103   20.5895 H   0  0  0  0  0  0  0  0  0  0  0  0
  1  2  1  0  0  0  0
  1  3  1  0  0  0  0
  1  4  1  0  0  0  0
  4  5  1  0  0  0  0
  4  6  1  0  0  0  0
  4  7  1  0  0  0  0
  7  8  1  0  0  0  0
  1  9  1  0  0  0  0
  7  9  1  0  0  0  0
  9 10  1  0  0  0  0
  9 11  1  0  0  0  0
  7 12  1  0  0  0  0
 12 13  1  0  0  0  0
M  END
> <VConfSearch Rank>
741

> <Conf_Id>
22

> <Delta U+W>
0.000

> <U+W>
-3.131

> <U>
-0.154

> <W>
-2.978

> <W(PB)>
-4.579

> <W(SA)>
1.601

> <Valence>
6.333

> <Coulomb>
-7.439

> <VdW>
0.952

> <VdW6>
-2.120

> <VdW12>
3.072

> <Bond>
0.065

> <Angle>
0.931

> <Pdih>
5.338

> <Idih>
0.000

> <Tether>
0.000

$$$$
VeraChem MOL file


 13 13  0  0  0  0  0  0  0  0999 V2000     
   18.6759   18.0718   21.9249 C   0  0  0  0  0  0  0  0  0  0  0  0
   18.4392   18.0642   20.8528 H   0  0  0  0  0  0  0  0  0  0  0  0
   17.9951   17.3829   22.4390 H   0  0  0  0  0  0  0  0  0  0  0  0
   18.8156   19.4972   22.5544 C   0  0  0  0  0  0  0  0  0  0  0  0
   18.7237   19.5263   23.6473 H   0  0  0  0  0  0  0  0  0  0  0  0
   18.1779   20.2781   22.1259 H   0  0  0  0  0  0  0  0  0  0  0  0
   20.2822   19.4526   22.0288 C   0  0  0  0  0  0  0  0  0  0  0  0
   20.3861   19.7361   20.9725 H   0  0  0  0  0  0  0  0  0  0  0  0
   20.1957   17.9139   22.2607 C   0  0  0  0  0  0  0  0  0  0  0  0
   20.4088   17.5966   23.2890 H   0  0  0  0  0  0  0  0  0  0  0  0
   20.7813   17.2948   21.5723 H   0  0  0  0  0  0  0  0  0  0  0  0
   21.2282   20.1291   22.8237 O   0  0  0  0  0  0  0  0  0  0  0  0
   21.0724   21.0909   22.7057 H   0  0  0  0  0  0  0  0  0  0  0  0
  1  2  1  0  0  0  0
  1  3  1  0  0  0  0
  1  4  1  0  0  0  0
  4  5  1  0  0  0  0
  4  6  1  0  0  0  0
  4  7  1  0  0  0  0
  7  8  1  0  0  0  0
  1  9  1  0  0  0  0
  7  9  1  0  0  0  0
  9 10  1  0  0  0  0
  9 11  1  0  0  0  0
  7 12  1  0  0  0  0
 12 13  1  0  0  0  0
M  END
> <VConfSearch Rank>
742

> <Conf_Id>
19

> <Delta U+W>
-0.011

> <U+W>
-3.142

> <U>
-0.154

> <W>
-2.989

> <W(PB)>
-4.588

> <W(SA)>
1.599

> <Valence>
6.334

> <Coulomb>
-7.439

> <VdW>
0.951

> <VdW6>
-2.120

> <VdW12>
3.072

> <Bond>
0.065

> <Angle>
0.930

> <Pdih>
5.339

> <Idih>
0.000

> <Tether>
0.000

$$$$
VeraChem MOL file


 13 13  0  0  0  0  0  0  0  0999 V2000     
   19.9859   20.2316   22.2068 C   0  0  0  0  0  0  0  0  0  0  0  0
   20.0825   21.1776   22.7525 H   0  0  0  0  0  0  0  0  0  0  0  0
   20.4272   20.3551   21.2092 H   0  0  0  0  0  0  0  0  0  0  0  0
   18.5649   19.5760   22.2117 C   0  0  0  0  0  0  0  0  0  0  0  0
   17.9759   19.7734   23.1155 H   0  0  0  0  0  0  0  0  0  0  0  0
   17.9393   19.7768   21.3349 H   0  0  0  0  0  0  0  0  0  0  0  0
   19.3033   18.2012   22.2173 C   0  0  0  0  0  0  0  0  0  0  0  0
   18.8046   17.4168   22.8011 H   0  0  0  0  0  0  0  0  0  0  0  0
   20.4504   18.9464   22.9691 C   0  0  0  0  0  0  0  0  0  0  0  0
   21.4680   18.6019   22.7542 H   0  0  0  0  0  0  0  0  0  0  0  0
   20.3188   18.9915   24.0570 H   0  0  0  0  0  0  0  0  0  0  0  0
   19.6495   17.7068   20.9391 O   0  0  0  0  0  0  0  0  0  0  0  0
   20.2514   16.9444   21.0756 H   0  0  0  0  0  0  0  0  0  0  0  0
  1  2  1  0  0  0  0
  1  3  1  0  0  0  0
  1  4  1  0  0  0  0
  4  5  1  0  0  0  0
  4  6  1  0  0  0  0
  4  7  1  0  0  0  0
  7  8  1  0  0  0  0
  1  9  1  0  0  0  0
  7  9  1  0  0  0  0
  9 10  1  0  0  0  0
  9 11  1  0  0  0  0
  7 12  1  0  0  0  0
 12 13  1  0  0  0  0
M  END
> <VConfSearch Rank>
743

> <Conf_Id>
20

> <Delta U+W>
1.030

> <U+W>
-2.101

> <U>
0.841

> <W>
-2.942

> <W(PB)>
-4.530

> <W(SA)>
1.587

> <Valence>
6.736

> <Coulomb>
-7.246

> <VdW>
1.352

> <VdW6>
-2.500

> <VdW12>
3.851

> <Bond>
0.063

> <Angle>
0.687

> <Pdih>
5.986

> <Idih>
0.000

> <Tether>
0.000

$$$$
VeraChem MOL file


 13 13  0  0  0  0  0  0  0  0999 V2000     
   18.6159   19.2457   21.6845 C   0  0  0  0  0  0  0  0  0  0  0  0
   17.7811   18.5486   21.8357 H   0  0  0  0  0  0  0  0  0  0  0  0
   18.2635   20.0871   21.0759 H   0  0  0  0  0  0  0  0  0  0  0  0
   19.9521   18.5757   21.2228 C   0  0  0  0  0  0  0  0  0  0  0  0
   19.8522   17.6872   20.5897 H   0  0  0  0  0  0  0  0  0  0  0  0
   20.6704   19.2613   20.7566 H   0  0  0  0  0  0  0  0  0  0  0  0
   20.1958   18.3030   22.7379 C   0  0  0  0  0  0  0  0  0  0  0  0
   19.6922   17.4020   23.1136 H   0  0  0  0  0  0  0  0  0  0  0  0
   19.3994   19.6197   22.9859 C   0  0  0  0  0  0  0  0  0  0  0  0
   19.9943   20.5386   22.9138 H   0  0  0  0  0  0  0  0  0  0  0  0
   18.8116   19.6532   23.9098 H   0  0  0  0  0  0  0  0  0  0  0  0
   21.5426   18.3251   23.1470 O   0  0  0  0  0  0  0  0  0  0  0  0
   21.9374   19.1458   22.7848 H   0  0  0  0  0  0  0  0  0  0  0  0
  1  2  1  0  0  0  0
  1  3  1  0  0  0  0
  1  4  1  0  0  0  0
  4  5  1  0  0  0  0
  4  6  1  0  0  0  0
  4  7  1  0  0  0  0
  7  8  1  0  0  0  0
  1  9  1  0  0  0  0
  7  9  1  0  0  0  0
  9 10  1  0  0  0  0
  9 11  1  0  0  0  0
  7 12  1  0  0  0  0
 12 13  1  0  0  0  0
M  END
> <VConfSearch Rank>
744

> <Conf_Id>
24

> <Delta U+W>
0.356

> <U+W>
-2.775

> <U>
-0.184

> <W>
-2.591

> <W(PB)>
-4.184

> <W(SA)>
1.593

> <Valence>
6.840

> <Coulomb>
-7.916

> <VdW>
0.893

> <VdW6>
-2.167

> <VdW12>
3.060

> <Bond>
0.059

> <Angle>
0.918

> <Pdih>
5.862

> <Idih>
0.000

> <Tether>
0.000

$$$$
VeraChem MOL file


 13 13  0  0  0  0  0  0  0  0999 V2000     
   19.6283   20.0443   22.5394 C   0  0  0  0  0  0  0  0  0  0  0  0
   19.1681   20.7528   23.2384 H   0  0  0  0  0  0  0  0  0  0  0  0
   20.3117   20.5987   21.8837 H   0  0  0  0  0  0  0  0  0  0  0  0
   18.6451   19.0772   21.7991 C   0  0  0  0  0  0  0  0  0  0  0  0
   17.7457   18.8197   22.3715 H   0  0  0  0  0  0  0  0  0  0  0  0
   18.3415   19.3765   20.7897 H   0  0  0  0  0  0  0  0  0  0  0  0
   19.7793   18.0091   21.8813 C   0  0  0  0  0  0  0  0  0  0  0  0
   19.4322   16.9795   22.0365 H   0  0  0  0  0  0  0  0  0  0  0  0
   20.2336   18.7493   23.1773 C   0  0  0  0  0  0  0  0  0  0  0  0
   19.7237   18.4114   24.0877 H   0  0  0  0  0  0  0  0  0  0  0  0
   21.3127   18.7633   23.3675 H   0  0  0  0  0  0  0  0  0  0  0  0
   20.7085   18.0500   20.8200 O   0  0  0  0  0  0  0  0  0  0  0  0
   20.9816   18.9861   20.7279 H   0  0  0  0  0  0  0  0  0  0  0  0
  1  2  1  0  0  0  0
  1  3  1  0  0  0  0
  1  4  1  0  0  0  0
  4  5  1  0  0  0  0
  4  6  1  0  0  0  0
  4  7  1  0  0  0  0
  7  8  1  0  0  0  0
  1  9  1  0  0  0  0
  7  9  1  0  0  0  0
  9 10  1  0  0  0  0
  9 11  1  0  0  0  0
  7 12  1  0  0  0  0
 12 13  1  0  0  0  0
M  END
> <VConfSearch Rank>
745

> <Conf_Id>
44

> <Delta U+W>
0.823

> <U+W>
-2.308

> <U>
0.039

> <W>
-2.348

> <W(PB)>
-3.918

> <W(SA)>
1.571

> <Valence>
7.320

> <Coulomb>
-8.530

> <VdW>
1.249

> <VdW6>
-2.615

> <VdW12>
3.864

> <Bond>
0.056

> <Angle>
0.694

> <Pdih>
6.570

> <Idih>
0.000

> <Tether>
0.000

$$$$
VeraChem MOL file


 13 13  0  0  0  0  0  0  0  0999 V2000     
   19.0395   18.0038   21.7310 C   0  0  0  0  0  0  0  0  0  0  0  0
   19.6701   17.3997   21.0653 H   0  0  0  0  0  0  0  0  0  0  0  0
   18.0571   17.5239   21.8139 H   0  0  0  0  0  0  0  0  0  0  0  0
   19.0313   19.5354   21.4129 C   0  0  0  0  0  0  0  0  0  0  0  0
   19.1398   19.8109   20.3582 H   0  0  0  0  0  0  0  0  0  0  0  0
   18.1841   20.0886   21.8368 H   0  0  0  0  0  0  0  0  0  0  0  0
   20.3339   19.5961   22.2664 C   0  0  0  0  0  0  0  0  0  0  0  0
   21.2416   19.3274   21.7088 H   0  0  0  0  0  0  0  0  0  0  0  0
   19.7182   18.4169   23.0786 C   0  0  0  0  0  0  0  0  0  0  0  0
   20.4333   17.7006   23.4979 H   0  0  0  0  0  0  0  0  0  0  0  0
   19.0204   18.7226   23.8682 H   0  0  0  0  0  0  0  0  0  0  0  0
   20.5255   20.7902   22.9888 O   0  0  0  0  0  0  0  0  0  0  0  0
   21.2779   20.6419   23.6013 H   0  0  0  0  0  0  0  0  0  0  0  0
  1  2  1  0  0  0  0
  1  3  1  0  0  0  0
  1  4  1  0  0  0  0
  4  5  1  0  0  0  0
  4  6  1  0  0  0  0
  4  7  1  0  0  0  0
  7  8  1  0  0  0  0
  1  9  1  0  0  0  0
  7  9  1  0  0  0  0
  9 10  1  0  0  0  0
  9 11  1  0  0  0  0
  7 12  1  0  0  0  0
 12 13  1  0  0  0  0
M  END
> <VConfSearch Rank>
746

> <Conf_Id>
22

> <Delta U+W>
0.000

> <U+W>
-3.131

> <U>
-0.154

> <W>
-2.978

> <W(PB)>
-4.579

> <W(SA)>
1.601

> <Valence>
6.333

> <Coulomb>
-7.439

> <VdW>
0.952

> <VdW6>
-2.120

> <VdW12>
3.072

> <Bond>
0.065

> <Angle>
0.931

> <Pdih>
5.338

> <Idih>
0.000

> <Tether>
0.000

$$$$
VeraChem MOL file


 13 13  0  0  0  0  0  0  0  0999 V2000     
   20.5559   18.6700   21.3418 C   0  0  0  0  0  0  0  0  0  0  0  0
   21.4452   18.1763   21.7554 H   0  0  0  0  0  0  0  0  0  0  0  0
   20.7237   18.8576   20.2746 H   0  0  0  0  0  0  0  0  0  0  0  0
   20.0322   19.8834   22.1788 C   0  0  0  0  0  0  0  0  0  0  0  0
   19.3746   20.5689   21.6296 H   0  0  0  0  0  0  0  0  0  0  0  0
   20.7928   20.4703   22.7053 H   0  0  0  0  0  0  0  0  0  0  0  0
   19.2853   18.8154   23.0335 C   0  0  0  0  0  0  0  0  0  0  0  0
   19.9093   18.3478   23.8076 H   0  0  0  0  0  0  0  0  0  0  0  0
   19.1972   17.9900   21.7145 C   0  0  0  0  0  0  0  0  0  0  0  0
   18.3549   18.2595   21.0652 H   0  0  0  0  0  0  0  0  0  0  0  0
   19.2174   16.9011   21.8317 H   0  0  0  0  0  0  0  0  0  0  0  0
   18.0496   19.2285   23.5691 O   0  0  0  0  0  0  0  0  0  0  0  0
   18.2437   19.8656   24.2900 H   0  0  0  0  0  0  0  0  0  0  0  0
  1  2  1  0  0  0  0
  1  3  1  0  0  0  0
  1  4  1  0  0  0  0
  4  5  1  0  0  0  0
  4  6  1  0  0  0  0
  4  7  1  0  0  0  0
  7  8  1  0  0  0  0
  1  9  1  0  0  0  0
  7  9  1  0  0  0  0
  9 10  1  0  0  0  0
  9 11  1  0  0  0  0
  7 12  1  0  0  0  0
 12 13  1  0  0  0  0
M  END
> <VConfSearch Rank>
747

> <Conf_Id>
19

> <Delta U+W>
-0.011

> <U+W>
-3.142

> <U>
-0.154

> <W>
-2.989

> <W(PB)>
-4.588

> <W(SA)>
1.599

> <Valence>
6.334

> <Coulomb>
-7.439

> <VdW>
0.951

> <VdW6>
-2.120

> <VdW12>
3.072

> <Bond>
0.065

> <Angle>
0.930

> <Pdih>
5.339

> <Idih>
0.000

> <Tether>
0.000

$$$$
VeraChem MOL file


 13 13  0  0  0  0  0  0  0  0999 V2000     
   19.7241   18.1601   21.4374 C   0  0  0  0  0  0  0  0  0  0  0  0
   19.2079   17.3211   20.9561 H   0  0  0  0  0  0  0  0  0  0  0  0
   20.6921   18.3081   20.9412 H   0  0  0  0  0  0  0  0  0  0  0  0
   19.7948   18.1198   23.0002 C   0  0  0  0  0  0  0  0  0  0  0  0
   18.9423   17.6255   23.4816 H   0  0  0  0  0  0  0  0  0  0  0  0
   20.7200   17.7201   23.4299 H   0  0  0  0  0  0  0  0  0  0  0  0
   19.6871   19.6758   22.9506 C   0  0  0  0  0  0  0  0  0  0  0  0
   19.1114   20.1206   23.7725 H   0  0  0  0  0  0  0  0  0  0  0  0
   18.8846   19.4668   21.6283 C   0  0  0  0  0  0  0  0  0  0  0  0
   19.0148   20.2379   20.8609 H   0  0  0  0  0  0  0  0  0  0  0  0
   17.8109   19.2989   21.7767 H   0  0  0  0  0  0  0  0  0  0  0  0
   20.9189   20.3528   22.8010 O   0  0  0  0  0  0  0  0  0  0  0  0
   20.7128   21.2921   22.6076 H   0  0  0  0  0  0  0  0  0  0  0  0
  1  2  1  0  0  0  0
  1  3  1  0  0  0  0
  1  4  1  0  0  0  0
  4  5  1  0  0  0  0
  4  6  1  0  0  0  0
  4  7  1  0  0  0  0
  7  8  1  0  0  0  0
  1  9  1  0  0  0  0
  7  9  1  0  0  0  0
  9 10  1  0  0  0  0
  9 11  1  0  0  0  0
  7 12  1  0  0  0  0
 12 13  1  0  0  0  0
M  END
> <VConfSearch Rank>
748

> <Conf_Id>
20

> <Delta U+W>
1.030

> <U+W>
-2.101

> <U>
0.841

> <W>
-2.942

> <W(PB)>
-4.530

> <W(SA)>
1.587

> <Valence>
6.736

> <Coulomb>
-7.246

> <VdW>
1.352

> <VdW6>
-2.500

> <VdW12>
3.851

> <Bond>
0.063

> <Angle>
0.687

> <Pdih>
5.986

> <Idih>
0.000

> <Tether>
0.000

$$$$
VeraChem MOL file


 13 13  0  0  0  0  0  0  0  0999 V2000     
   19.0099   19.2720   23.2113 C   0  0  0  0  0  0  0  0  0  0  0  0
   18.8619   18.5244   24.0017 H   0  0  0  0  0  0  0  0  0  0  0  0
   18.4549   20.1790   23.4791 H   0  0  0  0  0  0  0  0  0  0  0  0
   18.7930   18.7379   21.7569 C   0  0  0  0  0  0  0  0  0  0  0  0
   18.0396   17.9511   21.6396 H   0  0  0  0  0  0  0  0  0  0  0  0
   18.6086   19.5164   21.0064 H   0  0  0  0  0  0  0  0  0  0  0  0
   20.2710   18.2517   21.8465 C   0  0  0  0  0  0  0  0  0  0  0  0
   20.3902   17.2833   22.3511 H   0  0  0  0  0  0  0  0  0  0  0  0
   20.4988   19.4800   22.7783 C   0  0  0  0  0  0  0  0  0  0  0  0
   20.6957   20.4244   22.2561 H   0  0  0  0  0  0  0  0  0  0  0  0
   21.2519   19.3487   23.5631 H   0  0  0  0  0  0  0  0  0  0  0  0
   20.9880   18.2708   20.6351 O   0  0  0  0  0  0  0  0  0  0  0  0
   20.8451   19.1531   20.2329 H   0  0  0  0  0  0  0  0  0  0  0  0
  1  2  1  0  0  0  0
  1  3  1  0  0  0  0
  1  4  1  0  0  0  0
  4  5  1  0  0  0  0
  4  6  1  0  0  0  0
  4  7  1  0  0  0  0
  7  8  1  0  0  0  0
  1  9  1  0  0  0  0
  7  9  1  0  0  0  0
  9 10  1  0  0  0  0
  9 11  1  0  0  0  0
  7 12  1  0  0  0  0
 12 13  1  0  0  0  0
M  END
> <VConfSearch Rank>
749

> <Conf_Id>
24

> <Delta U+W>
0.356

> <U+W>
-2.775

> <U>
-0.184

> <W>
-2.591

> <W(PB)>
-4.184

> <W(SA)>
1.593

> <Valence>
6.840

> <Coulomb>
-7.916

> <VdW>
0.893

> <VdW6>
-2.167

> <VdW12>
3.060

> <Bond>
0.059

> <Angle>
0.918

> <Pdih>
5.862

> <Idih>
0.000

> <Tether>
0.000

$$$$
VeraChem MOL file


 13 13  0  0  0  0  0  0  0  0999 V2000     
   18.9451   19.8016   22.3353 C   0  0  0  0  0  0  0  0  0  0  0  0
   18.3481   20.3854   23.0460 H   0  0  0  0  0  0  0  0  0  0  0  0
   18.7364   20.1697   21.3228 H   0  0  0  0  0  0  0  0  0  0  0  0
   18.8746   18.2463   22.4981 C   0  0  0  0  0  0  0  0  0  0  0  0
   18.7082   17.9053   23.5271 H   0  0  0  0  0  0  0  0  0  0  0  0
   18.1720   17.7230   21.8399 H   0  0  0  0  0  0  0  0  0  0  0  0
   20.3701   18.2241   22.0543 C   0  0  0  0  0  0  0  0  0  0  0  0
   20.9861   17.4621   22.5487 H   0  0  0  0  0  0  0  0  0  0  0  0
   20.4643   19.6499   22.6806 C   0  0  0  0  0  0  0  0  0  0  0  0
   20.6876   19.6529   23.7545 H   0  0  0  0  0  0  0  0  0  0  0  0
   21.1454   20.3482   22.1814 H   0  0  0  0  0  0  0  0  0  0  0  0
   20.5723   18.1766   20.6584 O   0  0  0  0  0  0  0  0  0  0  0  0
   20.0017   18.8730   20.2728 H   0  0  0  0  0  0  0  0  0  0  0  0
  1  2  1  0  0  0  0
  1  3  1  0  0  0  0
  1  4  1  0  0  0  0
  4  5  1  0  0  0  0
  4  6  1  0  0  0  0
  4  7  1  0  0  0  0
  7  8  1  0  0  0  0
  1  9  1  0  0  0  0
  7  9  1  0  0  0  0
  9 10  1  0  0  0  0
  9 11  1  0  0  0  0
  7 12  1  0  0  0  0
 12 13  1  0  0  0  0
M  END
> <VConfSearch Rank>
750

> <Conf_Id>
44

> <Delta U+W>
0.823

> <U+W>
-2.308

> <U>
0.039

> <W>
-2.348

> <W(PB)>
-3.918

> <W(SA)>
1.571

> <Valence>
7.320

> <Coulomb>
-8.530

> <VdW>
1.249

> <VdW6>
-2.615

> <VdW12>
3.864

> <Bond>
0.056

> <Angle>
0.694

> <Pdih>
6.570

> <Idih>
0.000

> <Tether>
0.000

$$$$
VeraChem MOL file


 13 13  0  0  0  0  0  0  0  0999 V2000     
   20.0339   20.3019   22.1004 C   0  0  0  0  0  0  0  0  0  0  0  0
   20.7107   20.4627   21.2508 H   0  0  0  0  0  0  0  0  0  0  0  0
   19.8136   21.2720   22.5614 H   0  0  0  0  0  0  0  0  0  0  0  0
   20.4696   19.1602   23.0772 C   0  0  0  0  0  0  0  0  0  0  0  0
   21.5483   19.0120   23.1974 H   0  0  0  0  0  0  0  0  0  0  0  0
   20.0065   19.2035   24.0708 H   0  0  0  0  0  0  0  0  0  0  0  0
   19.7609   18.1989   22.0759 C   0  0  0  0  0  0  0  0  0  0  0  0
   20.3853   17.9146   21.2178 H   0  0  0  0  0  0  0  0  0  0  0  0
   18.7995   19.3920   21.7909 C   0  0  0  0  0  0  0  0  0  0  0  0
   18.4001   19.4512   20.7724 H   0  0  0  0  0  0  0  0  0  0  0  0
   17.9695   19.4885   22.5019 H   0  0  0  0  0  0  0  0  0  0  0  0
   19.1586   17.0643   22.6541 O   0  0  0  0  0  0  0  0  0  0  0  0
   18.6163   16.6361   21.9572 H   0  0  0  0  0  0  0  0  0  0  0  0
  1  2  1  0  0  0  0
  1  3  1  0  0  0  0
  1  4  1  0  0  0  0
  4  5  1  0  0  0  0
  4  6  1  0  0  0  0
  4  7  1  0  0  0  0
  7  8  1  0  0  0  0
  1  9  1  0  0  0  0
  7  9  1  0  0  0  0
  9 10  1  0  0  0  0
  9 11  1  0  0  0  0
  7 12  1  0  0  0  0
 12 13  1  0  0  0  0
M  END
> <VConfSearch Rank>
751

> <Conf_Id>
22

> <Delta U+W>
0.000

> <U+W>
-3.131

> <U>
-0.154

> <W>
-2.978

> <W(PB)>
-4.579

> <W(SA)>
1.601

> <Valence>
6.333

> <Coulomb>
-7.439

> <VdW>
0.952

> <VdW6>
-2.120

> <VdW12>
3.072

> <Bond>
0.065

> <Angle>
0.931

> <Pdih>
5.338

> <Idih>
0.000

> <Tether>
0.000

$$$$
VeraChem MOL file


 13 13  0  0  0  0  0  0  0  0999 V2000     
   19.7889   20.2195   22.4510 C   0  0  0  0  0  0  0  0  0  0  0  0
   18.9687   20.8296   22.0504 H   0  0  0  0  0  0  0  0  0  0  0  0
   20.5491   20.8878   22.8728 H   0  0  0  0  0  0  0  0  0  0  0  0
   20.3123   19.1087   21.4816 C   0  0  0  0  0  0  0  0  0  0  0  0
   21.3116   18.7247   21.7219 H   0  0  0  0  0  0  0  0  0  0  0  0
   20.2725   19.3439   20.4124 H   0  0  0  0  0  0  0  0  0  0  0  0
   19.1372   18.2453   22.0321 C   0  0  0  0  0  0  0  0  0  0  0  0
   18.1732   18.4402   21.5424 H   0  0  0  0  0  0  0  0  0  0  0  0
   19.3361   19.0317   23.3628 C   0  0  0  0  0  0  0  0  0  0  0  0
   20.1201   18.6287   24.0160 H   0  0  0  0  0  0  0  0  0  0  0  0
   18.4316   19.1967   23.9583 H   0  0  0  0  0  0  0  0  0  0  0  0
   19.3896   16.8614   22.1069 O   0  0  0  0  0  0  0  0  0  0  0  0
   19.3911   16.5161   21.1882 H   0  0  0  0  0  0  0  0  0  0  0  0
  1  2  1  0  0  0  0
  1  3  1  0  0  0  0
  1  4  1  0  0  0  0
  4  5  1  0  0  0  0
  4  6  1  0  0  0  0
  4  7  1  0  0  0  0
  7  8  1  0  0  0  0
  1  9  1  0  0  0  0
  7  9  1  0  0  0  0
  9 10  1  0  0  0  0
  9 11  1  0  0  0  0
  7 12  1  0  0  0  0
 12 13  1  0  0  0  0
M  END
> <VConfSearch Rank>
752

> <Conf_Id>
19

> <Delta U+W>
-0.011

> <U+W>
-3.142

> <U>
-0.154

> <W>
-2.989

> <W(PB)>
-4.588

> <W(SA)>
1.599

> <Valence>
6.334

> <Coulomb>
-7.439

> <VdW>
0.951

> <VdW6>
-2.120

> <VdW12>
3.072

> <Bond>
0.065

> <Angle>
0.930

> <Pdih>
5.339

> <Idih>
0.000

> <Tether>
0.000

$$$$
VeraChem MOL file


 13 13  0  0  0  0  0  0  0  0999 V2000     
   19.3162   18.3344   23.2290 C   0  0  0  0  0  0  0  0  0  0  0  0
   19.2209   17.3006   23.5814 H   0  0  0  0  0  0  0  0  0  0  0  0
   19.0958   19.0118   24.0643 H   0  0  0  0  0  0  0  0  0  0  0  0
   18.5690   18.6797   21.8981 C   0  0  0  0  0  0  0  0  0  0  0  0
   18.4866   17.8441   21.1925 H   0  0  0  0  0  0  0  0  0  0  0  0
   17.5831   19.1452   22.0066 H   0  0  0  0  0  0  0  0  0  0  0  0
   19.7500   19.6549   21.5991 C   0  0  0  0  0  0  0  0  0  0  0  0
   20.0286   19.7243   20.5397 H   0  0  0  0  0  0  0  0  0  0  0  0
   20.6253   18.6759   22.4426 C   0  0  0  0  0  0  0  0  0  0  0  0
   21.4308   19.1343   23.0269 H   0  0  0  0  0  0  0  0  0  0  0  0
   21.0418   17.8388   21.8693 H   0  0  0  0  0  0  0  0  0  0  0  0
   19.6053   20.9499   22.1471 O   0  0  0  0  0  0  0  0  0  0  0  0
   20.4682   21.4057   22.0475 H   0  0  0  0  0  0  0  0  0  0  0  0
  1  2  1  0  0  0  0
  1  3  1  0  0  0  0
  1  4  1  0  0  0  0
  4  5  1  0  0  0  0
  4  6  1  0  0  0  0
  4  7  1  0  0  0  0
  7  8  1  0  0  0  0
  1  9  1  0  0  0  0
  7  9  1  0  0  0  0
  9 10  1  0  0  0  0
  9 11  1  0  0  0  0
  7 12  1  0  0  0  0
 12 13  1  0  0  0  0
M  END
> <VConfSearch Rank>
753

> <Conf_Id>
20

> <Delta U+W>
1.030

> <U+W>
-2.101

> <U>
0.841

> <W>
-2.942

> <W(PB)>
-4.530

> <W(SA)>
1.587

> <Valence>
6.736

> <Coulomb>
-7.246

> <VdW>
1.352

> <VdW6>
-2.500

> <VdW12>
3.851

> <Bond>
0.063

> <Angle>
0.687

> <Pdih>
5.986

> <Idih>
0.000

> <Tether>
0.000

$$$$
VeraChem MOL file


 13 13  0  0  0  0  0  0  0  0999 V2000     
   20.9964   19.2359   22.2511 C   0  0  0  0  0  0  0  0  0  0  0  0
   21.3118   20.0945   22.8586 H   0  0  0  0  0  0  0  0  0  0  0  0
   21.8845   18.7899   21.7878 H   0  0  0  0  0  0  0  0  0  0  0  0
   19.7911   19.5189   21.2948 C   0  0  0  0  0  0  0  0  0  0  0  0
   19.7235   20.5356   20.8922 H   0  0  0  0  0  0  0  0  0  0  0  0
   19.6855   18.8054   20.4683 H   0  0  0  0  0  0  0  0  0  0  0  0
   18.8956   19.2214   22.5352 C   0  0  0  0  0  0  0  0  0  0  0  0
   18.7664   20.0814   23.2063 H   0  0  0  0  0  0  0  0  0  0  0  0
   20.0271   18.2438   22.9747 C   0  0  0  0  0  0  0  0  0  0  0  0
   19.9742   17.2452   22.5237 H   0  0  0  0  0  0  0  0  0  0  0  0
   20.1679   18.1342   24.0556 H   0  0  0  0  0  0  0  0  0  0  0  0
   17.6536   18.6212   22.2541 O   0  0  0  0  0  0  0  0  0  0  0  0
   17.8309   17.8655   21.6556 H   0  0  0  0  0  0  0  0  0  0  0  0
  1  2  1  0  0  0  0
  1  3  1  0  0  0  0
  1  4  1  0  0  0  0
  4  5  1  0  0  0  0
  4  6  1  0  0  0  0
  4  7  1  0  0  0  0
  7  8  1  0  0  0  0
  1  9  1  0  0  0  0
  7  9  1  0  0  0  0
  9 10  1  0  0  0  0
  9 11  1  0  0  0  0
  7 12  1  0  0  0  0
 12 13  1  0  0  0  0
M  END
> <VConfSearch Rank>
754

> <Conf_Id>
24

> <Delta U+W>
0.356

> <U+W>
-2.775

> <U>
-0.184

> <W>
-2.591

> <W(PB)>
-4.184

> <W(SA)>
1.593

> <Valence>
6.840

> <Coulomb>
-7.916

> <VdW>
0.893

> <VdW6>
-2.167

> <VdW12>
3.060

> <Bond>
0.059

> <Angle>
0.918

> <Pdih>
5.862

> <Idih>
0.000

> <Tether>
0.000

$$$$
VeraChem MOL file


 13 13  0  0  0  0  0  0  0  0999 V2000     
   19.8869   19.2739   21.1431 C   0  0  0  0  0  0  0  0  0  0  0  0
   19.9122   18.9471   20.0967 H   0  0  0  0  0  0  0  0  0  0  0  0
   20.1628   20.3353   21.1815 H   0  0  0  0  0  0  0  0  0  0  0  0
   20.6433   18.3596   22.1639 C   0  0  0  0  0  0  0  0  0  0  0  0
   20.6632   17.2970   21.8926 H   0  0  0  0  0  0  0  0  0  0  0  0
   21.6600   18.6701   22.4296 H   0  0  0  0  0  0  0  0  0  0  0  0
   19.5267   18.7343   23.1869 C   0  0  0  0  0  0  0  0  0  0  0  0
   19.2405   17.9268   23.8729 H   0  0  0  0  0  0  0  0  0  0  0  0
   18.5961   18.8996   21.9457 C   0  0  0  0  0  0  0  0  0  0  0  0
   18.1141   17.9695   21.6208 H   0  0  0  0  0  0  0  0  0  0  0  0
   17.8309   19.6802   22.0214 H   0  0  0  0  0  0  0  0  0  0  0  0
   19.7627   19.9220   23.9117 O   0  0  0  0  0  0  0  0  0  0  0  0
   20.0125   20.6025   23.2530 H   0  0  0  0  0  0  0  0  0  0  0  0
  1  2  1  0  0  0  0
  1  3  1  0  0  0  0
  1  4  1  0  0  0  0
  4  5  1  0  0  0  0
  4  6  1  0  0  0  0
  4  7  1  0  0  0  0
  7  8  1  0  0  0  0
  1  9  1  0  0  0  0
  7  9  1  0  0  0  0
  9 10  1  0  0  0  0
  9 11  1  0  0  0  0
  7 12  1  0  0  0  0
 12 13  1  0  0  0  0
M  END
> <VConfSearch Rank>
755

> <Conf_Id>
44

> <Delta U+W>
0.823

> <U+W>
-2.308

> <U>
0.039

> <W>
-2.348

> <W(PB)>
-3.918

> <W(SA)>
1.571

> <Valence>
7.320

> <Coulomb>
-8.530

> <VdW>
1.249

> <VdW6>
-2.615

> <VdW12>
3.864

> <Bond>
0.056

> <Angle>
0.694

> <Pdih>
6.570

> <Idih>
0.000

> <Tether>
0.000

$$$$
VeraChem MOL file


 13 13  0  0  0  0  0  0  0  0999 V2000     
   19.4326   17.7478   22.1541 C   0  0  0  0  0  0  0  0  0  0  0  0
   18.8530   17.4725   21.2632 H   0  0  0  0  0  0  0  0  0  0  0  0
   19.6988   16.8322   22.6957 H   0  0  0  0  0  0  0  0  0  0  0  0
   18.8073   18.8964   23.0125 C   0  0  0  0  0  0  0  0  0  0  0  0
   17.7131   18.9455   23.0312 H   0  0  0  0  0  0  0  0  0  0  0  0
   19.1809   18.9565   24.0423 H   0  0  0  0  0  0  0  0  0  0  0  0
   19.5120   19.8623   22.0128 C   0  0  0  0  0  0  0  0  0  0  0  0
   18.9442   20.0339   21.0881 H   0  0  0  0  0  0  0  0  0  0  0  0
   20.6010   18.7540   21.8899 C   0  0  0  0  0  0  0  0  0  0  0  0
   21.0944   18.6748   20.9150 H   0  0  0  0  0  0  0  0  0  0  0  0
   21.3687   18.7805   22.6733 H   0  0  0  0  0  0  0  0  0  0  0  0
   19.9527   21.0820   22.5629 O   0  0  0  0  0  0  0  0  0  0  0  0
   20.5140   21.5196   21.8872 H   0  0  0  0  0  0  0  0  0  0  0  0
  1  2  1  0  0  0  0
  1  3  1  0  0  0  0
  1  4  1  0  0  0  0
  4  5  1  0  0  0  0
  4  6  1  0  0  0  0
  4  7  1  0  0  0  0
  7  8  1  0  0  0  0
  1  9  1  0  0  0  0
  7  9  1  0  0  0  0
  9 10  1  0  0  0  0
  9 11  1  0  0  0  0
  7 12  1  0  0  0  0
 12 13  1  0  0  0  0
M  END
> <VConfSearch Rank>
756

> <Conf_Id>
22

> <Delta U+W>
0.000

> <U+W>
-3.131

> <U>
-0.154

> <W>
-2.978

> <W(PB)>
-4.579

> <W(SA)>
1.601

> <Valence>
6.333

> <Coulomb>
-7.439

> <VdW>
0.952

> <VdW6>
-2.120

> <VdW12>
3.072

> <Bond>
0.065

> <Angle>
0.931

> <Pdih>
5.338

> <Idih>
0.000

> <Tether>
0.000

$$$$
VeraChem MOL file


 13 13  0  0  0  0  0  0  0  0999 V2000     
   18.8237   19.1964   21.2365 C   0  0  0  0  0  0  0  0  0  0  0  0
   18.4149   18.3002   20.7514 H   0  0  0  0  0  0  0  0  0  0  0  0
   18.4721   20.0808   20.6919 H   0  0  0  0  0  0  0  0  0  0  0  0
   20.3585   19.1376   21.5336 C   0  0  0  0  0  0  0  0  0  0  0  0
   20.8297   20.1136   21.7046 H   0  0  0  0  0  0  0  0  0  0  0  0
   20.9668   18.5727   20.8187 H   0  0  0  0  0  0  0  0  0  0  0  0
   19.9545   18.3771   22.8326 C   0  0  0  0  0  0  0  0  0  0  0  0
   19.7815   17.3023   22.6846 H   0  0  0  0  0  0  0  0  0  0  0  0
   18.6536   19.2343   22.7912 C   0  0  0  0  0  0  0  0  0  0  0  0
   18.7512   20.2305   23.2402 H   0  0  0  0  0  0  0  0  0  0  0  0
   17.7539   18.7541   23.1911 H   0  0  0  0  0  0  0  0  0  0  0  0
   20.7879   18.6010   23.9461 O   0  0  0  0  0  0  0  0  0  0  0  0
   21.6338   18.1338   23.7745 H   0  0  0  0  0  0  0  0  0  0  0  0
  1  2  1  0  0  0  0
  1  3  1  0  0  0  0
  1  4  1  0  0  0  0
  4  5  1  0  0  0  0
  4  6  1  0  0  0  0
  4  7  1  0  0  0  0
  7  8  1  0  0  0  0
  1  9  1  0  0  0  0
  7  9  1  0  0  0  0
  9 10  1  0  0  0  0
  9 11  1  0  0  0  0
  7 12  1  0  0  0  0
 12 13  1  0  0  0  0
M  END
> <VConfSearch Rank>
757

> <Conf_Id>
19

> <Delta U+W>
-0.011

> <U+W>
-3.142

> <U>
-0.154

> <W>
-2.989

> <W(PB)>
-4.588

> <W(SA)>
1.599

> <Valence>
6.334

> <Coulomb>
-7.439

> <VdW>
0.951

> <VdW6>
-2.120

> <VdW12>
3.072

> <Bond>
0.065

> <Angle>
0.930

> <Pdih>
5.339

> <Idih>
0.000

> <Tether>
0.000

$$$$
VeraChem MOL file


 13 13  0  0  0  0  0  0  0  0999 V2000     
   19.5021   17.9183   21.8209 C   0  0  0  0  0  0  0  0  0  0  0  0
   19.8776   16.8886   21.8472 H   0  0  0  0  0  0  0  0  0  0  0  0
   18.6216   17.9542   21.1661 H   0  0  0  0  0  0  0  0  0  0  0  0
   20.5654   19.0319   21.5412 C   0  0  0  0  0  0  0  0  0  0  0  0
   21.5719   18.8034   21.9121 H   0  0  0  0  0  0  0  0  0  0  0  0
   20.6435   19.3728   20.5029 H   0  0  0  0  0  0  0  0  0  0  0  0
   19.7247   19.9404   22.4917 C   0  0  0  0  0  0  0  0  0  0  0  0
   20.3169   20.6302   23.1067 H   0  0  0  0  0  0  0  0  0  0  0  0
   19.3102   18.6170   23.2078 C   0  0  0  0  0  0  0  0  0  0  0  0
   18.2961   18.5926   23.6218 H   0  0  0  0  0  0  0  0  0  0  0  0
   20.0125   18.2873   23.9831 H   0  0  0  0  0  0  0  0  0  0  0  0
   18.6662   20.6375   21.8657 O   0  0  0  0  0  0  0  0  0  0  0  0
   18.1131   21.0256   22.5768 H   0  0  0  0  0  0  0  0  0  0  0  0
  1  2  1  0  0  0  0
  1  3  1  0  0  0  0
  1  4  1  0  0  0  0
  4  5  1  0  0  0  0
  4  6  1  0  0  0  0
  4  7  1  0  0  0  0
  7  8  1  0  0  0  0
  1  9  1  0  0  0  0
  7  9  1  0  0  0  0
  9 10  1  0  0  0  0
  9 11  1  0  0  0  0
  7 12  1  0  0  0  0
 12 13  1  0  0  0  0
M  END
> <VConfSearch Rank>
758

> <Conf_Id>
20

> <Delta U+W>
1.030

> <U+W>
-2.101

> <U>
0.841

> <W>
-2.942

> <W(PB)>
-4.530

> <W(SA)>
1.587

> <Valence>
6.736

> <Coulomb>
-7.246

> <VdW>
1.352

> <VdW6>
-2.500

> <VdW12>
3.851

> <Bond>
0.063

> <Angle>
0.687

> <Pdih>
5.986

> <Idih>
0.000

> <Tether>
0.000

$$$$
VeraChem MOL file


 13 13  0  0  0  0  0  0  0  0999 V2000     
   19.4390   20.1555   21.8918 C   0  0  0  0  0  0  0  0  0  0  0  0
   18.3753   20.4270   21.8708 H   0  0  0  0  0  0  0  0  0  0  0  0
   20.0305   21.0364   21.6149 H   0  0  0  0  0  0  0  0  0  0  0  0
   19.7902   18.8284   21.1417 C   0  0  0  0  0  0  0  0  0  0  0  0
   19.1769   18.5934   20.2648 H   0  0  0  0  0  0  0  0  0  0  0  0
   20.8478   18.7225   20.8701 H   0  0  0  0  0  0  0  0  0  0  0  0
   19.3796   18.1156   22.4654 C   0  0  0  0  0  0  0  0  0  0  0  0
   18.2976   17.9550   22.5662 H   0  0  0  0  0  0  0  0  0  0  0  0
   19.8956   19.3993   23.1829 C   0  0  0  0  0  0  0  0  0  0  0  0
   20.9767   19.4210   23.3676 H   0  0  0  0  0  0  0  0  0  0  0  0
   19.3754   19.6685   24.1087 H   0  0  0  0  0  0  0  0  0  0  0  0
   20.0855   16.9336   22.7596 O   0  0  0  0  0  0  0  0  0  0  0  0
   21.0385   17.1366   22.6536 H   0  0  0  0  0  0  0  0  0  0  0  0
  1  2  1  0  0  0  0
  1  3  1  0  0  0  0
  1  4  1  0  0  0  0
  4  5  1  0  0  0  0
  4  6  1  0  0  0  0
  4  7  1  0  0  0  0
  7  8  1  0  0  0  0
  1  9  1  0  0  0  0
  7  9  1  0  0  0  0
  9 10  1  0  0  0  0
  9 11  1  0  0  0  0
  7 12  1  0  0  0  0
 12 13  1  0  0  0  0
M  END
> <VConfSearch Rank>
759

> <Conf_Id>
24

> <Delta U+W>
0.356

> <U+W>
-2.775

> <U>
-0.184

> <W>
-2.591

> <W(PB)>
-4.184

> <W(SA)>
1.593

> <Valence>
6.840

> <Coulomb>
-7.916

> <VdW>
0.893

> <VdW6>
-2.167

> <VdW12>
3.060

> <Bond>
0.059

> <Angle>
0.918

> <Pdih>
5.862

> <Idih>
0.000

> <Tether>
0.000

$$$$
VeraChem MOL file


 13 13  0  0  0  0  0  0  0  0999 V2000     
   20.7840   19.2465   22.1981 C   0  0  0  0  0  0  0  0  0  0  0  0
   21.5291   20.0128   22.4430 H   0  0  0  0  0  0  0  0  0  0  0  0
   21.3038   18.3855   21.7590 H   0  0  0  0  0  0  0  0  0  0  0  0
   19.5335   19.7397   21.3961 C   0  0  0  0  0  0  0  0  0  0  0  0
   19.2461   20.7787   21.5984 H   0  0  0  0  0  0  0  0  0  0  0  0
   19.5667   19.5927   20.3108 H   0  0  0  0  0  0  0  0  0  0  0  0
   18.7147   18.6845   22.2023 C   0  0  0  0  0  0  0  0  0  0  0  0
   17.6935   18.9929   22.4605 H   0  0  0  0  0  0  0  0  0  0  0  0
   19.7676   18.8925   23.3346 C   0  0  0  0  0  0  0  0  0  0  0  0
   19.5376   19.7237   24.0122 H   0  0  0  0  0  0  0  0  0  0  0  0
   20.0046   18.0080   23.9366 H   0  0  0  0  0  0  0  0  0  0  0  0
   18.6998   17.3907   21.6387 O   0  0  0  0  0  0  0  0  0  0  0  0
   19.6309   17.1698   21.4297 H   0  0  0  0  0  0  0  0  0  0  0  0
  1  2  1  0  0  0  0
  1  3  1  0  0  0  0
  1  4  1  0  0  0  0
  4  5  1  0  0  0  0
  4  6  1  0  0  0  0
  4  7  1  0  0  0  0
  7  8  1  0  0  0  0
  1  9  1  0  0  0  0
  7  9  1  0  0  0  0
  9 10  1  0  0  0  0
  9 11  1  0  0  0  0
  7 12  1  0  0  0  0
 12 13  1  0  0  0  0
M  END
> <VConfSearch Rank>
760

> <Conf_Id>
44

> <Delta U+W>
0.823

> <U+W>
-2.308

> <U>
0.039

> <W>
-2.348

> <W(PB)>
-3.918

> <W(SA)>
1.571

> <Valence>
7.320

> <Coulomb>
-8.530

> <VdW>
1.249

> <VdW6>
-2.615

> <VdW12>
3.864

> <Bond>
0.056

> <Angle>
0.694

> <Pdih>
6.570

> <Idih>
0.000

> <Tether>
0.000

$$$$
VeraChem MOL file


 13 13  0  0  0  0  0  0  0  0999 V2000     
   18.3685   19.2580   22.3412 C   0  0  0  0  0  0  0  0  0  0  0  0
   18.0397   20.1729   21.8310 H   0  0  0  0  0  0  0  0  0  0  0  0
   17.4874   18.7479   22.7484 H   0  0  0  0  0  0  0  0  0  0  0  0
   19.5664   19.4535   23.3282 C   0  0  0  0  0  0  0  0  0  0  0  0
   19.6159   20.4188   23.8435 H   0  0  0  0  0  0  0  0  0  0  0  0
   19.6886   18.6521   24.0674 H   0  0  0  0  0  0  0  0  0  0  0  0
   20.4707   19.3116   22.0668 C   0  0  0  0  0  0  0  0  0  0  0  0
   20.5860   20.2441   21.4975 H   0  0  0  0  0  0  0  0  0  0  0  0
   19.3577   18.3687   21.5178 C   0  0  0  0  0  0  0  0  0  0  0  0
   19.2203   18.3739   20.4309 H   0  0  0  0  0  0  0  0  0  0  0  0
   19.4318   17.3288   21.8595 H   0  0  0  0  0  0  0  0  0  0  0  0
   21.7216   18.7026   22.2880 O   0  0  0  0  0  0  0  0  0  0  0  0
   22.1181   18.5251   21.4080 H   0  0  0  0  0  0  0  0  0  0  0  0
  1  2  1  0  0  0  0
  1  3  1  0  0  0  0
  1  4  1  0  0  0  0
  4  5  1  0  0  0  0
  4  6  1  0  0  0  0
  4  7  1  0  0  0  0
  7  8  1  0  0  0  0
  1  9  1  0  0  0  0
  7  9  1  0  0  0  0
  9 10  1  0  0  0  0
  9 11  1  0  0  0  0
  7 12  1  0  0  0  0
 12 13  1  0  0  0  0
M  END
> <VConfSearch Rank>
761

> <Conf_Id>
22

> <Delta U+W>
0.000

> <U+W>
-3.131

> <U>
-0.154

> <W>
-2.978

> <W(PB)>
-4.579

> <W(SA)>
1.601

> <Valence>
6.333

> <Coulomb>
-7.439

> <VdW>
0.952

> <VdW6>
-2.120

> <VdW12>
3.072

> <Bond>
0.065

> <Angle>
0.931

> <Pdih>
5.338

> <Idih>
0.000

> <Tether>
0.000

$$$$
VeraChem MOL file


 13 13  0  0  0  0  0  0  0  0999 V2000     
   19.1430   18.0136   21.4257 C   0  0  0  0  0  0  0  0  0  0  0  0
   18.3413   18.3918   20.7778 H   0  0  0  0  0  0  0  0  0  0  0  0
   19.2748   16.9426   21.2312 H   0  0  0  0  0  0  0  0  0  0  0  0
   19.0206   18.4289   22.9290 C   0  0  0  0  0  0  0  0  0  0  0  0
   19.6017   17.8100   23.6240 H   0  0  0  0  0  0  0  0  0  0  0  0
   18.0023   18.5355   23.3185 H   0  0  0  0  0  0  0  0  0  0  0  0
   19.7244   19.7502   22.4951 C   0  0  0  0  0  0  0  0  0  0  0  0
   19.0429   20.4992   22.0689 H   0  0  0  0  0  0  0  0  0  0  0  0
   20.4472   18.8775   21.4252 C   0  0  0  0  0  0  0  0  0  0  0  0
   21.3423   18.3591   21.7908 H   0  0  0  0  0  0  0  0  0  0  0  0
   20.6922   19.3830   20.4847 H   0  0  0  0  0  0  0  0  0  0  0  0
   20.5642   20.3323   23.4649 O   0  0  0  0  0  0  0  0  0  0  0  0
   19.9853   20.7108   24.1612 H   0  0  0  0  0  0  0  0  0  0  0  0
  1  2  1  0  0  0  0
  1  3  1  0  0  0  0
  1  4  1  0  0  0  0
  4  5  1  0  0  0  0
  4  6  1  0  0  0  0
  4  7  1  0  0  0  0
  7  8  1  0  0  0  0
  1  9  1  0  0  0  0
  7  9  1  0  0  0  0
  9 10  1  0  0  0  0
  9 11  1  0  0  0  0
  7 12  1  0  0  0  0
 12 13  1  0  0  0  0
M  END
> <VConfSearch Rank>
762

> <Conf_Id>
19

> <Delta U+W>
-0.011

> <U+W>
-3.142

> <U>
-0.154

> <W>
-2.989

> <W(PB)>
-4.588

> <W(SA)>
1.599

> <Valence>
6.334

> <Coulomb>
-7.439

> <VdW>
0.951

> <VdW6>
-2.120

> <VdW12>
3.072

> <Bond>
0.065

> <Angle>
0.930

> <Pdih>
5.339

> <Idih>
0.000

> <Tether>
0.000

$$$$
VeraChem MOL file


 13 13  0  0  0  0  0  0  0  0999 V2000     
   19.0794   18.8303   23.3581 C   0  0  0  0  0  0  0  0  0  0  0  0
   18.3141   18.2352   23.8702 H   0  0  0  0  0  0  0  0  0  0  0  0
   19.6106   19.4358   24.1040 H   0  0  0  0  0  0  0  0  0  0  0  0
   18.6040   19.6243   22.0962 C   0  0  0  0  0  0  0  0  0  0  0  0
   17.7880   19.1477   21.5395 H   0  0  0  0  0  0  0  0  0  0  0  0
   18.3494   20.6775   22.2581 H   0  0  0  0  0  0  0  0  0  0  0  0
   20.0235   19.3525   21.5076 C   0  0  0  0  0  0  0  0  0  0  0  0
   20.0443   19.1850   20.4231 H   0  0  0  0  0  0  0  0  0  0  0  0
   20.0100   18.0517   22.3700 C   0  0  0  0  0  0  0  0  0  0  0  0
   20.9778   17.7325   22.7724 H   0  0  0  0  0  0  0  0  0  0  0  0
   19.5347   17.1932   21.8800 H   0  0  0  0  0  0  0  0  0  0  0  0
   21.0088   20.2991   21.8700 O   0  0  0  0  0  0  0  0  0  0  0  0
   21.8770   19.9348   21.5948 H   0  0  0  0  0  0  0  0  0  0  0  0
  1  2  1  0  0  0  0
  1  3  1  0  0  0  0
  1  4  1  0  0  0  0
  4  5  1  0  0  0  0
  4  6  1  0  0  0  0
  4  7  1  0  0  0  0
  7  8  1  0  0  0  0
  1  9  1  0  0  0  0
  7  9  1  0  0  0  0
  9 10  1  0  0  0  0
  9 11  1  0  0  0  0
  7 12  1  0  0  0  0
 12 13  1  0  0  0  0
M  END
> <VConfSearch Rank>
763

> <Conf_Id>
20

> <Delta U+W>
1.030

> <U+W>
-2.101

> <U>
0.841

> <W>
-2.942

> <W(PB)>
-4.530

> <W(SA)>
1.587

> <Valence>
6.736

> <Coulomb>
-7.246

> <VdW>
1.352

> <VdW6>
-2.500

> <VdW12>
3.851

> <Bond>
0.063

> <Angle>
0.687

> <Pdih>
5.986

> <Idih>
0.000

> <Tether>
0.000

$$$$
VeraChem MOL file


 13 13  0  0  0  0  0  0  0  0999 V2000     
   19.9521   19.4283   21.0395 C   0  0  0  0  0  0  0  0  0  0  0  0
   20.4422   20.4075   20.9588 H   0  0  0  0  0  0  0  0  0  0  0  0
   19.7380   19.0597   20.0292 H   0  0  0  0  0  0  0  0  0  0  0  0
   18.7653   19.3729   22.0572 C   0  0  0  0  0  0  0  0  0  0  0  0
   18.1822   20.2937   22.1685 H   0  0  0  0  0  0  0  0  0  0  0  0
   18.0739   18.5343   21.9085 H   0  0  0  0  0  0  0  0  0  0  0  0
   19.8633   19.1325   23.1369 C   0  0  0  0  0  0  0  0  0  0  0  0
   20.3372   20.0542   23.5013 H   0  0  0  0  0  0  0  0  0  0  0  0
   20.6607   18.4199   22.0031 C   0  0  0  0  0  0  0  0  0  0  0  0
   20.3929   17.3683   21.8422 H   0  0  0  0  0  0  0  0  0  0  0  0
   21.7516   18.4990   22.0666 H   0  0  0  0  0  0  0  0  0  0  0  0
   19.4815   18.3119   24.2151 O   0  0  0  0  0  0  0  0  0  0  0  0
   19.0677   17.5106   23.8311 H   0  0  0  0  0  0  0  0  0  0  0  0
  1  2  1  0  0  0  0
  1  3  1  0  0  0  0
  1  4  1  0  0  0  0
  4  5  1  0  0  0  0
  4  6  1  0  0  0  0
  4  7  1  0  0  0  0
  7  8  1  0  0  0  0
  1  9  1  0  0  0  0
  7  9  1  0  0  0  0
  9 10  1  0  0  0  0
  9 11  1  0  0  0  0
  7 12  1  0  0  0  0
 12 13  1  0  0  0  0
M  END
> <VConfSearch Rank>
764

> <Conf_Id>
24

> <Delta U+W>
0.356

> <U+W>
-2.775

> <U>
-0.184

> <W>
-2.591

> <W(PB)>
-4.184

> <W(SA)>
1.593

> <Valence>
6.840

> <Coulomb>
-7.916

> <VdW>
0.893

> <VdW6>
-2.167

> <VdW12>
3.060

> <Bond>
0.059

> <Angle>
0.918

> <Pdih>
5.862

> <Idih>
0.000

> <Tether>
0.000

$$$$
VeraChem MOL file


 13 13  0  0  0  0  0  0  0  0999 V2000     
   20.2841   18.2174   21.6181 C   0  0  0  0  0  0  0  0  0  0  0  0
   20.3694   17.1676   21.3131 H   0  0  0  0  0  0  0  0  0  0  0  0
   21.1127   18.7778   21.1666 H   0  0  0  0  0  0  0  0  0  0  0  0
   20.0749   18.4704   23.1485 C   0  0  0  0  0  0  0  0  0  0  0  0
   19.5307   17.6732   23.6696 H   0  0  0  0  0  0  0  0  0  0  0  0
   20.9742   18.7127   23.7257 H   0  0  0  0  0  0  0  0  0  0  0  0
   19.1844   19.6822   22.7330 C   0  0  0  0  0  0  0  0  0  0  0  0
   18.3189   19.8624   23.3833 H   0  0  0  0  0  0  0  0  0  0  0  0
   18.8727   18.8697   21.4381 C   0  0  0  0  0  0  0  0  0  0  0  0
   18.0338   18.1705   21.5397 H   0  0  0  0  0  0  0  0  0  0  0  0
   18.7257   19.4596   20.5264 H   0  0  0  0  0  0  0  0  0  0  0  0
   19.8872   20.8874   22.5203 O   0  0  0  0  0  0  0  0  0  0  0  0
   20.6431   20.6672   21.9377 H   0  0  0  0  0  0  0  0  0  0  0  0
  1  2  1  0  0  0  0
  1  3  1  0  0  0  0
  1  4  1  0  0  0  0
  4  5  1  0  0  0  0
  4  6  1  0  0  0  0
  4  7  1  0  0  0  0
  7  8  1  0  0  0  0
  1  9  1  0  0  0  0
  7  9  1  0  0  0  0
  9 10  1  0  0  0  0
  9 11  1  0  0  0  0
  7 12  1  0  0  0  0
 12 13  1  0  0  0  0
M  END
> <VConfSearch Rank>
765

> <Conf_Id>
44

> <Delta U+W>
0.823

> <U+W>
-2.308

> <U>
0.039

> <W>
-2.348

> <W(PB)>
-3.918

> <W(SA)>
1.571

> <Valence>
7.320

> <Coulomb>
-8.530

> <VdW>
1.249

> <VdW6>
-2.615

> <VdW12>
3.864

> <Bond>
0.056

> <Angle>
0.694

> <Pdih>
6.570

> <Idih>
0.000

> <Tether>
0.000

$$$$
VeraChem MOL file


 13 13  0  0  0  0  0  0  0  0999 V2000     
   20.4740   19.8732   21.6151 C   0  0  0  0  0  0  0  0  0  0  0  0
   20.4477   20.8963   22.0128 H   0  0  0  0  0  0  0  0  0  0  0  0
   21.2235   19.8270   20.8160 H   0  0  0  0  0  0  0  0  0  0  0  0
   19.0723   19.2658   21.2781 C   0  0  0  0  0  0  0  0  0  0  0  0
   18.3101   19.9717   20.9306 H   0  0  0  0  0  0  0  0  0  0  0  0
   19.0953   18.4070   20.5958 H   0  0  0  0  0  0  0  0  0  0  0  0
   19.0078   18.8884   22.7889 C   0  0  0  0  0  0  0  0  0  0  0  0
   18.6689   19.7089   23.4362 H   0  0  0  0  0  0  0  0  0  0  0  0
   20.5578   18.7505   22.7014 C   0  0  0  0  0  0  0  0  0  0  0  0
   21.1121   19.0014   23.6124 H   0  0  0  0  0  0  0  0  0  0  0  0
   20.9088   17.7795   22.3304 H   0  0  0  0  0  0  0  0  0  0  0  0
   18.3125   17.6991   23.0834 O   0  0  0  0  0  0  0  0  0  0  0  0
   18.4821   17.4893   24.0270 H   0  0  0  0  0  0  0  0  0  0  0  0
  1  2  1  0  0  0  0
  1  3  1  0  0  0  0
  1  4  1  0  0  0  0
  4  5  1  0  0  0  0
  4  6  1  0  0  0  0
  4  7  1  0  0  0  0
  7  8  1  0  0  0  0
  1  9  1  0  0  0  0
  7  9  1  0  0  0  0
  9 10  1  0  0  0  0
  9 11  1  0  0  0  0
  7 12  1  0  0  0  0
 12 13  1  0  0  0  0
M  END
> <VConfSearch Rank>
766

> <Conf_Id>
22

> <Delta U+W>
0.000

> <U+W>
-3.131

> <U>
-0.154

> <W>
-2.978

> <W(PB)>
-4.579

> <W(SA)>
1.601

> <Valence>
6.333

> <Coulomb>
-7.439

> <VdW>
0.952

> <VdW6>
-2.120

> <VdW12>
3.072

> <Bond>
0.065

> <Angle>
0.931

> <Pdih>
5.338

> <Idih>
0.000

> <Tether>
0.000

$$$$
VeraChem MOL file


 13 13  0  0  0  0  0  0  0  0999 V2000     
   20.3385   19.9158   21.7377 C   0  0  0  0  0  0  0  0  0  0  0  0
   20.1127   20.8911   22.1887 H   0  0  0  0  0  0  0  0  0  0  0  0
   21.0734   20.0616   20.9371 H   0  0  0  0  0  0  0  0  0  0  0  0
   19.0828   19.0583   21.3698 C   0  0  0  0  0  0  0  0  0  0  0  0
   19.2710   18.2590   20.6422 H   0  0  0  0  0  0  0  0  0  0  0  0
   18.1924   19.6158   21.0589 H   0  0  0  0  0  0  0  0  0  0  0  0
   19.1115   18.5986   22.8588 C   0  0  0  0  0  0  0  0  0  0  0  0
   18.6259   19.2997   23.5514 H   0  0  0  0  0  0  0  0  0  0  0  0
   20.6566   18.7784   22.7635 C   0  0  0  0  0  0  0  0  0  0  0  0
   21.1894   17.9162   22.3435 H   0  0  0  0  0  0  0  0  0  0  0  0
   21.1581   19.0866   23.6873 H   0  0  0  0  0  0  0  0  0  0  0  0
   18.6717   17.2806   23.0912 O   0  0  0  0  0  0  0  0  0  0  0  0
   17.6982   17.2728   22.9670 H   0  0  0  0  0  0  0  0  0  0  0  0
  1  2  1  0  0  0  0
  1  3  1  0  0  0  0
  1  4  1  0  0  0  0
  4  5  1  0  0  0  0
  4  6  1  0  0  0  0
  4  7  1  0  0  0  0
  7  8  1  0  0  0  0
  1  9  1  0  0  0  0
  7  9  1  0  0  0  0
  9 10  1  0  0  0  0
  9 11  1  0  0  0  0
  7 12  1  0  0  0  0
 12 13  1  0  0  0  0
M  END
> <VConfSearch Rank>
767

> <Conf_Id>
19

> <Delta U+W>
-0.011

> <U+W>
-3.142

> <U>
-0.154

> <W>
-2.989

> <W(PB)>
-4.588

> <W(SA)>
1.599

> <Valence>
6.334

> <Coulomb>
-7.439

> <VdW>
0.951

> <VdW6>
-2.120

> <VdW12>
3.072

> <Bond>
0.065

> <Angle>
0.930

> <Pdih>
5.339

> <Idih>
0.000

> <Tether>
0.000

$$$$
VeraChem MOL file


 13 13  0  0  0  0  0  0  0  0999 V2000     
   20.4486   18.8263   21.3861 C   0  0  0  0  0  0  0  0  0  0  0  0
   21.3536   19.1846   20.8816 H   0  0  0  0  0  0  0  0  0  0  0  0
   20.1829   17.8438   20.9745 H   0  0  0  0  0  0  0  0  0  0  0  0
   19.2589   19.8396   21.4679 C   0  0  0  0  0  0  0  0  0  0  0  0
   19.5609   20.8925   21.5227 H   0  0  0  0  0  0  0  0  0  0  0  0
   18.4853   19.7365   20.6989 H   0  0  0  0  0  0  0  0  0  0  0  0
   18.9300   19.1958   22.8509 C   0  0  0  0  0  0  0  0  0  0  0  0
   18.5500   19.8987   23.6035 H   0  0  0  0  0  0  0  0  0  0  0  0
   20.4584   18.8955   22.9493 C   0  0  0  0  0  0  0  0  0  0  0  0
   20.7334   17.9712   23.4694 H   0  0  0  0  0  0  0  0  0  0  0  0
   21.0520   19.7196   23.3634 H   0  0  0  0  0  0  0  0  0  0  0  0
   18.0994   18.0535   22.7928 O   0  0  0  0  0  0  0  0  0  0  0  0
   18.1083   17.6421   23.6832 H   0  0  0  0  0  0  0  0  0  0  0  0
  1  2  1  0  0  0  0
  1  3  1  0  0  0  0
  1  4  1  0  0  0  0
  4  5  1  0  0  0  0
  4  6  1  0  0  0  0
  4  7  1  0  0  0  0
  7  8  1  0  0  0  0
  1  9  1  0  0  0  0
  7  9  1  0  0  0  0
  9 10  1  0  0  0  0
  9 11  1  0  0  0  0
  7 12  1  0  0  0  0
 12 13  1  0  0  0  0
M  END
> <VConfSearch Rank>
768

> <Conf_Id>
20

> <Delta U+W>
1.030

> <U+W>
-2.101

> <U>
0.841

> <W>
-2.942

> <W(PB)>
-4.530

> <W(SA)>
1.587

> <Valence>
6.736

> <Coulomb>
-7.246

> <VdW>
1.352

> <VdW6>
-2.500

> <VdW12>
3.851

> <Bond>
0.063

> <Angle>
0.687

> <Pdih>
5.986

> <Idih>
0.000

> <Tether>
0.000

$$$$
VeraChem MOL file


 13 13  0  0  0  0  0  0  0  0999 V2000     
   19.5787   18.5713   21.0003 C   0  0  0  0  0  0  0  0  0  0  0  0
   20.4633   18.2539   20.4326 H   0  0  0  0  0  0  0  0  0  0  0  0
   18.6974   18.4814   20.3541 H   0  0  0  0  0  0  0  0  0  0  0  0
   19.7403   19.9311   21.7568 C   0  0  0  0  0  0  0  0  0  0  0  0
   20.3863   20.6753   21.2782 H   0  0  0  0  0  0  0  0  0  0  0  0
   18.7959   20.4134   22.0377 H   0  0  0  0  0  0  0  0  0  0  0  0
   20.4038   19.0842   22.8845 C   0  0  0  0  0  0  0  0  0  0  0  0
   21.4684   18.8741   22.7141 H   0  0  0  0  0  0  0  0  0  0  0  0
   19.4537   17.9373   22.4250 C   0  0  0  0  0  0  0  0  0  0  0  0
   18.4453   17.9740   22.8552 H   0  0  0  0  0  0  0  0  0  0  0  0
   19.8467   16.9207   22.5365 H   0  0  0  0  0  0  0  0  0  0  0  0
   20.1948   19.5535   24.1952 O   0  0  0  0  0  0  0  0  0  0  0  0
   19.2338   19.7227   24.2879 H   0  0  0  0  0  0  0  0  0  0  0  0
  1  2  1  0  0  0  0
  1  3  1  0  0  0  0
  1  4  1  0  0  0  0
  4  5  1  0  0  0  0
  4  6  1  0  0  0  0
  4  7  1  0  0  0  0
  7  8  1  0  0  0  0
  1  9  1  0  0  0  0
  7  9  1  0  0  0  0
  9 10  1  0  0  0  0
  9 11  1  0  0  0  0
  7 12  1  0  0  0  0
 12 13  1  0  0  0  0
M  END
> <VConfSearch Rank>
769

> <Conf_Id>
24

> <Delta U+W>
0.356

> <U+W>
-2.775

> <U>
-0.184

> <W>
-2.591

> <W(PB)>
-4.184

> <W(SA)>
1.593

> <Valence>
6.840

> <Coulomb>
-7.916

> <VdW>
0.893

> <VdW6>
-2.167

> <VdW12>
3.060

> <Bond>
0.059

> <Angle>
0.918

> <Pdih>
5.862

> <Idih>
0.000

> <Tether>
0.000

$$$$
VeraChem MOL file


 13 13  0  0  0  0  0  0  0  0999 V2000     
   19.7682   18.3367   21.2827 C   0  0  0  0  0  0  0  0  0  0  0  0
   20.4225   17.9757   20.4802 H   0  0  0  0  0  0  0  0  0  0  0  0
   18.7681   17.9106   21.1324 H   0  0  0  0  0  0  0  0  0  0  0  0
   19.7940   19.8797   21.5447 C   0  0  0  0  0  0  0  0  0  0  0  0
   20.7548   20.3608   21.3246 H   0  0  0  0  0  0  0  0  0  0  0  0
   18.9960   20.4634   21.0723 H   0  0  0  0  0  0  0  0  0  0  0  0
   19.5856   19.5345   23.0518 C   0  0  0  0  0  0  0  0  0  0  0  0
   20.1069   20.1987   23.7529 H   0  0  0  0  0  0  0  0  0  0  0  0
   20.3302   18.2001   22.7372 C   0  0  0  0  0  0  0  0  0  0  0  0
   21.4225   18.2695   22.8095 H   0  0  0  0  0  0  0  0  0  0  0  0
   19.9990   17.3220   23.3028 H   0  0  0  0  0  0  0  0  0  0  0  0
   18.2382   19.3821   23.4430 O   0  0  0  0  0  0  0  0  0  0  0  0
   17.8259   18.7840   22.7860 H   0  0  0  0  0  0  0  0  0  0  0  0
  1  2  1  0  0  0  0
  1  3  1  0  0  0  0
  1  4  1  0  0  0  0
  4  5  1  0  0  0  0
  4  6  1  0  0  0  0
  4  7  1  0  0  0  0
  7  8  1  0  0  0  0
  1  9  1  0  0  0  0
  7  9  1  0  0  0  0
  9 10  1  0  0  0  0
  9 11  1  0  0  0  0
  7 12  1  0  0  0  0
 12 13  1  0  0  0  0
M  END
> <VConfSearch Rank>
770

> <Conf_Id>
44

> <Delta U+W>
0.823

> <U+W>
-2.308

> <U>
0.039

> <W>
-2.348

> <W(PB)>
-3.918

> <W(SA)>
1.571

> <Valence>
7.320

> <Coulomb>
-8.530

> <VdW>
1.249

> <VdW6>
-2.615

> <VdW12>
3.864

> <Bond>
0.056

> <Angle>
0.694

> <Pdih>
6.570

> <Idih>
0.000

> <Tether>
0.000

$$$$
VeraChem MOL file


 13 13  0  0  0  0  0  0  0  0999 V2000     
   18.7828   19.3967   21.3351 C   0  0  0  0  0  0  0  0  0  0  0  0
   17.8828   19.8637   21.7564 H   0  0  0  0  0  0  0  0  0  0  0  0
   18.7035   19.4068   20.2415 H   0  0  0  0  0  0  0  0  0  0  0  0
   19.1740   18.0275   21.9828 C   0  0  0  0  0  0  0  0  0  0  0  0
   18.3446   17.4047   22.3353 H   0  0  0  0  0  0  0  0  0  0  0  0
   19.8479   17.4084   21.3777 H   0  0  0  0  0  0  0  0  0  0  0  0
   19.8878   18.8847   23.0712 C   0  0  0  0  0  0  0  0  0  0  0  0
   19.2161   19.2438   23.8630 H   0  0  0  0  0  0  0  0  0  0  0  0
   20.1315   19.9191   21.9311 C   0  0  0  0  0  0  0  0  0  0  0  0
   20.1486   20.9712   22.2360 H   0  0  0  0  0  0  0  0  0  0  0  0
   21.0148   19.7162   21.3127 H   0  0  0  0  0  0  0  0  0  0  0  0
   21.0500   18.3110   23.6231 O   0  0  0  0  0  0  0  0  0  0  0  0
   21.4885   19.0041   24.1622 H   0  0  0  0  0  0  0  0  0  0  0  0
  1  2  1  0  0  0  0
  1  3  1  0  0  0  0
  1  4  1  0  0  0  0
  4  5  1  0  0  0  0
  4  6  1  0  0  0  0
  4  7  1  0  0  0  0
  7  8  1  0  0  0  0
  1  9  1  0  0  0  0
  7  9  1  0  0  0  0
  9 10  1  0  0  0  0
  9 11  1  0  0  0  0
  7 12  1  0  0  0  0
 12 13  1  0  0  0  0
M  END
> <VConfSearch Rank>
771

> <Conf_Id>
22

> <Delta U+W>
0.000

> <U+W>
-3.131

> <U>
-0.154

> <W>
-2.978

> <W(PB)>
-4.579

> <W(SA)>
1.601

> <Valence>
6.333

> <Coulomb>
-7.439

> <VdW>
0.952

> <VdW6>
-2.120

> <VdW12>
3.072

> <Bond>
0.065

> <Angle>
0.931

> <Pdih>
5.338

> <Idih>
0.000

> <Tether>
0.000

$$$$
VeraChem MOL file


 13 13  0  0  0  0  0  0  0  0999 V2000     
   20.4985   18.8029   23.2313 C   0  0  0  0  0  0  0  0  0  0  0  0
   21.2401   18.0108   23.0633 H   0  0  0  0  0  0  0  0  0  0  0  0
   20.6711   19.2402   24.2219 H   0  0  0  0  0  0  0  0  0  0  0  0
   19.0228   18.3974   22.9069 C   0  0  0  0  0  0  0  0  0  0  0  0
   18.2600   19.0378   23.3671 H   0  0  0  0  0  0  0  0  0  0  0  0
   18.7597   17.3495   23.0881 H   0  0  0  0  0  0  0  0  0  0  0  0
   19.3740   18.7652   21.4336 C   0  0  0  0  0  0  0  0  0  0  0  0
   19.8827   17.9622   20.8827 H   0  0  0  0  0  0  0  0  0  0  0  0
   20.3451   19.8169   22.0499 C   0  0  0  0  0  0  0  0  0  0  0  0
   19.8717   20.7691   22.3198 H   0  0  0  0  0  0  0  0  0  0  0  0
   21.2512   20.0254   21.4708 H   0  0  0  0  0  0  0  0  0  0  0  0
   18.3124   19.2971   20.6756 O   0  0  0  0  0  0  0  0  0  0  0  0
   17.6928   18.5600   20.4860 H   0  0  0  0  0  0  0  0  0  0  0  0
  1  2  1  0  0  0  0
  1  3  1  0  0  0  0
  1  4  1  0  0  0  0
  4  5  1  0  0  0  0
  4  6  1  0  0  0  0
  4  7  1  0  0  0  0
  7  8  1  0  0  0  0
  1  9  1  0  0  0  0
  7  9  1  0  0  0  0
  9 10  1  0  0  0  0
  9 11  1  0  0  0  0
  7 12  1  0  0  0  0
 12 13  1  0  0  0  0
M  END
> <VConfSearch Rank>
772

> <Conf_Id>
19

> <Delta U+W>
-0.011

> <U+W>
-3.142

> <U>
-0.154

> <W>
-2.989

> <W(PB)>
-4.588

> <W(SA)>
1.599

> <Valence>
6.334

> <Coulomb>
-7.439

> <VdW>
0.951

> <VdW6>
-2.120

> <VdW12>
3.072

> <Bond>
0.065

> <Angle>
0.930

> <Pdih>
5.339

> <Idih>
0.000

> <Tether>
0.000

$$$$
VeraChem MOL file


 13 13  0  0  0  0  0  0  0  0999 V2000     
   19.2549   18.0444   22.8771 C   0  0  0  0  0  0  0  0  0  0  0  0
   18.3945   17.4063   23.1104 H   0  0  0  0  0  0  0  0  0  0  0  0
   20.1593   17.5794   23.2906 H   0  0  0  0  0  0  0  0  0  0  0  0
   19.0953   19.5648   23.2117 C   0  0  0  0  0  0  0  0  0  0  0  0
   18.0690   19.9430   23.1315 H   0  0  0  0  0  0  0  0  0  0  0  0
   19.5163   19.8938   24.1682 H   0  0  0  0  0  0  0  0  0  0  0  0
   19.9772   19.8370   21.9533 C   0  0  0  0  0  0  0  0  0  0  0  0
   19.7039   20.7386   21.3900 H   0  0  0  0  0  0  0  0  0  0  0  0
   19.3846   18.5082   21.3882 C   0  0  0  0  0  0  0  0  0  0  0  0
   20.0545   17.9143   20.7567 H   0  0  0  0  0  0  0  0  0  0  0  0
   18.4279   18.6298   20.8657 H   0  0  0  0  0  0  0  0  0  0  0  0
   21.3709   19.8171   22.1881 O   0  0  0  0  0  0  0  0  0  0  0  0
   21.8133   19.8229   21.3127 H   0  0  0  0  0  0  0  0  0  0  0  0
  1  2  1  0  0  0  0
  1  3  1  0  0  0  0
  1  4  1  0  0  0  0
  4  5  1  0  0  0  0
  4  6  1  0  0  0  0
  4  7  1  0  0  0  0
  7  8  1  0  0  0  0
  1  9  1  0  0  0  0
  7  9  1  0  0  0  0
  9 10  1  0  0  0  0
  9 11  1  0  0  0  0
  7 12  1  0  0  0  0
 12 13  1  0  0  0  0
M  END
> <VConfSearch Rank>
773

> <Conf_Id>
20

> <Delta U+W>
1.030

> <U+W>
-2.101

> <U>
0.841

> <W>
-2.942

> <W(PB)>
-4.530

> <W(SA)>
1.587

> <Valence>
6.736

> <Coulomb>
-7.246

> <VdW>
1.352

> <VdW6>
-2.500

> <VdW12>
3.851

> <Bond>
0.063

> <Angle>
0.687

> <Pdih>
5.986

> <Idih>
0.000

> <Tether>
0.000

$$$$
VeraChem MOL file


 13 13  0  0  0  0  0  0  0  0999 V2000     
   18.4755   18.9531   22.3753 C   0  0  0  0  0  0  0  0  0  0  0  0
   17.9777   17.9889   22.5434 H   0  0  0  0  0  0  0  0  0  0  0  0
   17.7173   19.7452   22.3871 H   0  0  0  0  0  0  0  0  0  0  0  0
   19.4718   18.9733   21.1694 C   0  0  0  0  0  0  0  0  0  0  0  0
   19.2159   18.3281   20.3217 H   0  0  0  0  0  0  0  0  0  0  0  0
   19.7108   19.9745   20.7901 H   0  0  0  0  0  0  0  0  0  0  0  0
   20.5093   18.3893   22.1752 C   0  0  0  0  0  0  0  0  0  0  0  0
   20.4410   17.3003   22.3016 H   0  0  0  0  0  0  0  0  0  0  0  0
   19.7404   19.1994   23.2623 C   0  0  0  0  0  0  0  0  0  0  0  0
   20.0394   20.2511   23.3508 H   0  0  0  0  0  0  0  0  0  0  0  0
   19.7217   18.7538   24.2631 H   0  0  0  0  0  0  0  0  0  0  0  0
   21.8446   18.7806   21.9616 O   0  0  0  0  0  0  0  0  0  0  0  0
   21.8431   19.7551   21.8565 H   0  0  0  0  0  0  0  0  0  0  0  0
  1  2  1  0  0  0  0
  1  3  1  0  0  0  0
  1  4  1  0  0  0  0
  4  5  1  0  0  0  0
  4  6  1  0  0  0  0
  4  7  1  0  0  0  0
  7  8  1  0  0  0  0
  1  9  1  0  0  0  0
  7  9  1  0  0  0  0
  9 10  1  0  0  0  0
  9 11  1  0  0  0  0
  7 12  1  0  0  0  0
 12 13  1  0  0  0  0
M  END
> <VConfSearch Rank>
774

> <Conf_Id>
24

> <Delta U+W>
0.356

> <U+W>
-2.775

> <U>
-0.184

> <W>
-2.591

> <W(PB)>
-4.184

> <W(SA)>
1.593

> <Valence>
6.840

> <Coulomb>
-7.916

> <VdW>
0.893

> <VdW6>
-2.167

> <VdW12>
3.060

> <Bond>
0.059

> <Angle>
0.918

> <Pdih>
5.862

> <Idih>
0.000

> <Tether>
0.000

$$$$
VeraChem MOL file


 13 13  0  0  0  0  0  0  0  0999 V2000     
   20.2839   19.8271   21.7807 C   0  0  0  0  0  0  0  0  0  0  0  0
   20.3385   20.9137   21.6443 H   0  0  0  0  0  0  0  0  0  0  0  0
   21.1645   19.3738   21.3081 H   0  0  0  0  0  0  0  0  0  0  0  0
   18.9187   19.1584   21.4074 C   0  0  0  0  0  0  0  0  0  0  0  0
   18.0431   19.8023   21.5552 H   0  0  0  0  0  0  0  0  0  0  0  0
   18.8570   18.7107   20.4092 H   0  0  0  0  0  0  0  0  0  0  0  0
   19.1867   18.1687   22.5832 C   0  0  0  0  0  0  0  0  0  0  0  0
   18.2917   17.8588   23.1376 H   0  0  0  0  0  0  0  0  0  0  0  0
   19.9914   19.3343   23.2373 C   0  0  0  0  0  0  0  0  0  0  0  0
   19.3788   20.0212   23.8339 H   0  0  0  0  0  0  0  0  0  0  0  0
   20.8633   19.0395   23.8320 H   0  0  0  0  0  0  0  0  0  0  0  0
   19.9574   17.0373   22.2401 O   0  0  0  0  0  0  0  0  0  0  0  0
   20.7370   17.3722   21.7509 H   0  0  0  0  0  0  0  0  0  0  0  0
  1  2  1  0  0  0  0
  1  3  1  0  0  0  0
  1  4  1  0  0  0  0
  4  5  1  0  0  0  0
  4  6  1  0  0  0  0
  4  7  1  0  0  0  0
  7  8  1  0  0  0  0
  1  9  1  0  0  0  0
  7  9  1  0  0  0  0
  9 10  1  0  0  0  0
  9 11  1  0  0  0  0
  7 12  1  0  0  0  0
 12 13  1  0  0  0  0
M  END
> <VConfSearch Rank>
775

> <Conf_Id>
44

> <Delta U+W>
0.823

> <U+W>
-2.308

> <U>
0.039

> <W>
-2.348

> <W(PB)>
-3.918

> <W(SA)>
1.571

> <Valence>
7.320

> <Coulomb>
-8.530

> <VdW>
1.249

> <VdW6>
-2.615

> <VdW12>
3.864

> <Bond>
0.056

> <Angle>
0.694

> <Pdih>
6.570

> <Idih>
0.000

> <Tether>
0.000

$$$$
VeraChem MOL file


 13 13  0  0  0  0  0  0  0  0999 V2000     
   19.1495   18.8173   21.0556 C   0  0  0  0  0  0  0  0  0  0  0  0
   19.8884   18.4850   20.3146 H   0  0  0  0  0  0  0  0  0  0  0  0
   18.1582   18.8161   20.5870 H   0  0  0  0  0  0  0  0  0  0  0  0
   19.5407   20.1179   21.8321 C   0  0  0  0  0  0  0  0  0  0  0  0
   20.1315   20.8539   21.2761 H   0  0  0  0  0  0  0  0  0  0  0  0
   18.7027   20.6326   22.3184 H   0  0  0  0  0  0  0  0  0  0  0  0
   20.3475   19.1698   22.7697 C   0  0  0  0  0  0  0  0  0  0  0  0
   21.3448   18.9125   22.3873 H   0  0  0  0  0  0  0  0  0  0  0  0
   19.2529   18.1085   22.4464 C   0  0  0  0  0  0  0  0  0  0  0  0
   19.5878   17.0655   22.4324 H   0  0  0  0  0  0  0  0  0  0  0  0
   18.3503   18.1814   23.0659 H   0  0  0  0  0  0  0  0  0  0  0  0
   20.4173   19.5724   24.1178 O   0  0  0  0  0  0  0  0  0  0  0  0
   20.8011   18.8250   24.6249 H   0  0  0  0  0  0  0  0  0  0  0  0
  1  2  1  0  0  0  0
  1  3  1  0  0  0  0
  1  4  1  0  0  0  0
  4  5  1  0  0  0  0
  4  6  1  0  0  0  0
  4  7  1  0  0  0  0
  7  8  1  0  0  0  0
  1  9  1  0  0  0  0
  7  9  1  0  0  0  0
  9 10  1  0  0  0  0
  9 11  1  0  0  0  0
  7 12  1  0  0  0  0
 12 13  1  0  0  0  0
M  END
> <VConfSearch Rank>
776

> <Conf_Id>
22

> <Delta U+W>
0.000

> <U+W>
-3.131

> <U>
-0.154

> <W>
-2.978

> <W(PB)>
-4.579

> <W(SA)>
1.601

> <Valence>
6.333

> <Coulomb>
-7.439

> <VdW>
0.952

> <VdW6>
-2.120

> <VdW12>
3.072

> <Bond>
0.065

> <Angle>
0.931

> <Pdih>
5.338

> <Idih>
0.000

> <Tether>
0.000

$$$$
VeraChem MOL file


 13 13  0  0  0  0  0  0  0  0999 V2000     
   20.5304   19.8882   22.3019 C   0  0  0  0  0  0  0  0  0  0  0  0
   20.7615   20.2112   23.3255 H   0  0  0  0  0  0  0  0  0  0  0  0
   21.0960   20.5137   21.6010 H   0  0  0  0  0  0  0  0  0  0  0  0
   19.0052   19.7209   21.9968 C   0  0  0  0  0  0  0  0  0  0  0  0
   18.7483   19.7240   20.9301 H   0  0  0  0  0  0  0  0  0  0  0  0
   18.3302   20.4039   22.5241 H   0  0  0  0  0  0  0  0  0  0  0  0
   19.1603   18.3014   22.6213 C   0  0  0  0  0  0  0  0  0  0  0  0
   19.1037   18.2883   23.7185 H   0  0  0  0  0  0  0  0  0  0  0  0
   20.6165   18.3438   22.0678 C   0  0  0  0  0  0  0  0  0  0  0  0
   20.7123   18.0426   21.0173 H   0  0  0  0  0  0  0  0  0  0  0  0
   21.3663   17.8062   22.6583 H   0  0  0  0  0  0  0  0  0  0  0  0
   18.3337   17.3049   22.0660 O   0  0  0  0  0  0  0  0  0  0  0  0
   17.4176   17.4854   22.3684 H   0  0  0  0  0  0  0  0  0  0  0  0
  1  2  1  0  0  0  0
  1  3  1  0  0  0  0
  1  4  1  0  0  0  0
  4  5  1  0  0  0  0
  4  6  1  0  0  0  0
  4  7  1  0  0  0  0
  7  8  1  0  0  0  0
  1  9  1  0  0  0  0
  7  9  1  0  0  0  0
  9 10  1  0  0  0  0
  9 11  1  0  0  0  0
  7 12  1  0  0  0  0
 12 13  1  0  0  0  0
M  END
> <VConfSearch Rank>
777

> <Conf_Id>
19

> <Delta U+W>
-0.011

> <U+W>
-3.142

> <U>
-0.154

> <W>
-2.989

> <W(PB)>
-4.588

> <W(SA)>
1.599

> <Valence>
6.334

> <Coulomb>
-7.439

> <VdW>
0.951

> <VdW6>
-2.120

> <VdW12>
3.072

> <Bond>
0.065

> <Angle>
0.930

> <Pdih>
5.339

> <Idih>
0.000

> <Tether>
0.000

$$$$
VeraChem MOL file


 13 13  0  0  0  0  0  0  0  0999 V2000     
   20.4766   19.6694   22.9331 C   0  0  0  0  0  0  0  0  0  0  0  0
   21.2734   20.4212   22.8914 H   0  0  0  0  0  0  0  0  0  0  0  0
   20.3221   19.3792   23.9805 H   0  0  0  0  0  0  0  0  0  0  0  0
   20.6110   18.4679   21.9394 C   0  0  0  0  0  0  0  0  0  0  0  0
   21.1129   18.7121   20.9954 H   0  0  0  0  0  0  0  0  0  0  0  0
   21.0567   17.5538   22.3471 H   0  0  0  0  0  0  0  0  0  0  0  0
   19.0526   18.4842   21.8578 C   0  0  0  0  0  0  0  0  0  0  0  0
   18.6439   18.2352   20.8700 H   0  0  0  0  0  0  0  0  0  0  0  0
   19.1643   20.0128   22.1529 C   0  0  0  0  0  0  0  0  0  0  0  0
   18.3525   20.4475   22.7464 H   0  0  0  0  0  0  0  0  0  0  0  0
   19.3157   20.6323   21.2606 H   0  0  0  0  0  0  0  0  0  0  0  0
   18.3968   17.7294   22.8570 O   0  0  0  0  0  0  0  0  0  0  0  0
   17.4432   17.9547   22.8125 H   0  0  0  0  0  0  0  0  0  0  0  0
  1  2  1  0  0  0  0
  1  3  1  0  0  0  0
  1  4  1  0  0  0  0
  4  5  1  0  0  0  0
  4  6  1  0  0  0  0
  4  7  1  0  0  0  0
  7  8  1  0  0  0  0
  1  9  1  0  0  0  0
  7  9  1  0  0  0  0
  9 10  1  0  0  0  0
  9 11  1  0  0  0  0
  7 12  1  0  0  0  0
 12 13  1  0  0  0  0
M  END
> <VConfSearch Rank>
778

> <Conf_Id>
20

> <Delta U+W>
1.030

> <U+W>
-2.101

> <U>
0.841

> <W>
-2.942

> <W(PB)>
-4.530

> <W(SA)>
1.587

> <Valence>
6.736

> <Coulomb>
-7.246

> <VdW>
1.352

> <VdW6>
-2.500

> <VdW12>
3.851

> <Bond>
0.063

> <Angle>
0.687

> <Pdih>
5.986

> <Idih>
0.000

> <Tether>
0.000

$$$$
VeraChem MOL file


 13 13  0  0  0  0  0  0  0  0999 V2000     
   19.2526   20.1326   22.1245 C   0  0  0  0  0  0  0  0  0  0  0  0
   19.6417   20.9060   22.7999 H   0  0  0  0  0  0  0  0  0  0  0  0
   18.4790   20.5800   21.4889 H   0  0  0  0  0  0  0  0  0  0  0  0
   18.8737   18.7849   22.8227 C   0  0  0  0  0  0  0  0  0  0  0  0
   18.4981   18.8626   23.8490 H   0  0  0  0  0  0  0  0  0  0  0  0
   18.1929   18.1465   22.2461 H   0  0  0  0  0  0  0  0  0  0  0  0
   20.3842   18.4282   22.6800 C   0  0  0  0  0  0  0  0  0  0  0  0
   21.0158   18.8436   23.4770 H   0  0  0  0  0  0  0  0  0  0  0  0
   20.3497   19.2967   21.3863 C   0  0  0  0  0  0  0  0  0  0  0  0
   19.9989   18.7727   20.4887 H   0  0  0  0  0  0  0  0  0  0  0  0
   21.2777   19.8263   21.1440 H   0  0  0  0  0  0  0  0  0  0  0  0
   20.6670   17.0631   22.4843 O   0  0  0  0  0  0  0  0  0  0  0  0
   20.0774   16.7497   21.7667 H   0  0  0  0  0  0  0  0  0  0  0  0
  1  2  1  0  0  0  0
  1  3  1  0  0  0  0
  1  4  1  0  0  0  0
  4  5  1  0  0  0  0
  4  6  1  0  0  0  0
  4  7  1  0  0  0  0
  7  8  1  0  0  0  0
  1  9  1  0  0  0  0
  7  9  1  0  0  0  0
  9 10  1  0  0  0  0
  9 11  1  0  0  0  0
  7 12  1  0  0  0  0
 12 13  1  0  0  0  0
M  END
> <VConfSearch Rank>
779

> <Conf_Id>
24

> <Delta U+W>
0.356

> <U+W>
-2.775

> <U>
-0.184

> <W>
-2.591

> <W(PB)>
-4.184

> <W(SA)>
1.593

> <Valence>
6.840

> <Coulomb>
-7.916

> <VdW>
0.893

> <VdW6>
-2.167

> <VdW12>
3.060

> <Bond>
0.059

> <Angle>
0.918

> <Pdih>
5.862

> <Idih>
0.000

> <Tether>
0.000

$$$$
VeraChem MOL file


 13 13  0  0  0  0  0  0  0  0999 V2000     
   19.5501   18.0442   22.8315 C   0  0  0  0  0  0  0  0  0  0  0  0
   19.8376   16.9964   22.9791 H   0  0  0  0  0  0  0  0  0  0  0  0
   18.8202   18.3154   23.6048 H   0  0  0  0  0  0  0  0  0  0  0  0
   19.1438   18.4434   21.3736 C   0  0  0  0  0  0  0  0  0  0  0  0
   19.6506   17.8691   20.5884 H   0  0  0  0  0  0  0  0  0  0  0  0
   18.0697   18.4558   21.1575 H   0  0  0  0  0  0  0  0  0  0  0  0
   19.7958   19.8295   21.6695 C   0  0  0  0  0  0  0  0  0  0  0  0
   20.3077   20.2898   20.8147 H   0  0  0  0  0  0  0  0  0  0  0  0
   20.7289   19.0586   22.6540 C   0  0  0  0  0  0  0  0  0  0  0  0
   21.6243   18.6352   22.1828 H   0  0  0  0  0  0  0  0  0  0  0  0
   21.0343   19.6066   23.5524 H   0  0  0  0  0  0  0  0  0  0  0  0
   18.9376   20.7685   22.2806 O   0  0  0  0  0  0  0  0  0  0  0  0
   18.5112   20.3055   23.0310 H   0  0  0  0  0  0  0  0  0  0  0  0
  1  2  1  0  0  0  0
  1  3  1  0  0  0  0
  1  4  1  0  0  0  0
  4  5  1  0  0  0  0
  4  6  1  0  0  0  0
  4  7  1  0  0  0  0
  7  8  1  0  0  0  0
  1  9  1  0  0  0  0
  7  9  1  0  0  0  0
  9 10  1  0  0  0  0
  9 11  1  0  0  0  0
  7 12  1  0  0  0  0
 12 13  1  0  0  0  0
M  END
> <VConfSearch Rank>
780

> <Conf_Id>
44

> <Delta U+W>
0.823

> <U+W>
-2.308

> <U>
0.039

> <W>
-2.348

> <W(PB)>
-3.918

> <W(SA)>
1.571

> <Valence>
7.320

> <Coulomb>
-8.530

> <VdW>
1.249

> <VdW6>
-2.615

> <VdW12>
3.864

> <Bond>
0.056

> <Angle>
0.694

> <Pdih>
6.570

> <Idih>
0.000

> <Tether>
0.000

$$$$
VeraChem MOL file


 13 13  0  0  0  0  0  0  0  0999 V2000     
   18.6255   19.8319   22.0645 C   0  0  0  0  0  0  0  0  0  0  0  0
   18.5891   20.2811   21.0632 H   0  0  0  0  0  0  0  0  0  0  0  0
   17.7312   20.1398   22.6194 H   0  0  0  0  0  0  0  0  0  0  0  0
   19.9899   20.0047   22.8101 C   0  0  0  0  0  0  0  0  0  0  0  0
   20.5421   20.9273   22.6006 H   0  0  0  0  0  0  0  0  0  0  0  0
   19.9415   19.8614   23.8967 H   0  0  0  0  0  0  0  0  0  0  0  0
   20.4463   18.7459   22.0126 C   0  0  0  0  0  0  0  0  0  0  0  0
   20.7968   18.9690   20.9955 H   0  0  0  0  0  0  0  0  0  0  0  0
   18.9538   18.3025   22.0843 C   0  0  0  0  0  0  0  0  0  0  0  0
   18.5870   17.7195   21.2324 H   0  0  0  0  0  0  0  0  0  0  0  0
   18.6757   17.7862   23.0116 H   0  0  0  0  0  0  0  0  0  0  0  0
   21.3574   17.9060   22.6827 O   0  0  0  0  0  0  0  0  0  0  0  0
   21.4364   17.0827   22.1545 H   0  0  0  0  0  0  0  0  0  0  0  0
  1  2  1  0  0  0  0
  1  3  1  0  0  0  0
  1  4  1  0  0  0  0
  4  5  1  0  0  0  0
  4  6  1  0  0  0  0
  4  7  1  0  0  0  0
  7  8  1  0  0  0  0
  1  9  1  0  0  0  0
  7  9  1  0  0  0  0
  9 10  1  0  0  0  0
  9 11  1  0  0  0  0
  7 12  1  0  0  0  0
 12 13  1  0  0  0  0
M  END
> <VConfSearch Rank>
781

> <Conf_Id>
22

> <Delta U+W>
0.000

> <U+W>
-3.131

> <U>
-0.154

> <W>
-2.978

> <W(PB)>
-4.579

> <W(SA)>
1.601

> <Valence>
6.333

> <Coulomb>
-7.439

> <VdW>
0.952

> <VdW6>
-2.120

> <VdW12>
3.072

> <Bond>
0.065

> <Angle>
0.931

> <Pdih>
5.338

> <Idih>
0.000

> <Tether>
0.000

$$$$
VeraChem MOL file


 13 13  0  0  0  0  0  0  0  0999 V2000     
   19.0803   20.0861   21.9406 C   0  0  0  0  0  0  0  0  0  0  0  0
   19.6471   20.6538   21.1910 H   0  0  0  0  0  0  0  0  0  0  0  0
   18.2240   20.6901   22.2638 H   0  0  0  0  0  0  0  0  0  0  0  0
   19.9484   19.4593   23.0811 C   0  0  0  0  0  0  0  0  0  0  0  0
   19.3890   19.1838   23.9839 H   0  0  0  0  0  0  0  0  0  0  0  0
   20.8382   20.0259   23.3767 H   0  0  0  0  0  0  0  0  0  0  0  0
   20.1900   18.2848   22.0854 C   0  0  0  0  0  0  0  0  0  0  0  0
   20.9941   18.4728   21.3608 H   0  0  0  0  0  0  0  0  0  0  0  0
   18.7657   18.6068   21.5409 C   0  0  0  0  0  0  0  0  0  0  0  0
   17.9476   18.1421   22.1053 H   0  0  0  0  0  0  0  0  0  0  0  0
   18.6097   18.4169   20.4734 H   0  0  0  0  0  0  0  0  0  0  0  0
   20.3359   17.0142   22.6761 O   0  0  0  0  0  0  0  0  0  0  0  0
   21.2120   16.9980   23.1180 H   0  0  0  0  0  0  0  0  0  0  0  0
  1  2  1  0  0  0  0
  1  3  1  0  0  0  0
  1  4  1  0  0  0  0
  4  5  1  0  0  0  0
  4  6  1  0  0  0  0
  4  7  1  0  0  0  0
  7  8  1  0  0  0  0
  1  9  1  0  0  0  0
  7  9  1  0  0  0  0
  9 10  1  0  0  0  0
  9 11  1  0  0  0  0
  7 12  1  0  0  0  0
 12 13  1  0  0  0  0
M  END
> <VConfSearch Rank>
782

> <Conf_Id>
19

> <Delta U+W>
-0.011

> <U+W>
-3.142

> <U>
-0.154

> <W>
-2.989

> <W(PB)>
-4.588

> <W(SA)>
1.599

> <Valence>
6.334

> <Coulomb>
-7.439

> <VdW>
0.951

> <VdW6>
-2.120

> <VdW12>
3.072

> <Bond>
0.065

> <Angle>
0.930

> <Pdih>
5.339

> <Idih>
0.000

> <Tether>
0.000

$$$$
VeraChem MOL file


 13 13  0  0  0  0  0  0  0  0999 V2000     
   20.4063   19.9777   22.5355 C   0  0  0  0  0  0  0  0  0  0  0  0
   20.5575   21.0627   22.4919 H   0  0  0  0  0  0  0  0  0  0  0  0
   21.2546   19.5261   23.0662 H   0  0  0  0  0  0  0  0  0  0  0  0
   20.0391   19.2788   21.1844 C   0  0  0  0  0  0  0  0  0  0  0  0
   19.4666   19.9048   20.4892 H   0  0  0  0  0  0  0  0  0  0  0  0
   20.8706   18.8193   20.6387 H   0  0  0  0  0  0  0  0  0  0  0  0
   19.1658   18.3046   22.0351 C   0  0  0  0  0  0  0  0  0  0  0  0
   18.2372   17.9797   21.5483 H   0  0  0  0  0  0  0  0  0  0  0  0
   19.0008   19.4975   23.0281 C   0  0  0  0  0  0  0  0  0  0  0  0
   18.9282   19.2325   24.0887 H   0  0  0  0  0  0  0  0  0  0  0  0
   18.1764   20.1771   22.7802 H   0  0  0  0  0  0  0  0  0  0  0  0
   19.8567   17.1862   22.5546 O   0  0  0  0  0  0  0  0  0  0  0  0
   19.2619   16.7527   23.2031 H   0  0  0  0  0  0  0  0  0  0  0  0
  1  2  1  0  0  0  0
  1  3  1  0  0  0  0
  1  4  1  0  0  0  0
  4  5  1  0  0  0  0
  4  6  1  0  0  0  0
  4  7  1  0  0  0  0
  7  8  1  0  0  0  0
  1  9  1  0  0  0  0
  7  9  1  0  0  0  0
  9 10  1  0  0  0  0
  9 11  1  0  0  0  0
  7 12  1  0  0  0  0
 12 13  1  0  0  0  0
M  END
> <VConfSearch Rank>
783

> <Conf_Id>
20

> <Delta U+W>
1.030

> <U+W>
-2.101

> <U>
0.841

> <W>
-2.942

> <W(PB)>
-4.530

> <W(SA)>
1.587

> <Valence>
6.736

> <Coulomb>
-7.246

> <VdW>
1.352

> <VdW6>
-2.500

> <VdW12>
3.851

> <Bond>
0.063

> <Angle>
0.687

> <Pdih>
5.986

> <Idih>
0.000

> <Tether>
0.000

$$$$
VeraChem MOL file


 13 13  0  0  0  0  0  0  0  0999 V2000     
   19.2505   19.7419   21.3320 C   0  0  0  0  0  0  0  0  0  0  0  0
   18.9682   19.3166   20.3598 H   0  0  0  0  0  0  0  0  0  0  0  0
   19.0269   20.8153   21.3227 H   0  0  0  0  0  0  0  0  0  0  0  0
   20.6782   19.3416   21.8311 C   0  0  0  0  0  0  0  0  0  0  0  0
   21.4351   19.1880   21.0540 H   0  0  0  0  0  0  0  0  0  0  0  0
   21.0946   20.0009   22.6026 H   0  0  0  0  0  0  0  0  0  0  0  0
   19.9930   18.0509   22.3729 C   0  0  0  0  0  0  0  0  0  0  0  0
   19.8669   17.2641   21.6167 H   0  0  0  0  0  0  0  0  0  0  0  0
   18.7299   18.9421   22.5717 C   0  0  0  0  0  0  0  0  0  0  0  0
   18.7109   19.5121   23.5087 H   0  0  0  0  0  0  0  0  0  0  0  0
   17.7662   18.4357   22.4487 H   0  0  0  0  0  0  0  0  0  0  0  0
   20.5500   17.5203   23.5519 O   0  0  0  0  0  0  0  0  0  0  0  0
   20.6383   18.2632   24.1852 H   0  0  0  0  0  0  0  0  0  0  0  0
  1  2  1  0  0  0  0
  1  3  1  0  0  0  0
  1  4  1  0  0  0  0
  4  5  1  0  0  0  0
  4  6  1  0  0  0  0
  4  7  1  0  0  0  0
  7  8  1  0  0  0  0
  1  9  1  0  0  0  0
  7  9  1  0  0  0  0
  9 10  1  0  0  0  0
  9 11  1  0  0  0  0
  7 12  1  0  0  0  0
 12 13  1  0  0  0  0
M  END
> <VConfSearch Rank>
784

> <Conf_Id>
24

> <Delta U+W>
0.356

> <U+W>
-2.775

> <U>
-0.184

> <W>
-2.591

> <W(PB)>
-4.184

> <W(SA)>
1.593

> <Valence>
6.840

> <Coulomb>
-7.916

> <VdW>
0.893

> <VdW6>
-2.167

> <VdW12>
3.060

> <Bond>
0.059

> <Angle>
0.918

> <Pdih>
5.862

> <Idih>
0.000

> <Tether>
0.000

$$$$
VeraChem MOL file


 13 13  0  0  0  0  0  0  0  0999 V2000     
   18.9486   19.3133   21.4385 C   0  0  0  0  0  0  0  0  0  0  0  0
   18.5493   20.1676   20.8788 H   0  0  0  0  0  0  0  0  0  0  0  0
   18.4057   18.4115   21.1281 H   0  0  0  0  0  0  0  0  0  0  0  0
   19.0723   19.5073   22.9868 C   0  0  0  0  0  0  0  0  0  0  0  0
   19.2624   20.5409   23.3004 H   0  0  0  0  0  0  0  0  0  0  0  0
   18.2513   19.1055   23.5912 H   0  0  0  0  0  0  0  0  0  0  0  0
   20.3539   18.6217   22.9029 C   0  0  0  0  0  0  0  0  0  0  0  0
   21.1584   18.9091   23.5919 H   0  0  0  0  0  0  0  0  0  0  0  0
   20.5074   19.1719   21.4511 C   0  0  0  0  0  0  0  0  0  0  0  0
   21.0494   20.1233   21.3882 H   0  0  0  0  0  0  0  0  0  0  0  0
   20.9356   18.4782   20.7189 H   0  0  0  0  0  0  0  0  0  0  0  0
   20.1198   17.2325   22.9874 O   0  0  0  0  0  0  0  0  0  0  0  0
   19.3977   17.0352   22.3558 H   0  0  0  0  0  0  0  0  0  0  0  0
  1  2  1  0  0  0  0
  1  3  1  0  0  0  0
  1  4  1  0  0  0  0
  4  5  1  0  0  0  0
  4  6  1  0  0  0  0
  4  7  1  0  0  0  0
  7  8  1  0  0  0  0
  1  9  1  0  0  0  0
  7  9  1  0  0  0  0
  9 10  1  0  0  0  0
  9 11  1  0  0  0  0
  7 12  1  0  0  0  0
 12 13  1  0  0  0  0
M  END
> <VConfSearch Rank>
785

> <Conf_Id>
44

> <Delta U+W>
0.823

> <U+W>
-2.308

> <U>
0.039

> <W>
-2.348

> <W(PB)>
-3.918

> <W(SA)>
1.571

> <Valence>
7.320

> <Coulomb>
-8.530

> <VdW>
1.249

> <VdW6>
-2.615

> <VdW12>
3.864

> <Bond>
0.056

> <Angle>
0.694

> <Pdih>
6.570

> <Idih>
0.000

> <Tether>
0.000

$$$$
VeraChem MOL file


 13 13  0  0  0  0  0  0  0  0999 V2000     
   20.2204   18.6623   23.3843 C   0  0  0  0  0  0  0  0  0  0  0  0
   20.7365   17.6956   23.3164 H   0  0  0  0  0  0  0  0  0  0  0  0
   20.3628   19.0655   24.3940 H   0  0  0  0  0  0  0  0  0  0  0  0
   18.7512   18.6589   22.8469 C   0  0  0  0  0  0  0  0  0  0  0  0
   18.1914   17.7261   22.9754 H   0  0  0  0  0  0  0  0  0  0  0  0
   18.1315   19.4936   23.1974 H   0  0  0  0  0  0  0  0  0  0  0  0
   19.3929   18.8763   21.4434 C   0  0  0  0  0  0  0  0  0  0  0  0
   19.7347   17.9485   20.9643 H   0  0  0  0  0  0  0  0  0  0  0  0
   20.5147   19.6459   22.2039 C   0  0  0  0  0  0  0  0  0  0  0  0
   21.5168   19.5865   21.7652 H   0  0  0  0  0  0  0  0  0  0  0  0
   20.2834   20.6974   22.4152 H   0  0  0  0  0  0  0  0  0  0  0  0
   18.6316   19.6514   20.5466 O   0  0  0  0  0  0  0  0  0  0  0  0
   19.2048   19.8500   19.7751 H   0  0  0  0  0  0  0  0  0  0  0  0
  1  2  1  0  0  0  0
  1  3  1  0  0  0  0
  1  4  1  0  0  0  0
  4  5  1  0  0  0  0
  4  6  1  0  0  0  0
  4  7  1  0  0  0  0
  7  8  1  0  0  0  0
  1  9  1  0  0  0  0
  7  9  1  0  0  0  0
  9 10  1  0  0  0  0
  9 11  1  0  0  0  0
  7 12  1  0  0  0  0
 12 13  1  0  0  0  0
M  END
> <VConfSearch Rank>
786

> <Conf_Id>
22

> <Delta U+W>
0.000

> <U+W>
-3.131

> <U>
-0.154

> <W>
-2.978

> <W(PB)>
-4.579

> <W(SA)>
1.601

> <Valence>
6.333

> <Coulomb>
-7.439

> <VdW>
0.952

> <VdW6>
-2.120

> <VdW12>
3.072

> <Bond>
0.065

> <Angle>
0.931

> <Pdih>
5.338

> <Idih>
0.000

> <Tether>
0.000

$$$$
VeraChem MOL file


 13 13  0  0  0  0  0  0  0  0999 V2000     
   19.0301   19.8446   22.9793 C   0  0  0  0  0  0  0  0  0  0  0  0
   17.9774   19.6159   23.1915 H   0  0  0  0  0  0  0  0  0  0  0  0
   19.2694   20.8245   23.4093 H   0  0  0  0  0  0  0  0  0  0  0  0
   19.4610   19.6234   21.4917 C   0  0  0  0  0  0  0  0  0  0  0  0
   20.3816   20.1437   21.1993 H   0  0  0  0  0  0  0  0  0  0  0  0
   18.6929   19.8129   20.7339 H   0  0  0  0  0  0  0  0  0  0  0  0
   19.6613   18.1324   21.8989 C   0  0  0  0  0  0  0  0  0  0  0  0
   18.7371   17.5384   21.8851 H   0  0  0  0  0  0  0  0  0  0  0  0
   20.0303   18.6874   23.3077 C   0  0  0  0  0  0  0  0  0  0  0  0
   21.0766   19.0001   23.4131 H   0  0  0  0  0  0  0  0  0  0  0  0
   19.7668   18.0466   24.1561 H   0  0  0  0  0  0  0  0  0  0  0  0
   20.6994   17.4581   21.2264 O   0  0  0  0  0  0  0  0  0  0  0  0
   20.3982   17.3064   20.3047 H   0  0  0  0  0  0  0  0  0  0  0  0
  1  2  1  0  0  0  0
  1  3  1  0  0  0  0
  1  4  1  0  0  0  0
  4  5  1  0  0  0  0
  4  6  1  0  0  0  0
  4  7  1  0  0  0  0
  7  8  1  0  0  0  0
  1  9  1  0  0  0  0
  7  9  1  0  0  0  0
  9 10  1  0  0  0  0
  9 11  1  0  0  0  0
  7 12  1  0  0  0  0
 12 13  1  0  0  0  0
M  END
> <VConfSearch Rank>
787

> <Conf_Id>
19

> <Delta U+W>
-0.011

> <U+W>
-3.142

> <U>
-0.154

> <W>
-2.989

> <W(PB)>
-4.588

> <W(SA)>
1.599

> <Valence>
6.334

> <Coulomb>
-7.439

> <VdW>
0.951

> <VdW6>
-2.120

> <VdW12>
3.072

> <Bond>
0.065

> <Angle>
0.930

> <Pdih>
5.339

> <Idih>
0.000

> <Tether>
0.000

$$$$
VeraChem MOL file


 13 13  0  0  0  0  0  0  0  0999 V2000     
   18.4117   19.0074   22.4392 C   0  0  0  0  0  0  0  0  0  0  0  0
   17.6034   18.8950   23.1714 H   0  0  0  0  0  0  0  0  0  0  0  0
   17.9689   19.2170   21.4568 H   0  0  0  0  0  0  0  0  0  0  0  0
   19.4983   17.8811   22.4348 C   0  0  0  0  0  0  0  0  0  0  0  0
   19.6777   17.4182   23.4127 H   0  0  0  0  0  0  0  0  0  0  0  0
   19.3662   17.0880   21.6906 H   0  0  0  0  0  0  0  0  0  0  0  0
   20.5199   18.9996   22.0598 C   0  0  0  0  0  0  0  0  0  0  0  0
   21.5182   18.8726   22.4981 H   0  0  0  0  0  0  0  0  0  0  0  0
   19.5794   19.9670   22.8445 C   0  0  0  0  0  0  0  0  0  0  0  0
   19.5152   20.9908   22.4599 H   0  0  0  0  0  0  0  0  0  0  0  0
   19.7782   20.0100   23.9223 H   0  0  0  0  0  0  0  0  0  0  0  0
   20.6295   19.2653   20.6757 O   0  0  0  0  0  0  0  0  0  0  0  0
   21.1551   20.0877   20.5783 H   0  0  0  0  0  0  0  0  0  0  0  0
  1  2  1  0  0  0  0
  1  3  1  0  0  0  0
  1  4  1  0  0  0  0
  4  5  1  0  0  0  0
  4  6  1  0  0  0  0
  4  7  1  0  0  0  0
  7  8  1  0  0  0  0
  1  9  1  0  0  0  0
  7  9  1  0  0  0  0
  9 10  1  0  0  0  0
  9 11  1  0  0  0  0
  7 12  1  0  0  0  0
 12 13  1  0  0  0  0
M  END
> <VConfSearch Rank>
788

> <Conf_Id>
20

> <Delta U+W>
1.030

> <U+W>
-2.101

> <U>
0.841

> <W>
-2.942

> <W(PB)>
-4.530

> <W(SA)>
1.587

> <Valence>
6.736

> <Coulomb>
-7.246

> <VdW>
1.352

> <VdW6>
-2.500

> <VdW12>
3.851

> <Bond>
0.063

> <Angle>
0.687

> <Pdih>
5.986

> <Idih>
0.000

> <Tether>
0.000

$$$$
VeraChem MOL file


 13 13  0  0  0  0  0  0  0  0999 V2000     
   19.9765   19.9274   23.0129 C   0  0  0  0  0  0  0  0  0  0  0  0
   19.1720   20.6550   23.1834 H   0  0  0  0  0  0  0  0  0  0  0  0
   20.8484   20.2238   23.6081 H   0  0  0  0  0  0  0  0  0  0  0  0
   20.2514   19.5968   21.5088 C   0  0  0  0  0  0  0  0  0  0  0  0
   20.0844   20.4131   20.7974 H   0  0  0  0  0  0  0  0  0  0  0  0
   21.2346   19.1526   21.3103 H   0  0  0  0  0  0  0  0  0  0  0  0
   19.0858   18.5716   21.6481 C   0  0  0  0  0  0  0  0  0  0  0  0
   18.0878   19.0150   21.5295 H   0  0  0  0  0  0  0  0  0  0  0  0
   19.5400   18.4298   23.1323 C   0  0  0  0  0  0  0  0  0  0  0  0
   20.3641   17.7248   23.2967 H   0  0  0  0  0  0  0  0  0  0  0  0
   18.7447   18.2155   23.8547 H   0  0  0  0  0  0  0  0  0  0  0  0
   19.2073   17.4081   20.8650 O   0  0  0  0  0  0  0  0  0  0  0  0
   20.1117   17.0593   21.0107 H   0  0  0  0  0  0  0  0  0  0  0  0
  1  2  1  0  0  0  0
  1  3  1  0  0  0  0
  1  4  1  0  0  0  0
  4  5  1  0  0  0  0
  4  6  1  0  0  0  0
  4  7  1  0  0  0  0
  7  8  1  0  0  0  0
  1  9  1  0  0  0  0
  7  9  1  0  0  0  0
  9 10  1  0  0  0  0
  9 11  1  0  0  0  0
  7 12  1  0  0  0  0
 12 13  1  0  0  0  0
M  END
> <VConfSearch Rank>
789

> <Conf_Id>
24

> <Delta U+W>
0.356

> <U+W>
-2.775

> <U>
-0.184

> <W>
-2.591

> <W(PB)>
-4.184

> <W(SA)>
1.593

> <Valence>
6.840

> <Coulomb>
-7.916

> <VdW>
0.893

> <VdW6>
-2.167

> <VdW12>
3.060

> <Bond>
0.059

> <Angle>
0.918

> <Pdih>
5.862

> <Idih>
0.000

> <Tether>
0.000

$$$$
VeraChem MOL file


 13 13  0  0  0  0  0  0  0  0999 V2000     
   20.2102   18.2097   22.8571 C   0  0  0  0  0  0  0  0  0  0  0  0
   21.0248   17.4788   22.9252 H   0  0  0  0  0  0  0  0  0  0  0  0
   19.6642   18.2098   23.8091 H   0  0  0  0  0  0  0  0  0  0  0  0
   19.3089   18.1128   21.5811 C   0  0  0  0  0  0  0  0  0  0  0  0
   19.8262   17.7419   20.6878 H   0  0  0  0  0  0  0  0  0  0  0  0
   18.3694   17.5602   21.6939 H   0  0  0  0  0  0  0  0  0  0  0  0
   19.1985   19.6673   21.6531 C   0  0  0  0  0  0  0  0  0  0  0  0
   19.1670   20.1726   20.6793 H   0  0  0  0  0  0  0  0  0  0  0  0
   20.6060   19.6276   22.3250 C   0  0  0  0  0  0  0  0  0  0  0  0
   21.4413   19.6281   21.6141 H   0  0  0  0  0  0  0  0  0  0  0  0
   20.7954   20.3936   23.0853 H   0  0  0  0  0  0  0  0  0  0  0  0
   18.1615   20.1491   22.4802 O   0  0  0  0  0  0  0  0  0  0  0  0
   18.2384   19.6664   23.3290 H   0  0  0  0  0  0  0  0  0  0  0  0
  1  2  1  0  0  0  0
  1  3  1  0  0  0  0
  1  4  1  0  0  0  0
  4  5  1  0  0  0  0
  4  6  1  0  0  0  0
  4  7  1  0  0  0  0
  7  8  1  0  0  0  0
  1  9  1  0  0  0  0
  7  9  1  0  0  0  0
  9 10  1  0  0  0  0
  9 11  1  0  0  0  0
  7 12  1  0  0  0  0
 12 13  1  0  0  0  0
M  END
> <VConfSearch Rank>
790

> <Conf_Id>
44

> <Delta U+W>
0.823

> <U+W>
-2.308

> <U>
0.039

> <W>
-2.348

> <W(PB)>
-3.918

> <W(SA)>
1.571

> <Valence>
7.320

> <Coulomb>
-8.530

> <VdW>
1.249

> <VdW6>
-2.615

> <VdW12>
3.864

> <Bond>
0.056

> <Angle>
0.694

> <Pdih>
6.570

> <Idih>
0.000

> <Tether>
0.000

$$$$
VeraChem MOL file


 13 13  0  0  0  0  0  0  0  0999 V2000     
   18.4936   19.1110   21.6488 C   0  0  0  0  0  0  0  0  0  0  0  0
   18.1967   20.1346   21.3849 H   0  0  0  0  0  0  0  0  0  0  0  0
   17.7277   18.4181   21.2805 H   0  0  0  0  0  0  0  0  0  0  0  0
   18.9334   18.9205   23.1379 C   0  0  0  0  0  0  0  0  0  0  0  0
   18.4303   19.5549   23.8758 H   0  0  0  0  0  0  0  0  0  0  0  0
   18.9150   17.8828   23.4936 H   0  0  0  0  0  0  0  0  0  0  0  0
   20.3323   19.4147   22.6608 C   0  0  0  0  0  0  0  0  0  0  0  0
   20.4226   20.5086   22.6119 H   0  0  0  0  0  0  0  0  0  0  0  0
   19.9743   18.7480   21.2983 C   0  0  0  0  0  0  0  0  0  0  0  0
   20.3908   19.2294   20.4066 H   0  0  0  0  0  0  0  0  0  0  0  0
   20.1828   17.6720   21.2486 H   0  0  0  0  0  0  0  0  0  0  0  0
   21.4327   18.8517   23.3367 O   0  0  0  0  0  0  0  0  0  0  0  0
   22.2406   19.1116   22.8437 H   0  0  0  0  0  0  0  0  0  0  0  0
  1  2  1  0  0  0  0
  1  3  1  0  0  0  0
  1  4  1  0  0  0  0
  4  5  1  0  0  0  0
  4  6  1  0  0  0  0
  4  7  1  0  0  0  0
  7  8  1  0  0  0  0
  1  9  1  0  0  0  0
  7  9  1  0  0  0  0
  9 10  1  0  0  0  0
  9 11  1  0  0  0  0
  7 12  1  0  0  0  0
 12 13  1  0  0  0  0
M  END
> <VConfSearch Rank>
791

> <Conf_Id>
22

> <Delta U+W>
0.000

> <U+W>
-3.131

> <U>
-0.154

> <W>
-2.978

> <W(PB)>
-4.579

> <W(SA)>
1.601

> <Valence>
6.333

> <Coulomb>
-7.439

> <VdW>
0.952

> <VdW6>
-2.120

> <VdW12>
3.072

> <Bond>
0.065

> <Angle>
0.931

> <Pdih>
5.338

> <Idih>
0.000

> <Tether>
0.000

$$$$
VeraChem MOL file


 13 13  0  0  0  0  0  0  0  0999 V2000     
   19.5774   17.7793   21.5944 C   0  0  0  0  0  0  0  0  0  0  0  0
   19.2571   16.9357   22.2199 H   0  0  0  0  0  0  0  0  0  0  0  0
   19.8164   17.4022   20.5930 H   0  0  0  0  0  0  0  0  0  0  0  0
   20.6483   18.7116   22.2512 C   0  0  0  0  0  0  0  0  0  0  0  0
   21.2045   19.3396   21.5441 H   0  0  0  0  0  0  0  0  0  0  0  0
   21.3604   18.2263   22.9276 H   0  0  0  0  0  0  0  0  0  0  0  0
   19.4378   19.4191   22.9320 C   0  0  0  0  0  0  0  0  0  0  0  0
   19.0842   18.9188   23.8440 H   0  0  0  0  0  0  0  0  0  0  0  0
   18.6390   19.0297   21.6518 C   0  0  0  0  0  0  0  0  0  0  0  0
   18.7534   19.7293   20.8144 H   0  0  0  0  0  0  0  0  0  0  0  0
   17.5724   18.8277   21.7989 H   0  0  0  0  0  0  0  0  0  0  0  0
   19.5919   20.8026   23.1482 O   0  0  0  0  0  0  0  0  0  0  0  0
   20.2393   20.9125   23.8776 H   0  0  0  0  0  0  0  0  0  0  0  0
  1  2  1  0  0  0  0
  1  3  1  0  0  0  0
  1  4  1  0  0  0  0
  4  5  1  0  0  0  0
  4  6  1  0  0  0  0
  4  7  1  0  0  0  0
  7  8  1  0  0  0  0
  1  9  1  0  0  0  0
  7  9  1  0  0  0  0
  9 10  1  0  0  0  0
  9 11  1  0  0  0  0
  7 12  1  0  0  0  0
 12 13  1  0  0  0  0
M  END
> <VConfSearch Rank>
792

> <Conf_Id>
19

> <Delta U+W>
-0.011

> <U+W>
-3.142

> <U>
-0.154

> <W>
-2.989

> <W(PB)>
-4.588

> <W(SA)>
1.599

> <Valence>
6.334

> <Coulomb>
-7.439

> <VdW>
0.951

> <VdW6>
-2.120

> <VdW12>
3.072

> <Bond>
0.065

> <Angle>
0.930

> <Pdih>
5.339

> <Idih>
0.000

> <Tether>
0.000

$$$$
VeraChem MOL file


 13 13  0  0  0  0  0  0  0  0999 V2000     
   19.6447   19.4279   23.4540 C   0  0  0  0  0  0  0  0  0  0  0  0
   19.6848   19.1048   24.5008 H   0  0  0  0  0  0  0  0  0  0  0  0
   19.6860   20.5246   23.4233 H   0  0  0  0  0  0  0  0  0  0  0  0
   18.5099   18.7960   22.5812 C   0  0  0  0  0  0  0  0  0  0  0  0
   18.2252   17.7778   22.8728 H   0  0  0  0  0  0  0  0  0  0  0  0
   17.5999   19.3955   22.4676 H   0  0  0  0  0  0  0  0  0  0  0  0
   19.5181   18.8621   21.3919 C   0  0  0  0  0  0  0  0  0  0  0  0
   19.4474   18.0249   20.6855 H   0  0  0  0  0  0  0  0  0  0  0  0
   20.6328   18.7122   22.4741 C   0  0  0  0  0  0  0  0  0  0  0  0
   21.5726   19.2374   22.2710 H   0  0  0  0  0  0  0  0  0  0  0  0
   20.8631   17.6734   22.7403 H   0  0  0  0  0  0  0  0  0  0  0  0
   19.5292   20.0884   20.6889 O   0  0  0  0  0  0  0  0  0  0  0  0
   20.3080   20.0747   20.0927 H   0  0  0  0  0  0  0  0  0  0  0  0
  1  2  1  0  0  0  0
  1  3  1  0  0  0  0
  1  4  1  0  0  0  0
  4  5  1  0  0  0  0
  4  6  1  0  0  0  0
  4  7  1  0  0  0  0
  7  8  1  0  0  0  0
  1  9  1  0  0  0  0
  7  9  1  0  0  0  0
  9 10  1  0  0  0  0
  9 11  1  0  0  0  0
  7 12  1  0  0  0  0
 12 13  1  0  0  0  0
M  END
> <VConfSearch Rank>
793

> <Conf_Id>
20

> <Delta U+W>
1.030

> <U+W>
-2.101

> <U>
0.841

> <W>
-2.942

> <W(PB)>
-4.530

> <W(SA)>
1.587

> <Valence>
6.736

> <Coulomb>
-7.246

> <VdW>
1.352

> <VdW6>
-2.500

> <VdW12>
3.851

> <Bond>
0.063

> <Angle>
0.687

> <Pdih>
5.986

> <Idih>
0.000

> <Tether>
0.000

$$$$
VeraChem MOL file


 13 13  0  0  0  0  0  0  0  0999 V2000     
   19.8729   19.5230   21.0709 C   0  0  0  0  0  0  0  0  0  0  0  0
   20.2453   18.9200   20.2323 H   0  0  0  0  0  0  0  0  0  0  0  0
   19.6826   20.5416   20.7123 H   0  0  0  0  0  0  0  0  0  0  0  0
   20.7117   19.4030   22.3860 C   0  0  0  0  0  0  0  0  0  0  0  0
   21.7873   19.2380   22.2584 H   0  0  0  0  0  0  0  0  0  0  0  0
   20.5636   20.2229   23.0995 H   0  0  0  0  0  0  0  0  0  0  0  0
   19.8602   18.1283   22.6674 C   0  0  0  0  0  0  0  0  0  0  0  0
   20.2320   17.2257   22.1635 H   0  0  0  0  0  0  0  0  0  0  0  0
   18.7207   18.8577   21.8939 C   0  0  0  0  0  0  0  0  0  0  0  0
   18.1275   19.5558   22.4974 H   0  0  0  0  0  0  0  0  0  0  0  0
   18.0378   18.2112   21.3317 H   0  0  0  0  0  0  0  0  0  0  0  0
   19.5968   17.8649   24.0250 O   0  0  0  0  0  0  0  0  0  0  0  0
   19.2704   18.7007   24.4196 H   0  0  0  0  0  0  0  0  0  0  0  0
  1  2  1  0  0  0  0
  1  3  1  0  0  0  0
  1  4  1  0  0  0  0
  4  5  1  0  0  0  0
  4  6  1  0  0  0  0
  4  7  1  0  0  0  0
  7  8  1  0  0  0  0
  1  9  1  0  0  0  0
  7  9  1  0  0  0  0
  9 10  1  0  0  0  0
  9 11  1  0  0  0  0
  7 12  1  0  0  0  0
 12 13  1  0  0  0  0
M  END
> <VConfSearch Rank>
794

> <Conf_Id>
24

> <Delta U+W>
0.356

> <U+W>
-2.775

> <U>
-0.184

> <W>
-2.591

> <W(PB)>
-4.184

> <W(SA)>
1.593

> <Valence>
6.840

> <Coulomb>
-7.916

> <VdW>
0.893

> <VdW6>
-2.167

> <VdW12>
3.060

> <Bond>
0.059

> <Angle>
0.918

> <Pdih>
5.862

> <Idih>
0.000

> <Tether>
0.000

$$$$
VeraChem MOL file


 13 13  0  0  0  0  0  0  0  0999 V2000     
   20.0812   18.9956   23.2651 C   0  0  0  0  0  0  0  0  0  0  0  0
   20.9681   18.9436   23.9078 H   0  0  0  0  0  0  0  0  0  0  0  0
   19.1980   19.1260   23.9032 H   0  0  0  0  0  0  0  0  0  0  0  0
   19.9524   17.8704   22.1845 C   0  0  0  0  0  0  0  0  0  0  0  0
   20.9105   17.4859   21.8140 H   0  0  0  0  0  0  0  0  0  0  0  0
   19.3137   17.0195   22.4467 H   0  0  0  0  0  0  0  0  0  0  0  0
   19.3036   18.9528   21.2672 C   0  0  0  0  0  0  0  0  0  0  0  0
   19.5503   18.8618   20.2017 H   0  0  0  0  0  0  0  0  0  0  0  0
   20.1705   19.9837   22.0544 C   0  0  0  0  0  0  0  0  0  0  0  0
   21.1821   20.1173   21.6520 H   0  0  0  0  0  0  0  0  0  0  0  0
   19.7217   20.9722   22.2033 H   0  0  0  0  0  0  0  0  0  0  0  0
   17.9100   19.1066   21.4283 O   0  0  0  0  0  0  0  0  0  0  0  0
   17.7499   19.1824   22.3916 H   0  0  0  0  0  0  0  0  0  0  0  0
  1  2  1  0  0  0  0
  1  3  1  0  0  0  0
  1  4  1  0  0  0  0
  4  5  1  0  0  0  0
  4  6  1  0  0  0  0
  4  7  1  0  0  0  0
  7  8  1  0  0  0  0
  1  9  1  0  0  0  0
  7  9  1  0  0  0  0
  9 10  1  0  0  0  0
  9 11  1  0  0  0  0
  7 12  1  0  0  0  0
 12 13  1  0  0  0  0
M  END
> <VConfSearch Rank>
795

> <Conf_Id>
44

> <Delta U+W>
0.823

> <U+W>
-2.308

> <U>
0.039

> <W>
-2.348

> <W(PB)>
-3.918

> <W(SA)>
1.571

> <Valence>
7.320

> <Coulomb>
-8.530

> <VdW>
1.249

> <VdW6>
-2.615

> <VdW12>
3.864

> <Bond>
0.056

> <Angle>
0.694

> <Pdih>
6.570

> <Idih>
0.000

> <Tether>
0.000

$$$$
VeraChem MOL file


 13 13  0  0  0  0  0  0  0  0999 V2000     
   19.6274   20.3221   21.9266 C   0  0  0  0  0  0  0  0  0  0  0  0
   19.2026   20.9577   22.7147 H   0  0  0  0  0  0  0  0  0  0  0  0
   19.9509   20.9618   21.0969 H   0  0  0  0  0  0  0  0  0  0  0  0
   18.7505   19.0858   21.5393 C   0  0  0  0  0  0  0  0  0  0  0  0
   17.6658   19.2201   21.6129 H   0  0  0  0  0  0  0  0  0  0  0  0
   18.9858   18.6426   20.5637 H   0  0  0  0  0  0  0  0  0  0  0  0
   19.4294   18.3780   22.7506 C   0  0  0  0  0  0  0  0  0  0  0  0
   18.9583   18.6048   23.7169 H   0  0  0  0  0  0  0  0  0  0  0  0
   20.6682   19.2666   22.4267 C   0  0  0  0  0  0  0  0  0  0  0  0
   21.2812   19.5630   23.2849 H   0  0  0  0  0  0  0  0  0  0  0  0
   21.3253   18.8652   21.6451 H   0  0  0  0  0  0  0  0  0  0  0  0
   19.6276   16.9910   22.6039 O   0  0  0  0  0  0  0  0  0  0  0  0
   20.1998   16.6992   23.3459 H   0  0  0  0  0  0  0  0  0  0  0  0
  1  2  1  0  0  0  0
  1  3  1  0  0  0  0
  1  4  1  0  0  0  0
  4  5  1  0  0  0  0
  4  6  1  0  0  0  0
  4  7  1  0  0  0  0
  7  8  1  0  0  0  0
  1  9  1  0  0  0  0
  7  9  1  0  0  0  0
  9 10  1  0  0  0  0
  9 11  1  0  0  0  0
  7 12  1  0  0  0  0
 12 13  1  0  0  0  0
M  END
> <VConfSearch Rank>
796

> <Conf_Id>
22

> <Delta U+W>
0.000

> <U+W>
-3.131

> <U>
-0.154

> <W>
-2.978

> <W(PB)>
-4.579

> <W(SA)>
1.601

> <Valence>
6.333

> <Coulomb>
-7.439

> <VdW>
0.952

> <VdW6>
-2.120

> <VdW12>
3.072

> <Bond>
0.065

> <Angle>
0.931

> <Pdih>
5.338

> <Idih>
0.000

> <Tether>
0.000

$$$$
VeraChem MOL file


 13 13  0  0  0  0  0  0  0  0999 V2000     
   19.7247   17.6290   22.0206 C   0  0  0  0  0  0  0  0  0  0  0  0
   18.7612   17.1048   22.0719 H   0  0  0  0  0  0  0  0  0  0  0  0
   20.5159   16.8913   21.8415 H   0  0  0  0  0  0  0  0  0  0  0  0
   19.9811   18.6428   23.1841 C   0  0  0  0  0  0  0  0  0  0  0  0
   21.0335   18.9171   23.3291 H   0  0  0  0  0  0  0  0  0  0  0  0
   19.5476   18.3814   24.1557 H   0  0  0  0  0  0  0  0  0  0  0  0
   19.1618   19.6511   22.3232 C   0  0  0  0  0  0  0  0  0  0  0  0
   18.0734   19.5531   22.4368 H   0  0  0  0  0  0  0  0  0  0  0  0
   19.7361   18.8878   21.0918 C   0  0  0  0  0  0  0  0  0  0  0  0
   20.7339   19.2181   20.7774 H   0  0  0  0  0  0  0  0  0  0  0  0
   19.0853   18.8455   20.2117 H   0  0  0  0  0  0  0  0  0  0  0  0
   19.5569   20.9988   22.4344 O   0  0  0  0  0  0  0  0  0  0  0  0
   19.2706   21.3136   23.3187 H   0  0  0  0  0  0  0  0  0  0  0  0
  1  2  1  0  0  0  0
  1  3  1  0  0  0  0
  1  4  1  0  0  0  0
  4  5  1  0  0  0  0
  4  6  1  0  0  0  0
  4  7  1  0  0  0  0
  7  8  1  0  0  0  0
  1  9  1  0  0  0  0
  7  9  1  0  0  0  0
  9 10  1  0  0  0  0
  9 11  1  0  0  0  0
  7 12  1  0  0  0  0
 12 13  1  0  0  0  0
M  END
> <VConfSearch Rank>
797

> <Conf_Id>
19

> <Delta U+W>
-0.011

> <U+W>
-3.142

> <U>
-0.154

> <W>
-2.989

> <W(PB)>
-4.588

> <W(SA)>
1.599

> <Valence>
6.334

> <Coulomb>
-7.439

> <VdW>
0.951

> <VdW6>
-2.120

> <VdW12>
3.072

> <Bond>
0.065

> <Angle>
0.930

> <Pdih>
5.339

> <Idih>
0.000

> <Tether>
0.000

$$$$
VeraChem MOL file


 13 13  0  0  0  0  0  0  0  0999 V2000     
   18.4769   18.6335   22.3548 C   0  0  0  0  0  0  0  0  0  0  0  0
   17.8441   17.7382   22.3637 H   0  0  0  0  0  0  0  0  0  0  0  0
   17.8449   19.5119   22.5395 H   0  0  0  0  0  0  0  0  0  0  0  0
   19.4492   18.7772   21.1371 C   0  0  0  0  0  0  0  0  0  0  0  0
   19.8053   17.8256   20.7243 H   0  0  0  0  0  0  0  0  0  0  0  0
   19.0978   19.4073   20.3125 H   0  0  0  0  0  0  0  0  0  0  0  0
   20.4428   19.4544   22.1319 C   0  0  0  0  0  0  0  0  0  0  0  0
   21.5010   19.2314   21.9438 H   0  0  0  0  0  0  0  0  0  0  0  0
   19.7730   18.5692   23.2292 C   0  0  0  0  0  0  0  0  0  0  0  0
   19.7015   19.0148   24.2276 H   0  0  0  0  0  0  0  0  0  0  0  0
   20.2074   17.5666   23.3240 H   0  0  0  0  0  0  0  0  0  0  0  0
   20.2636   20.8468   22.2962 O   0  0  0  0  0  0  0  0  0  0  0  0
   20.8142   21.1227   23.0597 H   0  0  0  0  0  0  0  0  0  0  0  0
  1  2  1  0  0  0  0
  1  3  1  0  0  0  0
  1  4  1  0  0  0  0
  4  5  1  0  0  0  0
  4  6  1  0  0  0  0
  4  7  1  0  0  0  0
  7  8  1  0  0  0  0
  1  9  1  0  0  0  0
  7  9  1  0  0  0  0
  9 10  1  0  0  0  0
  9 11  1  0  0  0  0
  7 12  1  0  0  0  0
 12 13  1  0  0  0  0
M  END
> <VConfSearch Rank>
798

> <Conf_Id>
20

> <Delta U+W>
1.030

> <U+W>
-2.101

> <U>
0.841

> <W>
-2.942

> <W(PB)>
-4.530

> <W(SA)>
1.587

> <Valence>
6.736

> <Coulomb>
-7.246

> <VdW>
1.352

> <VdW6>
-2.500

> <VdW12>
3.851

> <Bond>
0.063

> <Angle>
0.687

> <Pdih>
5.986

> <Idih>
0.000

> <Tether>
0.000

$$$$
VeraChem MOL file


 13 13  0  0  0  0  0  0  0  0999 V2000     
   18.6201   18.3849   22.4363 C   0  0  0  0  0  0  0  0  0  0  0  0
   17.7469   18.7290   21.8665 H   0  0  0  0  0  0  0  0  0  0  0  0
   18.3032   17.5802   23.1104 H   0  0  0  0  0  0  0  0  0  0  0  0
   19.4711   19.5275   23.0826 C   0  0  0  0  0  0  0  0  0  0  0  0
   18.9189   20.4184   23.4016 H   0  0  0  0  0  0  0  0  0  0  0  0
   20.1223   19.2042   23.9041 H   0  0  0  0  0  0  0  0  0  0  0  0
   20.1698   19.6258   21.6929 C   0  0  0  0  0  0  0  0  0  0  0  0
   19.6212   20.2355   20.9621 H   0  0  0  0  0  0  0  0  0  0  0  0
   19.8924   18.0968   21.5728 C   0  0  0  0  0  0  0  0  0  0  0  0
   20.6379   17.4538   22.0568 H   0  0  0  0  0  0  0  0  0  0  0  0
   19.7124   17.7243   20.5584 H   0  0  0  0  0  0  0  0  0  0  0  0
   21.5285   19.9930   21.7242 O   0  0  0  0  0  0  0  0  0  0  0  0
   21.9638   19.4194   22.3892 H   0  0  0  0  0  0  0  0  0  0  0  0
  1  2  1  0  0  0  0
  1  3  1  0  0  0  0
  1  4  1  0  0  0  0
  4  5  1  0  0  0  0
  4  6  1  0  0  0  0
  4  7  1  0  0  0  0
  7  8  1  0  0  0  0
  1  9  1  0  0  0  0
  7  9  1  0  0  0  0
  9 10  1  0  0  0  0
  9 11  1  0  0  0  0
  7 12  1  0  0  0  0
 12 13  1  0  0  0  0
M  END
> <VConfSearch Rank>
799

> <Conf_Id>
24

> <Delta U+W>
0.356

> <U+W>
-2.775

> <U>
-0.184

> <W>
-2.591

> <W(PB)>
-4.184

> <W(SA)>
1.593

> <Valence>
6.840

> <Coulomb>
-7.916

> <VdW>
0.893

> <VdW6>
-2.167

> <VdW12>
3.060

> <Bond>
0.059

> <Angle>
0.918

> <Pdih>
5.862

> <Idih>
0.000

> <Tether>
0.000

$$$$
VeraChem MOL file


 13 13  0  0  0  0  0  0  0  0999 V2000     
   20.2352   18.4580   23.0516 C   0  0  0  0  0  0  0  0  0  0  0  0
   20.1516   18.0309   24.0580 H   0  0  0  0  0  0  0  0  0  0  0  0
   21.2729   18.3460   22.7126 H   0  0  0  0  0  0  0  0  0  0  0  0
   19.6323   19.8903   22.8639 C   0  0  0  0  0  0  0  0  0  0  0  0
   18.7768   20.1108   23.5140 H   0  0  0  0  0  0  0  0  0  0  0  0
   20.3402   20.7245   22.9252 H   0  0  0  0  0  0  0  0  0  0  0  0
   19.2374   19.4356   21.4247 C   0  0  0  0  0  0  0  0  0  0  0  0
   18.2849   19.8399   21.0589 H   0  0  0  0  0  0  0  0  0  0  0  0
   19.1522   17.9961   22.0202 C   0  0  0  0  0  0  0  0  0  0  0  0
   18.1790   17.7521   22.4634 H   0  0  0  0  0  0  0  0  0  0  0  0
   19.4422   17.1815   21.3471 H   0  0  0  0  0  0  0  0  0  0  0  0
   20.2431   19.6144   20.4509 O   0  0  0  0  0  0  0  0  0  0  0  0
   21.0641   19.2377   20.8295 H   0  0  0  0  0  0  0  0  0  0  0  0
  1  2  1  0  0  0  0
  1  3  1  0  0  0  0
  1  4  1  0  0  0  0
  4  5  1  0  0  0  0
  4  6  1  0  0  0  0
  4  7  1  0  0  0  0
  7  8  1  0  0  0  0
  1  9  1  0  0  0  0
  7  9  1  0  0  0  0
  9 10  1  0  0  0  0
  9 11  1  0  0  0  0
  7 12  1  0  0  0  0
 12 13  1  0  0  0  0
M  END
> <VConfSearch Rank>
800

> <Conf_Id>
44

> <Delta U+W>
0.823

> <U+W>
-2.308

> <U>
0.039

> <W>
-2.348

> <W(PB)>
-3.918

> <W(SA)>
1.571

> <Valence>
7.320

> <Coulomb>
-8.530

> <VdW>
1.249

> <VdW6>
-2.615

> <VdW12>
3.864

> <Bond>
0.056

> <Angle>
0.694

> <Pdih>
6.570

> <Idih>
0.000

> <Tether>
0.000

$$$$
VeraChem MOL file


 13 13  0  0  0  0  0  0  0  0999 V2000     
   18.7769   19.3832   23.1610 C   0  0  0  0  0  0  0  0  0  0  0  0
   19.2201   19.6130   24.1390 H   0  0  0  0  0  0  0  0  0  0  0  0
   17.6959   19.5580   23.2164 H   0  0  0  0  0  0  0  0  0  0  0  0
   19.2211   18.0149   22.5465 C   0  0  0  0  0  0  0  0  0  0  0  0
   19.4290   17.2094   23.2592 H   0  0  0  0  0  0  0  0  0  0  0  0
   18.5614   17.6284   21.7597 H   0  0  0  0  0  0  0  0  0  0  0  0
   20.4652   18.7929   22.0214 C   0  0  0  0  0  0  0  0  0  0  0  0
   21.2684   18.8967   22.7638 H   0  0  0  0  0  0  0  0  0  0  0  0
   19.5152   20.0259   21.9407 C   0  0  0  0  0  0  0  0  0  0  0  0
   19.9817   21.0011   22.1182 H   0  0  0  0  0  0  0  0  0  0  0  0
   18.9182   20.0820   21.0218 H   0  0  0  0  0  0  0  0  0  0  0  0
   20.9786   18.3458   20.7881 O   0  0  0  0  0  0  0  0  0  0  0  0
   21.6412   19.0067   20.4923 H   0  0  0  0  0  0  0  0  0  0  0  0
  1  2  1  0  0  0  0
  1  3  1  0  0  0  0
  1  4  1  0  0  0  0
  4  5  1  0  0  0  0
  4  6  1  0  0  0  0
  4  7  1  0  0  0  0
  7  8  1  0  0  0  0
  1  9  1  0  0  0  0
  7  9  1  0  0  0  0
  9 10  1  0  0  0  0
  9 11  1  0  0  0  0
  7 12  1  0  0  0  0
 12 13  1  0  0  0  0
M  END
> <VConfSearch Rank>
801

> <Conf_Id>
22

> <Delta U+W>
0.000

> <U+W>
-3.131

> <U>
-0.154

> <W>
-2.978

> <W(PB)>
-4.579

> <W(SA)>
1.601

> <Valence>
6.333

> <Coulomb>
-7.439

> <VdW>
0.952

> <VdW6>
-2.120

> <VdW12>
3.072

> <Bond>
0.065

> <Angle>
0.931

> <Pdih>
5.338

> <Idih>
0.000

> <Tether>
0.000

$$$$
VeraChem MOL file


 13 13  0  0  0  0  0  0  0  0999 V2000     
   19.4325   17.6791   21.8607 C   0  0  0  0  0  0  0  0  0  0  0  0
   19.2896   16.9811   22.6961 H   0  0  0  0  0  0  0  0  0  0  0  0
   19.4198   17.1106   20.9231 H   0  0  0  0  0  0  0  0  0  0  0  0
   20.6203   18.6811   22.0406 C   0  0  0  0  0  0  0  0  0  0  0  0
   20.9744   19.1436   21.1108 H   0  0  0  0  0  0  0  0  0  0  0  0
   21.4850   18.3083   22.6006 H   0  0  0  0  0  0  0  0  0  0  0  0
   19.6079   19.5467   22.8499 C   0  0  0  0  0  0  0  0  0  0  0  0
   19.4993   19.2412   23.8996 H   0  0  0  0  0  0  0  0  0  0  0  0
   18.5209   18.9496   21.9061 C   0  0  0  0  0  0  0  0  0  0  0  0
   18.4137   19.4731   20.9479 H   0  0  0  0  0  0  0  0  0  0  0  0
   17.5275   18.8166   22.3480 H   0  0  0  0  0  0  0  0  0  0  0  0
   19.7921   20.9399   22.7509 O   0  0  0  0  0  0  0  0  0  0  0  0
   20.5991   21.1635   23.2626 H   0  0  0  0  0  0  0  0  0  0  0  0
  1  2  1  0  0  0  0
  1  3  1  0  0  0  0
  1  4  1  0  0  0  0
  4  5  1  0  0  0  0
  4  6  1  0  0  0  0
  4  7  1  0  0  0  0
  7  8  1  0  0  0  0
  1  9  1  0  0  0  0
  7  9  1  0  0  0  0
  9 10  1  0  0  0  0
  9 11  1  0  0  0  0
  7 12  1  0  0  0  0
 12 13  1  0  0  0  0
M  END
> <VConfSearch Rank>
802

> <Conf_Id>
19

> <Delta U+W>
-0.011

> <U+W>
-3.142

> <U>
-0.154

> <W>
-2.989

> <W(PB)>
-4.588

> <W(SA)>
1.599

> <Valence>
6.334

> <Coulomb>
-7.439

> <VdW>
0.951

> <VdW6>
-2.120

> <VdW12>
3.072

> <Bond>
0.065

> <Angle>
0.930

> <Pdih>
5.339

> <Idih>
0.000

> <Tether>
0.000

$$$$
VeraChem MOL file


 13 13  0  0  0  0  0  0  0  0999 V2000     
   19.6830   19.3533   21.0864 C   0  0  0  0  0  0  0  0  0  0  0  0
   19.8572   20.1636   20.3688 H   0  0  0  0  0  0  0  0  0  0  0  0
   19.5532   18.4148   20.5317 H   0  0  0  0  0  0  0  0  0  0  0  0
   18.5909   19.6206   22.1750 C   0  0  0  0  0  0  0  0  0  0  0  0
   18.4901   20.6721   22.4698 H   0  0  0  0  0  0  0  0  0  0  0  0
   17.5937   19.2183   21.9651 H   0  0  0  0  0  0  0  0  0  0  0  0
   19.4768   18.7690   23.1369 C   0  0  0  0  0  0  0  0  0  0  0  0
   19.4777   19.1105   24.1801 H   0  0  0  0  0  0  0  0  0  0  0  0
   20.6857   19.2672   22.2847 C   0  0  0  0  0  0  0  0  0  0  0  0
   21.5143   18.5601   22.1677 H   0  0  0  0  0  0  0  0  0  0  0  0
   21.0933   20.2335   22.6057 H   0  0  0  0  0  0  0  0  0  0  0  0
   19.2427   17.3759   23.0842 O   0  0  0  0  0  0  0  0  0  0  0  0
   19.9631   16.9408   23.5880 H   0  0  0  0  0  0  0  0  0  0  0  0
  1  2  1  0  0  0  0
  1  3  1  0  0  0  0
  1  4  1  0  0  0  0
  4  5  1  0  0  0  0
  4  6  1  0  0  0  0
  4  7  1  0  0  0  0
  7  8  1  0  0  0  0
  1  9  1  0  0  0  0
  7  9  1  0  0  0  0
  9 10  1  0  0  0  0
  9 11  1  0  0  0  0
  7 12  1  0  0  0  0
 12 13  1  0  0  0  0
M  END
> <VConfSearch Rank>
803

> <Conf_Id>
20

> <Delta U+W>
1.030

> <U+W>
-2.101

> <U>
0.841

> <W>
-2.942

> <W(PB)>
-4.530

> <W(SA)>
1.587

> <Valence>
6.736

> <Coulomb>
-7.246

> <VdW>
1.352

> <VdW6>
-2.500

> <VdW12>
3.851

> <Bond>
0.063

> <Angle>
0.687

> <Pdih>
5.986

> <Idih>
0.000

> <Tether>
0.000

$$$$
VeraChem MOL file


 13 13  0  0  0  0  0  0  0  0999 V2000     
   19.1618   20.0833   22.0586 C   0  0  0  0  0  0  0  0  0  0  0  0
   18.5326   20.4535   22.8788 H   0  0  0  0  0  0  0  0  0  0  0  0
   19.1416   20.8167   21.2437 H   0  0  0  0  0  0  0  0  0  0  0  0
   18.8974   18.5961   21.6515 C   0  0  0  0  0  0  0  0  0  0  0  0
   17.8661   18.2426   21.7601 H   0  0  0  0  0  0  0  0  0  0  0  0
   19.2593   18.3240   20.6524 H   0  0  0  0  0  0  0  0  0  0  0  0
   19.8636   18.2332   22.8193 C   0  0  0  0  0  0  0  0  0  0  0  0
   19.3803   18.2123   23.8055 H   0  0  0  0  0  0  0  0  0  0  0  0
   20.5772   19.5805   22.4958 C   0  0  0  0  0  0  0  0  0  0  0  0
   21.3147   19.5285   21.6853 H   0  0  0  0  0  0  0  0  0  0  0  0
   21.0295   20.0964   23.3500 H   0  0  0  0  0  0  0  0  0  0  0  0
   20.6404   17.0756   22.6235 O   0  0  0  0  0  0  0  0  0  0  0  0
   21.0441   17.1501   21.7334 H   0  0  0  0  0  0  0  0  0  0  0  0
  1  2  1  0  0  0  0
  1  3  1  0  0  0  0
  1  4  1  0  0  0  0
  4  5  1  0  0  0  0
  4  6  1  0  0  0  0
  4  7  1  0  0  0  0
  7  8  1  0  0  0  0
  1  9  1  0  0  0  0
  7  9  1  0  0  0  0
  9 10  1  0  0  0  0
  9 11  1  0  0  0  0
  7 12  1  0  0  0  0
 12 13  1  0  0  0  0
M  END
> <VConfSearch Rank>
804

> <Conf_Id>
24

> <Delta U+W>
0.356

> <U+W>
-2.775

> <U>
-0.184

> <W>
-2.591

> <W(PB)>
-4.184

> <W(SA)>
1.593

> <Valence>
6.840

> <Coulomb>
-7.916

> <VdW>
0.893

> <VdW6>
-2.167

> <VdW12>
3.060

> <Bond>
0.059

> <Angle>
0.918

> <Pdih>
5.862

> <Idih>
0.000

> <Tether>
0.000

$$$$
VeraChem MOL file


 13 13  0  0  0  0  0  0  0  0999 V2000     
   20.5864   18.3678   21.8854 C   0  0  0  0  0  0  0  0  0  0  0  0
   21.3956   18.2661   21.1525 H   0  0  0  0  0  0  0  0  0  0  0  0
   20.6701   17.5479   22.6101 H   0  0  0  0  0  0  0  0  0  0  0  0
   19.1522   18.5816   21.2959 C   0  0  0  0  0  0  0  0  0  0  0  0
   19.1309   19.1134   20.3369 H   0  0  0  0  0  0  0  0  0  0  0  0
   18.5260   17.6863   21.2115 H   0  0  0  0  0  0  0  0  0  0  0  0
   18.8786   19.4907   22.5340 C   0  0  0  0  0  0  0  0  0  0  0  0
   18.2377   20.3591   22.3352 H   0  0  0  0  0  0  0  0  0  0  0  0
   20.4098   19.7892   22.5168 C   0  0  0  0  0  0  0  0  0  0  0  0
   20.6969   20.6171   21.8571 H   0  0  0  0  0  0  0  0  0  0  0  0
   20.8783   19.9450   23.4950 H   0  0  0  0  0  0  0  0  0  0  0  0
   18.4220   18.8067   23.6809 O   0  0  0  0  0  0  0  0  0  0  0  0
   19.0272   18.0472   23.8087 H   0  0  0  0  0  0  0  0  0  0  0  0
  1  2  1  0  0  0  0
  1  3  1  0  0  0  0
  1  4  1  0  0  0  0
  4  5  1  0  0  0  0
  4  6  1  0  0  0  0
  4  7  1  0  0  0  0
  7  8  1  0  0  0  0
  1  9  1  0  0  0  0
  7  9  1  0  0  0  0
  9 10  1  0  0  0  0
  9 11  1  0  0  0  0
  7 12  1  0  0  0  0
 12 13  1  0  0  0  0
M  END
> <VConfSearch Rank>
805

> <Conf_Id>
44

> <Delta U+W>
0.823

> <U+W>
-2.308

> <U>
0.039

> <W>
-2.348

> <W(PB)>
-3.918

> <W(SA)>
1.571

> <Valence>
7.320

> <Coulomb>
-8.530

> <VdW>
1.249

> <VdW6>
-2.615

> <VdW12>
3.864

> <Bond>
0.056

> <Angle>
0.694

> <Pdih>
6.570

> <Idih>
0.000

> <Tether>
0.000

$$$$
VeraChem MOL file


 13 13  0  0  0  0  0  0  0  0999 V2000     
   19.3439   18.1551   21.3271 C   0  0  0  0  0  0  0  0  0  0  0  0
   19.0605   17.1788   21.7419 H   0  0  0  0  0  0  0  0  0  0  0  0
   19.2232   18.1215   20.2378 H   0  0  0  0  0  0  0  0  0  0  0  0
   20.7066   18.7177   21.8503 C   0  0  0  0  0  0  0  0  0  0  0  0
   21.4771   17.9760   22.0872 H   0  0  0  0  0  0  0  0  0  0  0  0
   21.1515   19.5010   21.2241 H   0  0  0  0  0  0  0  0  0  0  0  0
   19.8830   19.2497   23.0616 C   0  0  0  0  0  0  0  0  0  0  0  0
   19.7143   18.4994   23.8462 H   0  0  0  0  0  0  0  0  0  0  0  0
   18.7036   19.3849   22.0517 C   0  0  0  0  0  0  0  0  0  0  0  0
   17.7006   19.2326   22.4650 H   0  0  0  0  0  0  0  0  0  0  0  0
   18.7077   20.3138   21.4678 H   0  0  0  0  0  0  0  0  0  0  0  0
   20.3424   20.4600   23.6173 O   0  0  0  0  0  0  0  0  0  0  0  0
   19.6582   20.7674   24.2502 H   0  0  0  0  0  0  0  0  0  0  0  0
  1  2  1  0  0  0  0
  1  3  1  0  0  0  0
  1  4  1  0  0  0  0
  4  5  1  0  0  0  0
  4  6  1  0  0  0  0
  4  7  1  0  0  0  0
  7  8  1  0  0  0  0
  1  9  1  0  0  0  0
  7  9  1  0  0  0  0
  9 10  1  0  0  0  0
  9 11  1  0  0  0  0
  7 12  1  0  0  0  0
 12 13  1  0  0  0  0
M  END
> <VConfSearch Rank>
806

> <Conf_Id>
22

> <Delta U+W>
0.000

> <U+W>
-3.131

> <U>
-0.154

> <W>
-2.978

> <W(PB)>
-4.579

> <W(SA)>
1.601

> <Valence>
6.333

> <Coulomb>
-7.439

> <VdW>
0.952

> <VdW6>
-2.120

> <VdW12>
3.072

> <Bond>
0.065

> <Angle>
0.931

> <Pdih>
5.338

> <Idih>
0.000

> <Tether>
0.000

$$$$
VeraChem MOL file


 13 13  0  0  0  0  0  0  0  0999 V2000     
   20.6169   18.6734   23.0841 C   0  0  0  0  0  0  0  0  0  0  0  0
   20.3834   17.8822   23.8087 H   0  0  0  0  0  0  0  0  0  0  0  0
   21.6144   19.0700   23.3076 H   0  0  0  0  0  0  0  0  0  0  0  0
   19.4844   19.7343   22.8856 C   0  0  0  0  0  0  0  0  0  0  0  0
   19.8153   20.6790   22.4364 H   0  0  0  0  0  0  0  0  0  0  0  0
   18.8732   19.9578   23.7669 H   0  0  0  0  0  0  0  0  0  0  0  0
   18.8746   18.7157   21.8757 C   0  0  0  0  0  0  0  0  0  0  0  0
   18.2713   17.9276   22.3468 H   0  0  0  0  0  0  0  0  0  0  0  0
   20.3474   18.2934   21.5907 C   0  0  0  0  0  0  0  0  0  0  0  0
   20.8661   18.9214   20.8557 H   0  0  0  0  0  0  0  0  0  0  0  0
   20.4983   17.2416   21.3244 H   0  0  0  0  0  0  0  0  0  0  0  0
   18.1895   19.2853   20.7846 O   0  0  0  0  0  0  0  0  0  0  0  0
   17.3474   19.6527   21.1298 H   0  0  0  0  0  0  0  0  0  0  0  0
  1  2  1  0  0  0  0
  1  3  1  0  0  0  0
  1  4  1  0  0  0  0
  4  5  1  0  0  0  0
  4  6  1  0  0  0  0
  4  7  1  0  0  0  0
  7  8  1  0  0  0  0
  1  9  1  0  0  0  0
  7  9  1  0  0  0  0
  9 10  1  0  0  0  0
  9 11  1  0  0  0  0
  7 12  1  0  0  0  0
 12 13  1  0  0  0  0
M  END
> <VConfSearch Rank>
807

> <Conf_Id>
19

> <Delta U+W>
-0.011

> <U+W>
-3.142

> <U>
-0.154

> <W>
-2.989

> <W(PB)>
-4.588

> <W(SA)>
1.599

> <Valence>
6.334

> <Coulomb>
-7.439

> <VdW>
0.951

> <VdW6>
-2.120

> <VdW12>
3.072

> <Bond>
0.065

> <Angle>
0.930

> <Pdih>
5.339

> <Idih>
0.000

> <Tether>
0.000

$$$$
VeraChem MOL file


 13 13  0  0  0  0  0  0  0  0999 V2000     
   18.8648   19.4223   21.3900 C   0  0  0  0  0  0  0  0  0  0  0  0
   18.4305   20.2893   20.8785 H   0  0  0  0  0  0  0  0  0  0  0  0
   18.5318   18.5098   20.8786 H   0  0  0  0  0  0  0  0  0  0  0  0
   18.7048   19.3897   22.9464 C   0  0  0  0  0  0  0  0  0  0  0  0
   18.6820   20.3776   23.4223 H   0  0  0  0  0  0  0  0  0  0  0  0
   17.8687   18.7957   23.3318 H   0  0  0  0  0  0  0  0  0  0  0  0
   20.1021   18.6956   22.9805 C   0  0  0  0  0  0  0  0  0  0  0  0
   20.7288   18.9716   23.8384 H   0  0  0  0  0  0  0  0  0  0  0  0
   20.4032   19.4869   21.6693 C   0  0  0  0  0  0  0  0  0  0  0  0
   21.0454   18.9808   20.9401 H   0  0  0  0  0  0  0  0  0  0  0  0
   20.7923   20.4989   21.8351 H   0  0  0  0  0  0  0  0  0  0  0  0
   20.0716   17.2898   22.8361 O   0  0  0  0  0  0  0  0  0  0  0  0
   20.9957   16.9918   22.6970 H   0  0  0  0  0  0  0  0  0  0  0  0
  1  2  1  0  0  0  0
  1  3  1  0  0  0  0
  1  4  1  0  0  0  0
  4  5  1  0  0  0  0
  4  6  1  0  0  0  0
  4  7  1  0  0  0  0
  7  8  1  0  0  0  0
  1  9  1  0  0  0  0
  7  9  1  0  0  0  0
  9 10  1  0  0  0  0
  9 11  1  0  0  0  0
  7 12  1  0  0  0  0
 12 13  1  0  0  0  0
M  END
> <VConfSearch Rank>
808

> <Conf_Id>
20

> <Delta U+W>
1.030

> <U+W>
-2.101

> <U>
0.841

> <W>
-2.942

> <W(PB)>
-4.530

> <W(SA)>
1.587

> <Valence>
6.736

> <Coulomb>
-7.246

> <VdW>
1.352

> <VdW6>
-2.500

> <VdW12>
3.851

> <Bond>
0.063

> <Angle>
0.687

> <Pdih>
5.986

> <Idih>
0.000

> <Tether>
0.000

$$$$
VeraChem MOL file


 13 13  0  0  0  0  0  0  0  0999 V2000     
   20.9196   18.4490   22.0980 C   0  0  0  0  0  0  0  0  0  0  0  0
   21.5946   18.5135   22.9618 H   0  0  0  0  0  0  0  0  0  0  0  0
   21.4419   17.9331   21.2835 H   0  0  0  0  0  0  0  0  0  0  0  0
   20.2124   19.7920   21.7190 C   0  0  0  0  0  0  0  0  0  0  0  0
   20.7840   20.7076   21.9069 H   0  0  0  0  0  0  0  0  0  0  0  0
   19.8164   19.8279   20.6966 H   0  0  0  0  0  0  0  0  0  0  0  0
   19.1695   19.4090   22.8121 C   0  0  0  0  0  0  0  0  0  0  0  0
   19.4762   19.6777   23.8321 H   0  0  0  0  0  0  0  0  0  0  0  0
   19.4813   17.9307   22.4293 C   0  0  0  0  0  0  0  0  0  0  0  0
   18.9218   17.5505   21.5656 H   0  0  0  0  0  0  0  0  0  0  0  0
   19.4070   17.2024   23.2444 H   0  0  0  0  0  0  0  0  0  0  0  0
   17.8502   19.8324   22.5635 O   0  0  0  0  0  0  0  0  0  0  0  0
   17.6336   19.5670   21.6451 H   0  0  0  0  0  0  0  0  0  0  0  0
  1  2  1  0  0  0  0
  1  3  1  0  0  0  0
  1  4  1  0  0  0  0
  4  5  1  0  0  0  0
  4  6  1  0  0  0  0
  4  7  1  0  0  0  0
  7  8  1  0  0  0  0
  1  9  1  0  0  0  0
  7  9  1  0  0  0  0
  9 10  1  0  0  0  0
  9 11  1  0  0  0  0
  7 12  1  0  0  0  0
 12 13  1  0  0  0  0
M  END
> <VConfSearch Rank>
809

> <Conf_Id>
24

> <Delta U+W>
0.356

> <U+W>
-2.775

> <U>
-0.184

> <W>
-2.591

> <W(PB)>
-4.184

> <W(SA)>
1.593

> <Valence>
6.840

> <Coulomb>
-7.916

> <VdW>
0.893

> <VdW6>
-2.167

> <VdW12>
3.060

> <Bond>
0.059

> <Angle>
0.918

> <Pdih>
5.862

> <Idih>
0.000

> <Tether>
0.000

$$$$
VeraChem MOL file


 13 13  0  0  0  0  0  0  0  0999 V2000     
   19.3514   19.3600   23.2080 C   0  0  0  0  0  0  0  0  0  0  0  0
   19.4213   20.1770   23.9361 H   0  0  0  0  0  0  0  0  0  0  0  0
   18.6676   18.5992   23.6054 H   0  0  0  0  0  0  0  0  0  0  0  0
   20.7125   18.8052   22.6696 C   0  0  0  0  0  0  0  0  0  0  0  0
   21.5195   19.5468   22.6275 H   0  0  0  0  0  0  0  0  0  0  0  0
   21.0943   17.9026   23.1598 H   0  0  0  0  0  0  0  0  0  0  0  0
   19.9795   18.5844   21.3101 C   0  0  0  0  0  0  0  0  0  0  0  0
   20.5970   18.7603   20.4200 H   0  0  0  0  0  0  0  0  0  0  0  0
   19.0747   19.7850   21.7272 C   0  0  0  0  0  0  0  0  0  0  0  0
   19.4802   20.7668   21.4540 H   0  0  0  0  0  0  0  0  0  0  0  0
   18.0310   19.7353   21.3972 H   0  0  0  0  0  0  0  0  0  0  0  0
   19.3071   17.3491   21.1944 O   0  0  0  0  0  0  0  0  0  0  0  0
   18.7758   17.2462   22.0108 H   0  0  0  0  0  0  0  0  0  0  0  0
  1  2  1  0  0  0  0
  1  3  1  0  0  0  0
  1  4  1  0  0  0  0
  4  5  1  0  0  0  0
  4  6  1  0  0  0  0
  4  7  1  0  0  0  0
  7  8  1  0  0  0  0
  1  9  1  0  0  0  0
  7  9  1  0  0  0  0
  9 10  1  0  0  0  0
  9 11  1  0  0  0  0
  7 12  1  0  0  0  0
 12 13  1  0  0  0  0
M  END
> <VConfSearch Rank>
810

> <Conf_Id>
44

> <Delta U+W>
0.823

> <U+W>
-2.308

> <U>
0.039

> <W>
-2.348

> <W(PB)>
-3.918

> <W(SA)>
1.571

> <Valence>
7.320

> <Coulomb>
-8.530

> <VdW>
1.249

> <VdW6>
-2.615

> <VdW12>
3.864

> <Bond>
0.056

> <Angle>
0.694

> <Pdih>
6.570

> <Idih>
0.000

> <Tether>
0.000

$$$$
VeraChem MOL file


 13 13  0  0  0  0  0  0  0  0999 V2000     
   20.3047   18.6442   21.1640 C   0  0  0  0  0  0  0  0  0  0  0  0
   19.6466   18.5071   20.2959 H   0  0  0  0  0  0  0  0  0  0  0  0
   21.3388   18.4527   20.8534 H   0  0  0  0  0  0  0  0  0  0  0  0
   19.8320   17.9157   22.4652 C   0  0  0  0  0  0  0  0  0  0  0  0
   19.2987   16.9695   22.3231 H   0  0  0  0  0  0  0  0  0  0  0  0
   20.6142   17.7701   23.2205 H   0  0  0  0  0  0  0  0  0  0  0  0
   18.9366   19.1701   22.6966 C   0  0  0  0  0  0  0  0  0  0  0  0
   17.9845   19.1416   22.1492 H   0  0  0  0  0  0  0  0  0  0  0  0
   20.0620   19.9644   21.9674 C   0  0  0  0  0  0  0  0  0  0  0  0
   19.7336   20.8310   21.3832 H   0  0  0  0  0  0  0  0  0  0  0  0
   20.8963   20.2684   22.6119 H   0  0  0  0  0  0  0  0  0  0  0  0
   18.7280   19.5207   24.0450 O   0  0  0  0  0  0  0  0  0  0  0  0
   18.2968   20.4023   24.0528 H   0  0  0  0  0  0  0  0  0  0  0  0
  1  2  1  0  0  0  0
  1  3  1  0  0  0  0
  1  4  1  0  0  0  0
  4  5  1  0  0  0  0
  4  6  1  0  0  0  0
  4  7  1  0  0  0  0
  7  8  1  0  0  0  0
  1  9  1  0  0  0  0
  7  9  1  0  0  0  0
  9 10  1  0  0  0  0
  9 11  1  0  0  0  0
  7 12  1  0  0  0  0
 12 13  1  0  0  0  0
M  END
> <VConfSearch Rank>
811

> <Conf_Id>
22

> <Delta U+W>
0.000

> <U+W>
-3.131

> <U>
-0.154

> <W>
-2.978

> <W(PB)>
-4.579

> <W(SA)>
1.601

> <Valence>
6.333

> <Coulomb>
-7.439

> <VdW>
0.952

> <VdW6>
-2.120

> <VdW12>
3.072

> <Bond>
0.065

> <Angle>
0.931

> <Pdih>
5.338

> <Idih>
0.000

> <Tether>
0.000

$$$$
VeraChem MOL file


 13 13  0  0  0  0  0  0  0  0999 V2000     
   19.2618   17.6837   22.4980 C   0  0  0  0  0  0  0  0  0  0  0  0
   20.1020   17.0205   22.7422 H   0  0  0  0  0  0  0  0  0  0  0  0
   18.3395   17.0907   22.4852 H   0  0  0  0  0  0  0  0  0  0  0  0
   19.4987   18.6125   21.2617 C   0  0  0  0  0  0  0  0  0  0  0  0
   18.5845   19.0247   20.8165 H   0  0  0  0  0  0  0  0  0  0  0  0
   20.1257   18.2014   20.4629 H   0  0  0  0  0  0  0  0  0  0  0  0
   20.2152   19.5638   22.2670 C   0  0  0  0  0  0  0  0  0  0  0  0
   21.2621   19.2960   22.4656 H   0  0  0  0  0  0  0  0  0  0  0  0
   19.2137   19.0107   23.3251 C   0  0  0  0  0  0  0  0  0  0  0  0
   18.2381   19.5124   23.3332 H   0  0  0  0  0  0  0  0  0  0  0  0
   19.5893   18.9541   24.3526 H   0  0  0  0  0  0  0  0  0  0  0  0
   20.0955   20.9390   21.9855 O   0  0  0  0  0  0  0  0  0  0  0  0
   20.6560   21.1251   21.2016 H   0  0  0  0  0  0  0  0  0  0  0  0
  1  2  1  0  0  0  0
  1  3  1  0  0  0  0
  1  4  1  0  0  0  0
  4  5  1  0  0  0  0
  4  6  1  0  0  0  0
  4  7  1  0  0  0  0
  7  8  1  0  0  0  0
  1  9  1  0  0  0  0
  7  9  1  0  0  0  0
  9 10  1  0  0  0  0
  9 11  1  0  0  0  0
  7 12  1  0  0  0  0
 12 13  1  0  0  0  0
M  END
> <VConfSearch Rank>
812

> <Conf_Id>
19

> <Delta U+W>
-0.011

> <U+W>
-3.142

> <U>
-0.154

> <W>
-2.989

> <W(PB)>
-4.588

> <W(SA)>
1.599

> <Valence>
6.334

> <Coulomb>
-7.439

> <VdW>
0.951

> <VdW6>
-2.120

> <VdW12>
3.072

> <Bond>
0.065

> <Angle>
0.930

> <Pdih>
5.339

> <Idih>
0.000

> <Tether>
0.000

$$$$
VeraChem MOL file


 13 13  0  0  0  0  0  0  0  0999 V2000     
   19.4261   19.8334   21.3491 C   0  0  0  0  0  0  0  0  0  0  0  0
   18.8245   20.6820   21.0027 H   0  0  0  0  0  0  0  0  0  0  0  0
   20.1923   19.6148   20.5939 H   0  0  0  0  0  0  0  0  0  0  0  0
   18.6291   18.5821   21.8469 C   0  0  0  0  0  0  0  0  0  0  0  0
   17.6574   18.8123   22.3002 H   0  0  0  0  0  0  0  0  0  0  0  0
   18.4933   17.7765   21.1169 H   0  0  0  0  0  0  0  0  0  0  0  0
   19.7826   18.3756   22.8775 C   0  0  0  0  0  0  0  0  0  0  0  0
   19.4602   17.9894   23.8531 H   0  0  0  0  0  0  0  0  0  0  0  0
   19.9653   19.9244   22.8153 C   0  0  0  0  0  0  0  0  0  0  0  0
   20.9914   20.2916   22.9278 H   0  0  0  0  0  0  0  0  0  0  0  0
   19.3173   20.4808   23.5034 H   0  0  0  0  0  0  0  0  0  0  0  0
   20.8806   17.6250   22.3989 O   0  0  0  0  0  0  0  0  0  0  0  0
   21.6015   17.7117   23.0584 H   0  0  0  0  0  0  0  0  0  0  0  0
  1  2  1  0  0  0  0
  1  3  1  0  0  0  0
  1  4  1  0  0  0  0
  4  5  1  0  0  0  0
  4  6  1  0  0  0  0
  4  7  1  0  0  0  0
  7  8  1  0  0  0  0
  1  9  1  0  0  0  0
  7  9  1  0  0  0  0
  9 10  1  0  0  0  0
  9 11  1  0  0  0  0
  7 12  1  0  0  0  0
 12 13  1  0  0  0  0
M  END
> <VConfSearch Rank>
813

> <Conf_Id>
20

> <Delta U+W>
1.030

> <U+W>
-2.101

> <U>
0.841

> <W>
-2.942

> <W(PB)>
-4.530

> <W(SA)>
1.587

> <Valence>
6.736

> <Coulomb>
-7.246

> <VdW>
1.352

> <VdW6>
-2.500

> <VdW12>
3.851

> <Bond>
0.063

> <Angle>
0.687

> <Pdih>
5.986

> <Idih>
0.000

> <Tether>
0.000

$$$$
VeraChem MOL file


 13 13  0  0  0  0  0  0  0  0999 V2000     
   19.9840   19.4887   23.3523 C   0  0  0  0  0  0  0  0  0  0  0  0
   20.8230   20.1931   23.4263 H   0  0  0  0  0  0  0  0  0  0  0  0
   19.5123   19.4014   24.3383 H   0  0  0  0  0  0  0  0  0  0  0  0
   20.3220   18.1425   22.6307 C   0  0  0  0  0  0  0  0  0  0  0  0
   21.3454   17.7720   22.7559 H   0  0  0  0  0  0  0  0  0  0  0  0
   19.6231   17.3232   22.8399 H   0  0  0  0  0  0  0  0  0  0  0  0
   20.0411   18.9216   21.3104 C   0  0  0  0  0  0  0  0  0  0  0  0
   20.8968   19.5093   20.9509 H   0  0  0  0  0  0  0  0  0  0  0  0
   19.0182   19.7461   22.1488 C   0  0  0  0  0  0  0  0  0  0  0  0
   18.0278   19.2852   22.2504 H   0  0  0  0  0  0  0  0  0  0  0  0
   18.8901   20.7919   21.8485 H   0  0  0  0  0  0  0  0  0  0  0  0
   19.4893   18.1586   20.2639 O   0  0  0  0  0  0  0  0  0  0  0  0
   18.7354   17.6591   20.6418 H   0  0  0  0  0  0  0  0  0  0  0  0
  1  2  1  0  0  0  0
  1  3  1  0  0  0  0
  1  4  1  0  0  0  0
  4  5  1  0  0  0  0
  4  6  1  0  0  0  0
  4  7  1  0  0  0  0
  7  8  1  0  0  0  0
  1  9  1  0  0  0  0
  7  9  1  0  0  0  0
  9 10  1  0  0  0  0
  9 11  1  0  0  0  0
  7 12  1  0  0  0  0
 12 13  1  0  0  0  0
M  END
> <VConfSearch Rank>
814

> <Conf_Id>
24

> <Delta U+W>
0.356

> <U+W>
-2.775

> <U>
-0.184

> <W>
-2.591

> <W(PB)>
-4.184

> <W(SA)>
1.593

> <Valence>
6.840

> <Coulomb>
-7.916

> <VdW>
0.893

> <VdW6>
-2.167

> <VdW12>
3.060

> <Bond>
0.059

> <Angle>
0.918

> <Pdih>
5.862

> <Idih>
0.000

> <Tether>
0.000

$$$$
VeraChem MOL file


 13 13  0  0  0  0  0  0  0  0999 V2000     
   19.9114   19.2709   23.2714 C   0  0  0  0  0  0  0  0  0  0  0  0
   20.5486   19.8700   23.9328 H   0  0  0  0  0  0  0  0  0  0  0  0
   19.1769   18.7372   23.8879 H   0  0  0  0  0  0  0  0  0  0  0  0
   20.6589   18.3829   22.2213 C   0  0  0  0  0  0  0  0  0  0  0  0
   21.6175   18.7931   21.8810 H   0  0  0  0  0  0  0  0  0  0  0  0
   20.8074   17.3323   22.4951 H   0  0  0  0  0  0  0  0  0  0  0  0
   19.4648   18.6749   21.2606 C   0  0  0  0  0  0  0  0  0  0  0  0
   19.7393   18.7802   20.2032 H   0  0  0  0  0  0  0  0  0  0  0  0
   19.3124   20.0207   22.0349 C   0  0  0  0  0  0  0  0  0  0  0  0
   19.9409   20.8326   21.6489 H   0  0  0  0  0  0  0  0  0  0  0  0
   18.2889   20.3958   22.1464 H   0  0  0  0  0  0  0  0  0  0  0  0
   18.3721   17.7912   21.3896 O   0  0  0  0  0  0  0  0  0  0  0  0
   18.1727   17.7363   22.3469 H   0  0  0  0  0  0  0  0  0  0  0  0
  1  2  1  0  0  0  0
  1  3  1  0  0  0  0
  1  4  1  0  0  0  0
  4  5  1  0  0  0  0
  4  6  1  0  0  0  0
  4  7  1  0  0  0  0
  7  8  1  0  0  0  0
  1  9  1  0  0  0  0
  7  9  1  0  0  0  0
  9 10  1  0  0  0  0
  9 11  1  0  0  0  0
  7 12  1  0  0  0  0
 12 13  1  0  0  0  0
M  END
> <VConfSearch Rank>
815

> <Conf_Id>
44

> <Delta U+W>
0.823

> <U+W>
-2.308

> <U>
0.039

> <W>
-2.348

> <W(PB)>
-3.918

> <W(SA)>
1.571

> <Valence>
7.320

> <Coulomb>
-8.530

> <VdW>
1.249

> <VdW6>
-2.615

> <VdW12>
3.864

> <Bond>
0.056

> <Angle>
0.694

> <Pdih>
6.570

> <Idih>
0.000

> <Tether>
0.000

$$$$
VeraChem MOL file


 13 13  0  0  0  0  0  0  0  0999 V2000     
   20.5193   18.1719   21.7419 C   0  0  0  0  0  0  0  0  0  0  0  0
   21.5362   18.5706   21.6293 H   0  0  0  0  0  0  0  0  0  0  0  0
   20.5204   17.1183   21.4383 H   0  0  0  0  0  0  0  0  0  0  0  0
   19.3942   19.0644   21.1215 C   0  0  0  0  0  0  0  0  0  0  0  0
   19.6664   19.6324   20.2252 H   0  0  0  0  0  0  0  0  0  0  0  0
   18.4456   18.5454   20.9358 H   0  0  0  0  0  0  0  0  0  0  0  0
   19.4468   19.8524   22.4650 C   0  0  0  0  0  0  0  0  0  0  0  0
   20.2414   20.6102   22.5032 H   0  0  0  0  0  0  0  0  0  0  0  0
   19.8393   18.4909   23.1141 C   0  0  0  0  0  0  0  0  0  0  0  0
   20.5066   18.5495   23.9810 H   0  0  0  0  0  0  0  0  0  0  0  0
   18.9895   17.8440   23.3656 H   0  0  0  0  0  0  0  0  0  0  0  0
   18.2189   20.3932   22.8945 O   0  0  0  0  0  0  0  0  0  0  0  0
   18.3481   20.7146   23.8127 H   0  0  0  0  0  0  0  0  0  0  0  0
  1  2  1  0  0  0  0
  1  3  1  0  0  0  0
  1  4  1  0  0  0  0
  4  5  1  0  0  0  0
  4  6  1  0  0  0  0
  4  7  1  0  0  0  0
  7  8  1  0  0  0  0
  1  9  1  0  0  0  0
  7  9  1  0  0  0  0
  9 10  1  0  0  0  0
  9 11  1  0  0  0  0
  7 12  1  0  0  0  0
 12 13  1  0  0  0  0
M  END
> <VConfSearch Rank>
816

> <Conf_Id>
22

> <Delta U+W>
0.000

> <U+W>
-3.131

> <U>
-0.154

> <W>
-2.978

> <W(PB)>
-4.579

> <W(SA)>
1.601

> <Valence>
6.333

> <Coulomb>
-7.439

> <VdW>
0.952

> <VdW6>
-2.120

> <VdW12>
3.072

> <Bond>
0.065

> <Angle>
0.931

> <Pdih>
5.338

> <Idih>
0.000

> <Tether>
0.000

$$$$
VeraChem MOL file


 13 13  0  0  0  0  0  0  0  0999 V2000     
   18.9711   20.0518   22.0462 C   0  0  0  0  0  0  0  0  0  0  0  0
   18.5441   20.1352   21.0380 H   0  0  0  0  0  0  0  0  0  0  0  0
   18.7623   20.9791   22.5929 H   0  0  0  0  0  0  0  0  0  0  0  0
   20.4509   19.5462   22.0906 C   0  0  0  0  0  0  0  0  0  0  0  0
   20.9825   19.7669   23.0246 H   0  0  0  0  0  0  0  0  0  0  0  0
   21.0854   19.8373   21.2463 H   0  0  0  0  0  0  0  0  0  0  0  0
   19.8363   18.1158   22.0177 C   0  0  0  0  0  0  0  0  0  0  0  0
   19.5885   17.7883   20.9987 H   0  0  0  0  0  0  0  0  0  0  0  0
   18.6282   18.7213   22.7941 C   0  0  0  0  0  0  0  0  0  0  0  0
   18.7601   18.7585   23.8826 H   0  0  0  0  0  0  0  0  0  0  0  0
   17.6503   18.2801   22.5725 H   0  0  0  0  0  0  0  0  0  0  0  0
   20.5532   17.1160   22.7040 O   0  0  0  0  0  0  0  0  0  0  0  0
   21.3693   16.9380   22.1888 H   0  0  0  0  0  0  0  0  0  0  0  0
  1  2  1  0  0  0  0
  1  3  1  0  0  0  0
  1  4  1  0  0  0  0
  4  5  1  0  0  0  0
  4  6  1  0  0  0  0
  4  7  1  0  0  0  0
  7  8  1  0  0  0  0
  1  9  1  0  0  0  0
  7  9  1  0  0  0  0
  9 10  1  0  0  0  0
  9 11  1  0  0  0  0
  7 12  1  0  0  0  0
 12 13  1  0  0  0  0
M  END
> <VConfSearch Rank>
817

> <Conf_Id>
19

> <Delta U+W>
-0.011

> <U+W>
-3.142

> <U>
-0.154

> <W>
-2.989

> <W(PB)>
-4.588

> <W(SA)>
1.599

> <Valence>
6.334

> <Coulomb>
-7.439

> <VdW>
0.951

> <VdW6>
-2.120

> <VdW12>
3.072

> <Bond>
0.065

> <Angle>
0.930

> <Pdih>
5.339

> <Idih>
0.000

> <Tether>
0.000

$$$$
VeraChem MOL file


 13 13  0  0  0  0  0  0  0  0999 V2000     
   20.0492   20.0682   22.8415 C   0  0  0  0  0  0  0  0  0  0  0  0
   20.5421   20.4622   23.7380 H   0  0  0  0  0  0  0  0  0  0  0  0
   19.9162   20.8889   22.1245 H   0  0  0  0  0  0  0  0  0  0  0  0
   18.7674   19.2038   23.0843 C   0  0  0  0  0  0  0  0  0  0  0  0
   18.7699   18.6406   24.0253 H   0  0  0  0  0  0  0  0  0  0  0  0
   17.8094   19.7273   22.9917 H   0  0  0  0  0  0  0  0  0  0  0  0
   19.2084   18.3716   21.8399 C   0  0  0  0  0  0  0  0  0  0  0  0
   18.9884   17.2983   21.9064 H   0  0  0  0  0  0  0  0  0  0  0  0
   20.6667   18.7659   22.2322 C   0  0  0  0  0  0  0  0  0  0  0  0
   21.3654   18.9091   21.4005 H   0  0  0  0  0  0  0  0  0  0  0  0
   21.1303   18.0966   22.9671 H   0  0  0  0  0  0  0  0  0  0  0  0
   18.7660   18.8800   20.5973 O   0  0  0  0  0  0  0  0  0  0  0  0
   19.2422   18.3871   19.8955 H   0  0  0  0  0  0  0  0  0  0  0  0
  1  2  1  0  0  0  0
  1  3  1  0  0  0  0
  1  4  1  0  0  0  0
  4  5  1  0  0  0  0
  4  6  1  0  0  0  0
  4  7  1  0  0  0  0
  7  8  1  0  0  0  0
  1  9  1  0  0  0  0
  7  9  1  0  0  0  0
  9 10  1  0  0  0  0
  9 11  1  0  0  0  0
  7 12  1  0  0  0  0
 12 13  1  0  0  0  0
M  END
> <VConfSearch Rank>
818

> <Conf_Id>
20

> <Delta U+W>
1.030

> <U+W>
-2.101

> <U>
0.841

> <W>
-2.942

> <W(PB)>
-4.530

> <W(SA)>
1.587

> <Valence>
6.736

> <Coulomb>
-7.246

> <VdW>
1.352

> <VdW6>
-2.500

> <VdW12>
3.851

> <Bond>
0.063

> <Angle>
0.687

> <Pdih>
5.986

> <Idih>
0.000

> <Tether>
0.000

$$$$
VeraChem MOL file


 13 13  0  0  0  0  0  0  0  0999 V2000     
   20.4066   19.8789   21.6199 C   0  0  0  0  0  0  0  0  0  0  0  0
   20.4392   20.8704   22.0905 H   0  0  0  0  0  0  0  0  0  0  0  0
   20.9857   19.9139   20.6894 H   0  0  0  0  0  0  0  0  0  0  0  0
   18.9777   19.2505   21.5168 C   0  0  0  0  0  0  0  0  0  0  0  0
   18.1500   19.9551   21.3796 H   0  0  0  0  0  0  0  0  0  0  0  0
   18.8833   18.4479   20.7750 H   0  0  0  0  0  0  0  0  0  0  0  0
   19.2189   18.7662   22.9784 C   0  0  0  0  0  0  0  0  0  0  0  0
   18.9994   19.5266   23.7402 H   0  0  0  0  0  0  0  0  0  0  0  0
   20.7243   18.6873   22.5825 C   0  0  0  0  0  0  0  0  0  0  0  0
   21.0203   17.7587   22.0789 H   0  0  0  0  0  0  0  0  0  0  0  0
   21.4391   18.8944   23.3865 H   0  0  0  0  0  0  0  0  0  0  0  0
   18.6175   17.5389   23.3155 O   0  0  0  0  0  0  0  0  0  0  0  0
   18.8465   16.9041   22.6047 H   0  0  0  0  0  0  0  0  0  0  0  0
  1  2  1  0  0  0  0
  1  3  1  0  0  0  0
  1  4  1  0  0  0  0
  4  5  1  0  0  0  0
  4  6  1  0  0  0  0
  4  7  1  0  0  0  0
  7  8  1  0  0  0  0
  1  9  1  0  0  0  0
  7  9  1  0  0  0  0
  9 10  1  0  0  0  0
  9 11  1  0  0  0  0
  7 12  1  0  0  0  0
 12 13  1  0  0  0  0
M  END
> <VConfSearch Rank>
819

> <Conf_Id>
24

> <Delta U+W>
0.356

> <U+W>
-2.775

> <U>
-0.184

> <W>
-2.591

> <W(PB)>
-4.184

> <W(SA)>
1.593

> <Valence>
6.840

> <Coulomb>
-7.916

> <VdW>
0.893

> <VdW6>
-2.167

> <VdW12>
3.060

> <Bond>
0.059

> <Angle>
0.918

> <Pdih>
5.862

> <Idih>
0.000

> <Tether>
0.000

$$$$
VeraChem MOL file


 13 13  0  0  0  0  0  0  0  0999 V2000     
   18.6977   18.4637   22.0753 C   0  0  0  0  0  0  0  0  0  0  0  0
   17.6097   18.5955   22.0371 H   0  0  0  0  0  0  0  0  0  0  0  0
   18.9237   17.4011   21.9202 H   0  0  0  0  0  0  0  0  0  0  0  0
   19.4237   19.1198   23.2970 C   0  0  0  0  0  0  0  0  0  0  0  0
   18.9397   20.0272   23.6782 H   0  0  0  0  0  0  0  0  0  0  0  0
   19.6390   18.4582   24.1436 H   0  0  0  0  0  0  0  0  0  0  0  0
   20.6136   19.3934   22.3258 C   0  0  0  0  0  0  0  0  0  0  0  0
   21.1457   20.3367   22.5033 H   0  0  0  0  0  0  0  0  0  0  0  0
   19.5377   19.4506   21.1975 C   0  0  0  0  0  0  0  0  0  0  0  0
   19.0816   20.4391   21.0639 H   0  0  0  0  0  0  0  0  0  0  0  0
   19.8521   19.0768   20.2166 H   0  0  0  0  0  0  0  0  0  0  0  0
   21.5377   18.3330   22.2089 O   0  0  0  0  0  0  0  0  0  0  0  0
   21.0100   17.5228   22.0526 H   0  0  0  0  0  0  0  0  0  0  0  0
  1  2  1  0  0  0  0
  1  3  1  0  0  0  0
  1  4  1  0  0  0  0
  4  5  1  0  0  0  0
  4  6  1  0  0  0  0
  4  7  1  0  0  0  0
  7  8  1  0  0  0  0
  1  9  1  0  0  0  0
  7  9  1  0  0  0  0
  9 10  1  0  0  0  0
  9 11  1  0  0  0  0
  7 12  1  0  0  0  0
 12 13  1  0  0  0  0
M  END
> <VConfSearch Rank>
820

> <Conf_Id>
44

> <Delta U+W>
0.823

> <U+W>
-2.308

> <U>
0.039

> <W>
-2.348

> <W(PB)>
-3.918

> <W(SA)>
1.571

> <Valence>
7.320

> <Coulomb>
-8.530

> <VdW>
1.249

> <VdW6>
-2.615

> <VdW12>
3.864

> <Bond>
0.056

> <Angle>
0.694

> <Pdih>
6.570

> <Idih>
0.000

> <Tether>
0.000

$$$$
VeraChem MOL file


 13 13  0  0  0  0  0  0  0  0999 V2000     
   20.2373   18.3914   23.2442 C   0  0  0  0  0  0  0  0  0  0  0  0
   19.9592   17.3301   23.2878 H   0  0  0  0  0  0  0  0  0  0  0  0
   20.9694   18.5945   24.0348 H   0  0  0  0  0  0  0  0  0  0  0  0
   19.0292   19.3814   23.1557 C   0  0  0  0  0  0  0  0  0  0  0  0
   18.1129   19.0735   23.6709 H   0  0  0  0  0  0  0  0  0  0  0  0
   19.2613   20.4162   23.4364 H   0  0  0  0  0  0  0  0  0  0  0  0
   19.0706   19.1036   21.6227 C   0  0  0  0  0  0  0  0  0  0  0  0
   18.5420   18.1879   21.3242 H   0  0  0  0  0  0  0  0  0  0  0  0
   20.6054   18.9134   21.8161 C   0  0  0  0  0  0  0  0  0  0  0  0
   21.0855   18.1906   21.1474 H   0  0  0  0  0  0  0  0  0  0  0  0
   21.1852   19.8448   21.8043 H   0  0  0  0  0  0  0  0  0  0  0  0
   18.6959   20.1870   20.8040 O   0  0  0  0  0  0  0  0  0  0  0  0
   18.9186   19.9435   19.8797 H   0  0  0  0  0  0  0  0  0  0  0  0
  1  2  1  0  0  0  0
  1  3  1  0  0  0  0
  1  4  1  0  0  0  0
  4  5  1  0  0  0  0
  4  6  1  0  0  0  0
  4  7  1  0  0  0  0
  7  8  1  0  0  0  0
  1  9  1  0  0  0  0
  7  9  1  0  0  0  0
  9 10  1  0  0  0  0
  9 11  1  0  0  0  0
  7 12  1  0  0  0  0
 12 13  1  0  0  0  0
M  END
> <VConfSearch Rank>
821

> <Conf_Id>
22

> <Delta U+W>
0.000

> <U+W>
-3.131

> <U>
-0.154

> <W>
-2.978

> <W(PB)>
-4.579

> <W(SA)>
1.601

> <Valence>
6.333

> <Coulomb>
-7.439

> <VdW>
0.952

> <VdW6>
-2.120

> <VdW12>
3.072

> <Bond>
0.065

> <Angle>
0.931

> <Pdih>
5.338

> <Idih>
0.000

> <Tether>
0.000

$$$$
VeraChem MOL file


 13 13  0  0  0  0  0  0  0  0999 V2000     
   19.1148   18.0012   21.4574 C   0  0  0  0  0  0  0  0  0  0  0  0
   19.6604   17.8803   20.5122 H   0  0  0  0  0  0  0  0  0  0  0  0
   18.2453   17.3332   21.4480 H   0  0  0  0  0  0  0  0  0  0  0  0
   18.8369   19.4850   21.8676 C   0  0  0  0  0  0  0  0  0  0  0  0
   18.0350   19.6139   22.6052 H   0  0  0  0  0  0  0  0  0  0  0  0
   18.6764   20.1907   21.0451 H   0  0  0  0  0  0  0  0  0  0  0  0
   20.2737   19.4596   22.4710 C   0  0  0  0  0  0  0  0  0  0  0  0
   21.0692   19.6457   21.7364 H   0  0  0  0  0  0  0  0  0  0  0  0
   20.0085   17.9476   22.7403 C   0  0  0  0  0  0  0  0  0  0  0  0
   19.4653   17.7402   23.6706 H   0  0  0  0  0  0  0  0  0  0  0  0
   20.8862   17.2940   22.6914 H   0  0  0  0  0  0  0  0  0  0  0  0
   20.4589   20.2526   23.6206 O   0  0  0  0  0  0  0  0  0  0  0  0
   20.4514   21.1903   23.3311 H   0  0  0  0  0  0  0  0  0  0  0  0
  1  2  1  0  0  0  0
  1  3  1  0  0  0  0
  1  4  1  0  0  0  0
  4  5  1  0  0  0  0
  4  6  1  0  0  0  0
  4  7  1  0  0  0  0
  7  8  1  0  0  0  0
  1  9  1  0  0  0  0
  7  9  1  0  0  0  0
  9 10  1  0  0  0  0
  9 11  1  0  0  0  0
  7 12  1  0  0  0  0
 12 13  1  0  0  0  0
M  END
> <VConfSearch Rank>
822

> <Conf_Id>
19

> <Delta U+W>
-0.011

> <U+W>
-3.142

> <U>
-0.154

> <W>
-2.989

> <W(PB)>
-4.588

> <W(SA)>
1.599

> <Valence>
6.334

> <Coulomb>
-7.439

> <VdW>
0.951

> <VdW6>
-2.120

> <VdW12>
3.072

> <Bond>
0.065

> <Angle>
0.930

> <Pdih>
5.339

> <Idih>
0.000

> <Tether>
0.000

$$$$
VeraChem MOL file


 13 13  0  0  0  0  0  0  0  0999 V2000     
   19.6340   19.9173   21.4017 C   0  0  0  0  0  0  0  0  0  0  0  0
   20.0879   20.2383   20.4567 H   0  0  0  0  0  0  0  0  0  0  0  0
   18.8128   20.6031   21.6476 H   0  0  0  0  0  0  0  0  0  0  0  0
   20.6239   19.6398   22.5815 C   0  0  0  0  0  0  0  0  0  0  0  0
   21.6101   19.2736   22.2715 H   0  0  0  0  0  0  0  0  0  0  0  0
   20.7628   20.4588   23.2959 H   0  0  0  0  0  0  0  0  0  0  0  0
   19.6343   18.5164   23.0222 C   0  0  0  0  0  0  0  0  0  0  0  0
   20.1140   17.6263   23.4493 H   0  0  0  0  0  0  0  0  0  0  0  0
   19.2684   18.3996   21.5094 C   0  0  0  0  0  0  0  0  0  0  0  0
   18.2279   18.1392   21.2860 H   0  0  0  0  0  0  0  0  0  0  0  0
   19.9260   17.7327   20.9387 H   0  0  0  0  0  0  0  0  0  0  0  0
   18.5805   18.9471   23.8600 O   0  0  0  0  0  0  0  0  0  0  0  0
   17.9390   18.2077   23.9237 H   0  0  0  0  0  0  0  0  0  0  0  0
  1  2  1  0  0  0  0
  1  3  1  0  0  0  0
  1  4  1  0  0  0  0
  4  5  1  0  0  0  0
  4  6  1  0  0  0  0
  4  7  1  0  0  0  0
  7  8  1  0  0  0  0
  1  9  1  0  0  0  0
  7  9  1  0  0  0  0
  9 10  1  0  0  0  0
  9 11  1  0  0  0  0
  7 12  1  0  0  0  0
 12 13  1  0  0  0  0
M  END
> <VConfSearch Rank>
823

> <Conf_Id>
20

> <Delta U+W>
1.030

> <U+W>
-2.101

> <U>
0.841

> <W>
-2.942

> <W(PB)>
-4.530

> <W(SA)>
1.587

> <Valence>
6.736

> <Coulomb>
-7.246

> <VdW>
1.352

> <VdW6>
-2.500

> <VdW12>
3.851

> <Bond>
0.063

> <Angle>
0.687

> <Pdih>
5.986

> <Idih>
0.000

> <Tether>
0.000

$$$$
VeraChem MOL file


 13 13  0  0  0  0  0  0  0  0999 V2000     
   19.0352   18.6232   23.2257 C   0  0  0  0  0  0  0  0  0  0  0  0
   18.7778   19.4058   23.9516 H   0  0  0  0  0  0  0  0  0  0  0  0
   18.5932   17.6769   23.5599 H   0  0  0  0  0  0  0  0  0  0  0  0
   20.5470   18.5725   22.8270 C   0  0  0  0  0  0  0  0  0  0  0  0
   21.2612   18.8598   23.6066 H   0  0  0  0  0  0  0  0  0  0  0  0
   20.8720   17.6226   22.3848 H   0  0  0  0  0  0  0  0  0  0  0  0
   20.1862   19.6849   21.7967 C   0  0  0  0  0  0  0  0  0  0  0  0
   20.1720   20.6972   22.2228 H   0  0  0  0  0  0  0  0  0  0  0  0
   18.7832   19.0093   21.7308 C   0  0  0  0  0  0  0  0  0  0  0  0
   18.7138   18.1571   21.0436 H   0  0  0  0  0  0  0  0  0  0  0  0
   17.9395   19.6823   21.5423 H   0  0  0  0  0  0  0  0  0  0  0  0
   20.9250   19.6617   20.5986 O   0  0  0  0  0  0  0  0  0  0  0  0
   20.9025   18.7395   20.2673 H   0  0  0  0  0  0  0  0  0  0  0  0
  1  2  1  0  0  0  0
  1  3  1  0  0  0  0
  1  4  1  0  0  0  0
  4  5  1  0  0  0  0
  4  6  1  0  0  0  0
  4  7  1  0  0  0  0
  7  8  1  0  0  0  0
  1  9  1  0  0  0  0
  7  9  1  0  0  0  0
  9 10  1  0  0  0  0
  9 11  1  0  0  0  0
  7 12  1  0  0  0  0
 12 13  1  0  0  0  0
M  END
> <VConfSearch Rank>
824

> <Conf_Id>
24

> <Delta U+W>
0.356

> <U+W>
-2.775

> <U>
-0.184

> <W>
-2.591

> <W(PB)>
-4.184

> <W(SA)>
1.593

> <Valence>
6.840

> <Coulomb>
-7.916

> <VdW>
0.893

> <VdW6>
-2.167

> <VdW12>
3.060

> <Bond>
0.059

> <Angle>
0.918

> <Pdih>
5.862

> <Idih>
0.000

> <Tether>
0.000

$$$$
VeraChem MOL file


 13 13  0  0  0  0  0  0  0  0999 V2000     
   20.3027   18.8952   23.1520 C   0  0  0  0  0  0  0  0  0  0  0  0
   20.3401   19.1039   24.2279 H   0  0  0  0  0  0  0  0  0  0  0  0
   21.2439   18.4125   22.8597 H   0  0  0  0  0  0  0  0  0  0  0  0
   19.8630   20.0880   22.2387 C   0  0  0  0  0  0  0  0  0  0  0  0
   19.1671   20.7902   22.7138 H   0  0  0  0  0  0  0  0  0  0  0  0
   20.6709   20.6615   21.7706 H   0  0  0  0  0  0  0  0  0  0  0  0
   19.1718   19.0208   21.3345 C   0  0  0  0  0  0  0  0  0  0  0  0
   18.2297   19.3465   20.8754 H   0  0  0  0  0  0  0  0  0  0  0  0
   19.0086   18.1799   22.6385 C   0  0  0  0  0  0  0  0  0  0  0  0
   18.1032   18.4143   23.2116 H   0  0  0  0  0  0  0  0  0  0  0  0
   19.0727   17.0927   22.5183 H   0  0  0  0  0  0  0  0  0  0  0  0
   20.0094   18.4411   20.3577 O   0  0  0  0  0  0  0  0  0  0  0  0
   20.8288   18.1713   20.8214 H   0  0  0  0  0  0  0  0  0  0  0  0
  1  2  1  0  0  0  0
  1  3  1  0  0  0  0
  1  4  1  0  0  0  0
  4  5  1  0  0  0  0
  4  6  1  0  0  0  0
  4  7  1  0  0  0  0
  7  8  1  0  0  0  0
  1  9  1  0  0  0  0
  7  9  1  0  0  0  0
  9 10  1  0  0  0  0
  9 11  1  0  0  0  0
  7 12  1  0  0  0  0
 12 13  1  0  0  0  0
M  END
> <VConfSearch Rank>
825

> <Conf_Id>
44

> <Delta U+W>
0.823

> <U+W>
-2.308

> <U>
0.039

> <W>
-2.348

> <W(PB)>
-3.918

> <W(SA)>
1.571

> <Valence>
7.320

> <Coulomb>
-8.530

> <VdW>
1.249

> <VdW6>
-2.615

> <VdW12>
3.864

> <Bond>
0.056

> <Angle>
0.694

> <Pdih>
6.570

> <Idih>
0.000

> <Tether>
0.000

$$$$
VeraChem MOL file


 13 13  0  0  0  0  0  0  0  0999 V2000     
   19.2695   17.8443   21.8655 C   0  0  0  0  0  0  0  0  0  0  0  0
   19.5540   17.5986   20.8338 H   0  0  0  0  0  0  0  0  0  0  0  0
   18.7667   16.9755   22.3067 H   0  0  0  0  0  0  0  0  0  0  0  0
   18.5411   19.2185   22.0339 C   0  0  0  0  0  0  0  0  0  0  0  0
   17.9080   19.5359   21.1982 H   0  0  0  0  0  0  0  0  0  0  0  0
   17.9746   19.3272   22.9671 H   0  0  0  0  0  0  0  0  0  0  0  0
   19.9721   19.8346   22.0719 C   0  0  0  0  0  0  0  0  0  0  0  0
   20.4052   20.0102   21.0776 H   0  0  0  0  0  0  0  0  0  0  0  0
   20.4089   18.4876   22.7231 C   0  0  0  0  0  0  0  0  0  0  0  0
   21.4283   18.1559   22.4973 H   0  0  0  0  0  0  0  0  0  0  0  0
   20.2520   18.4336   23.8077 H   0  0  0  0  0  0  0  0  0  0  0  0
   20.1160   20.9734   22.8885 O   0  0  0  0  0  0  0  0  0  0  0  0
   21.0766   21.1626   22.9569 H   0  0  0  0  0  0  0  0  0  0  0  0
  1  2  1  0  0  0  0
  1  3  1  0  0  0  0
  1  4  1  0  0  0  0
  4  5  1  0  0  0  0
  4  6  1  0  0  0  0
  4  7  1  0  0  0  0
  7  8  1  0  0  0  0
  1  9  1  0  0  0  0
  7  9  1  0  0  0  0
  9 10  1  0  0  0  0
  9 11  1  0  0  0  0
  7 12  1  0  0  0  0
 12 13  1  0  0  0  0
M  END
> <VConfSearch Rank>
826

> <Conf_Id>
22

> <Delta U+W>
0.000

> <U+W>
-3.131

> <U>
-0.154

> <W>
-2.978

> <W(PB)>
-4.579

> <W(SA)>
1.601

> <Valence>
6.333

> <Coulomb>
-7.439

> <VdW>
0.952

> <VdW6>
-2.120

> <VdW12>
3.072

> <Bond>
0.065

> <Angle>
0.931

> <Pdih>
5.338

> <Idih>
0.000

> <Tether>
0.000

$$$$
VeraChem MOL file


 13 13  0  0  0  0  0  0  0  0999 V2000     
   19.3427   19.5993   21.1480 C   0  0  0  0  0  0  0  0  0  0  0  0
   20.0892   20.3645   20.8975 H   0  0  0  0  0  0  0  0  0  0  0  0
   18.5263   19.6541   20.4181 H   0  0  0  0  0  0  0  0  0  0  0  0
   18.9177   19.5673   22.6532 C   0  0  0  0  0  0  0  0  0  0  0  0
   17.9672   19.0558   22.8501 H   0  0  0  0  0  0  0  0  0  0  0  0
   18.9140   20.5312   23.1738 H   0  0  0  0  0  0  0  0  0  0  0  0
   20.1843   18.6843   22.8661 C   0  0  0  0  0  0  0  0  0  0  0  0
   21.1144   19.2584   22.9774 H   0  0  0  0  0  0  0  0  0  0  0  0
   19.9305   18.1744   21.4155 C   0  0  0  0  0  0  0  0  0  0  0  0
   19.2036   17.3560   21.3422 H   0  0  0  0  0  0  0  0  0  0  0  0
   20.8241   17.9044   20.8424 H   0  0  0  0  0  0  0  0  0  0  0  0
   20.0755   17.7077   23.8755 O   0  0  0  0  0  0  0  0  0  0  0  0
   20.0926   18.1771   24.7372 H   0  0  0  0  0  0  0  0  0  0  0  0
  1  2  1  0  0  0  0
  1  3  1  0  0  0  0
  1  4  1  0  0  0  0
  4  5  1  0  0  0  0
  4  6  1  0  0  0  0
  4  7  1  0  0  0  0
  7  8  1  0  0  0  0
  1  9  1  0  0  0  0
  7  9  1  0  0  0  0
  9 10  1  0  0  0  0
  9 11  1  0  0  0  0
  7 12  1  0  0  0  0
 12 13  1  0  0  0  0
M  END
> <VConfSearch Rank>
827

> <Conf_Id>
19

> <Delta U+W>
-0.011

> <U+W>
-3.142

> <U>
-0.154

> <W>
-2.989

> <W(PB)>
-4.588

> <W(SA)>
1.599

> <Valence>
6.334

> <Coulomb>
-7.439

> <VdW>
0.951

> <VdW6>
-2.120

> <VdW12>
3.072

> <Bond>
0.065

> <Angle>
0.930

> <Pdih>
5.339

> <Idih>
0.000

> <Tether>
0.000

$$$$
VeraChem MOL file


 13 13  0  0  0  0  0  0  0  0999 V2000     
   19.2356   20.1116   21.7892 C   0  0  0  0  0  0  0  0  0  0  0  0
   19.2788   21.2052   21.8531 H   0  0  0  0  0  0  0  0  0  0  0  0
   18.6499   19.8346   20.9029 H   0  0  0  0  0  0  0  0  0  0  0  0
   18.8252   19.3609   23.0995 C   0  0  0  0  0  0  0  0  0  0  0  0
   19.1270   19.8644   24.0259 H   0  0  0  0  0  0  0  0  0  0  0  0
   17.7697   19.0786   23.1819 H   0  0  0  0  0  0  0  0  0  0  0  0
   19.7962   18.2282   22.6419 C   0  0  0  0  0  0  0  0  0  0  0  0
   20.3323   17.7280   23.4587 H   0  0  0  0  0  0  0  0  0  0  0  0
   20.6007   19.3592   21.9279 C   0  0  0  0  0  0  0  0  0  0  0  0
   21.0925   19.0794   20.9897 H   0  0  0  0  0  0  0  0  0  0  0  0
   21.3333   19.8629   22.5701 H   0  0  0  0  0  0  0  0  0  0  0  0
   19.2234   17.2665   21.7787 O   0  0  0  0  0  0  0  0  0  0  0  0
   19.9571   16.7200   21.4247 H   0  0  0  0  0  0  0  0  0  0  0  0
  1  2  1  0  0  0  0
  1  3  1  0  0  0  0
  1  4  1  0  0  0  0
  4  5  1  0  0  0  0
  4  6  1  0  0  0  0
  4  7  1  0  0  0  0
  7  8  1  0  0  0  0
  1  9  1  0  0  0  0
  7  9  1  0  0  0  0
  9 10  1  0  0  0  0
  9 11  1  0  0  0  0
  7 12  1  0  0  0  0
 12 13  1  0  0  0  0
M  END
> <VConfSearch Rank>
828

> <Conf_Id>
20

> <Delta U+W>
1.030

> <U+W>
-2.101

> <U>
0.841

> <W>
-2.942

> <W(PB)>
-4.530

> <W(SA)>
1.587

> <Valence>
6.736

> <Coulomb>
-7.246

> <VdW>
1.352

> <VdW6>
-2.500

> <VdW12>
3.851

> <Bond>
0.063

> <Angle>
0.687

> <Pdih>
5.986

> <Idih>
0.000

> <Tether>
0.000

$$$$
VeraChem MOL file


 13 13  0  0  0  0  0  0  0  0999 V2000     
   18.8187   19.6941   21.7298 C   0  0  0  0  0  0  0  0  0  0  0  0
   18.2531   19.3159   20.8680 H   0  0  0  0  0  0  0  0  0  0  0  0
   18.4314   20.6851   21.9950 H   0  0  0  0  0  0  0  0  0  0  0  0
   20.3729   19.5774   21.5941 C   0  0  0  0  0  0  0  0  0  0  0  0
   20.7772   19.6768   20.5807 H   0  0  0  0  0  0  0  0  0  0  0  0
   20.9412   20.2328   22.2656 H   0  0  0  0  0  0  0  0  0  0  0  0
   20.1851   18.1179   22.1078 C   0  0  0  0  0  0  0  0  0  0  0  0
   19.9068   17.4029   21.3217 H   0  0  0  0  0  0  0  0  0  0  0  0
   18.9712   18.6776   22.9091 C   0  0  0  0  0  0  0  0  0  0  0  0
   19.2262   19.1318   23.8746 H   0  0  0  0  0  0  0  0  0  0  0  0
   18.1376   17.9823   23.0571 H   0  0  0  0  0  0  0  0  0  0  0  0
   21.2420   17.6109   22.8874 O   0  0  0  0  0  0  0  0  0  0  0  0
   21.4453   18.2873   23.5669 H   0  0  0  0  0  0  0  0  0  0  0  0
  1  2  1  0  0  0  0
  1  3  1  0  0  0  0
  1  4  1  0  0  0  0
  4  5  1  0  0  0  0
  4  6  1  0  0  0  0
  4  7  1  0  0  0  0
  7  8  1  0  0  0  0
  1  9  1  0  0  0  0
  7  9  1  0  0  0  0
  9 10  1  0  0  0  0
  9 11  1  0  0  0  0
  7 12  1  0  0  0  0
 12 13  1  0  0  0  0
M  END
> <VConfSearch Rank>
829

> <Conf_Id>
24

> <Delta U+W>
0.356

> <U+W>
-2.775

> <U>
-0.184

> <W>
-2.591

> <W(PB)>
-4.184

> <W(SA)>
1.593

> <Valence>
6.840

> <Coulomb>
-7.916

> <VdW>
0.893

> <VdW6>
-2.167

> <VdW12>
3.060

> <Bond>
0.059

> <Angle>
0.918

> <Pdih>
5.862

> <Idih>
0.000

> <Tether>
0.000

$$$$
VeraChem MOL file


 13 13  0  0  0  0  0  0  0  0999 V2000     
   19.9510   18.7466   21.1371 C   0  0  0  0  0  0  0  0  0  0  0  0
   20.2318   17.9717   20.4138 H   0  0  0  0  0  0  0  0  0  0  0  0
   19.8939   19.7078   20.6107 H   0  0  0  0  0  0  0  0  0  0  0  0
   20.7760   18.7723   22.4671 C   0  0  0  0  0  0  0  0  0  0  0  0
   21.1483   17.7920   22.7886 H   0  0  0  0  0  0  0  0  0  0  0  0
   21.6032   19.4897   22.5088 H   0  0  0  0  0  0  0  0  0  0  0  0
   19.4550   19.2132   23.1704 C   0  0  0  0  0  0  0  0  0  0  0  0
   19.3164   18.8131   24.1830 H   0  0  0  0  0  0  0  0  0  0  0  0
   18.7195   18.4197   22.0464 C   0  0  0  0  0  0  0  0  0  0  0  0
   18.5876   17.3530   22.2648 H   0  0  0  0  0  0  0  0  0  0  0  0
   17.7567   18.8302   21.7219 H   0  0  0  0  0  0  0  0  0  0  0  0
   19.2176   20.6044   23.1648 O   0  0  0  0  0  0  0  0  0  0  0  0
   19.3549   20.9042   22.2425 H   0  0  0  0  0  0  0  0  0  0  0  0
  1  2  1  0  0  0  0
  1  3  1  0  0  0  0
  1  4  1  0  0  0  0
  4  5  1  0  0  0  0
  4  6  1  0  0  0  0
  4  7  1  0  0  0  0
  7  8  1  0  0  0  0
  1  9  1  0  0  0  0
  7  9  1  0  0  0  0
  9 10  1  0  0  0  0
  9 11  1  0  0  0  0
  7 12  1  0  0  0  0
 12 13  1  0  0  0  0
M  END
> <VConfSearch Rank>
830

> <Conf_Id>
44

> <Delta U+W>
0.823

> <U+W>
-2.308

> <U>
0.039

> <W>
-2.348

> <W(PB)>
-3.918

> <W(SA)>
1.571

> <Valence>
7.320

> <Coulomb>
-8.530

> <VdW>
1.249

> <VdW6>
-2.615

> <VdW12>
3.864

> <Bond>
0.056

> <Angle>
0.694

> <Pdih>
6.570

> <Idih>
0.000

> <Tether>
0.000

$$$$
VeraChem MOL file


 13 13  0  0  0  0  0  0  0  0999 V2000     
   20.6409   19.8825   21.9515 C   0  0  0  0  0  0  0  0  0  0  0  0
   20.4527   20.9085   22.2944 H   0  0  0  0  0  0  0  0  0  0  0  0
   21.6362   19.8434   21.4930 H   0  0  0  0  0  0  0  0  0  0  0  0
   19.4771   19.2457   21.1225 C   0  0  0  0  0  0  0  0  0  0  0  0
   18.8913   19.9339   20.5034 H   0  0  0  0  0  0  0  0  0  0  0  0
   19.7668   18.3814   20.5120 H   0  0  0  0  0  0  0  0  0  0  0  0
   18.8553   18.8808   22.5042 C   0  0  0  0  0  0  0  0  0  0  0  0
   18.2865   19.7005   22.9642 H   0  0  0  0  0  0  0  0  0  0  0  0
   20.3265   18.7715   23.0070 C   0  0  0  0  0  0  0  0  0  0  0  0
   20.4944   19.0410   24.0555 H   0  0  0  0  0  0  0  0  0  0  0  0
   20.8048   17.8040   22.8100 H   0  0  0  0  0  0  0  0  0  0  0  0
   18.1172   17.6813   22.5345 O   0  0  0  0  0  0  0  0  0  0  0  0
   17.9230   17.4832   23.4759 H   0  0  0  0  0  0  0  0  0  0  0  0
  1  2  1  0  0  0  0
  1  3  1  0  0  0  0
  1  4  1  0  0  0  0
  4  5  1  0  0  0  0
  4  6  1  0  0  0  0
  4  7  1  0  0  0  0
  7  8  1  0  0  0  0
  1  9  1  0  0  0  0
  7  9  1  0  0  0  0
  9 10  1  0  0  0  0
  9 11  1  0  0  0  0
  7 12  1  0  0  0  0
 12 13  1  0  0  0  0
M  END
> <VConfSearch Rank>
831

> <Conf_Id>
22

> <Delta U+W>
0.000

> <U+W>
-3.131

> <U>
-0.154

> <W>
-2.978

> <W(PB)>
-4.579

> <W(SA)>
1.601

> <Valence>
6.333

> <Coulomb>
-7.439

> <VdW>
0.952

> <VdW6>
-2.120

> <VdW12>
3.072

> <Bond>
0.065

> <Angle>
0.931

> <Pdih>
5.338

> <Idih>
0.000

> <Tether>
0.000

$$$$
VeraChem MOL file


 13 13  0  0  0  0  0  0  0  0999 V2000     
   18.8854   17.8396   22.1556 C   0  0  0  0  0  0  0  0  0  0  0  0
   17.8258   18.0158   22.3830 H   0  0  0  0  0  0  0  0  0  0  0  0
   19.0293   16.7697   21.9633 H   0  0  0  0  0  0  0  0  0  0  0  0
   19.8886   18.4982   23.1592 C   0  0  0  0  0  0  0  0  0  0  0  0
   20.8997   18.0724   23.1421 H   0  0  0  0  0  0  0  0  0  0  0  0
   19.5533   18.5690   24.1997 H   0  0  0  0  0  0  0  0  0  0  0  0
   19.7140   19.7864   22.2994 C   0  0  0  0  0  0  0  0  0  0  0  0
   18.8238   20.3768   22.5564 H   0  0  0  0  0  0  0  0  0  0  0  0
   19.4992   18.8162   21.0988 C   0  0  0  0  0  0  0  0  0  0  0  0
   20.4254   18.4624   20.6292 H   0  0  0  0  0  0  0  0  0  0  0  0
   18.8200   19.1705   20.3158 H   0  0  0  0  0  0  0  0  0  0  0  0
   20.8527   20.6111   22.2110 O   0  0  0  0  0  0  0  0  0  0  0  0
   20.9649   21.0462   23.0835 H   0  0  0  0  0  0  0  0  0  0  0  0
  1  2  1  0  0  0  0
  1  3  1  0  0  0  0
  1  4  1  0  0  0  0
  4  5  1  0  0  0  0
  4  6  1  0  0  0  0
  4  7  1  0  0  0  0
  7  8  1  0  0  0  0
  1  9  1  0  0  0  0
  7  9  1  0  0  0  0
  9 10  1  0  0  0  0
  9 11  1  0  0  0  0
  7 12  1  0  0  0  0
 12 13  1  0  0  0  0
M  END
> <VConfSearch Rank>
832

> <Conf_Id>
19

> <Delta U+W>
-0.011

> <U+W>
-3.142

> <U>
-0.154

> <W>
-2.989

> <W(PB)>
-4.588

> <W(SA)>
1.599

> <Valence>
6.334

> <Coulomb>
-7.439

> <VdW>
0.951

> <VdW6>
-2.120

> <VdW12>
3.072

> <Bond>
0.065

> <Angle>
0.930

> <Pdih>
5.339

> <Idih>
0.000

> <Tether>
0.000

$$$$
VeraChem MOL file


 13 13  0  0  0  0  0  0  0  0999 V2000     
   20.5401   19.2121   21.4625 C   0  0  0  0  0  0  0  0  0  0  0  0
   20.9201   19.8444   20.6515 H   0  0  0  0  0  0  0  0  0  0  0  0
   21.2839   18.4343   21.6794 H   0  0  0  0  0  0  0  0  0  0  0  0
   19.0769   18.6828   21.2950 C   0  0  0  0  0  0  0  0  0  0  0  0
   18.4115   19.3533   20.7378 H   0  0  0  0  0  0  0  0  0  0  0  0
   18.9750   17.6705   20.8884 H   0  0  0  0  0  0  0  0  0  0  0  0
   18.9559   18.8058   22.8460 C   0  0  0  0  0  0  0  0  0  0  0  0
   17.9654   19.1146   23.2042 H   0  0  0  0  0  0  0  0  0  0  0  0
   19.9969   19.9623   22.7238 C   0  0  0  0  0  0  0  0  0  0  0  0
   20.6980   20.0673   23.5592 H   0  0  0  0  0  0  0  0  0  0  0  0
   19.5549   20.9437   22.5128 H   0  0  0  0  0  0  0  0  0  0  0  0
   19.4010   17.6755   23.5689 O   0  0  0  0  0  0  0  0  0  0  0  0
   19.4421   17.9329   24.5145 H   0  0  0  0  0  0  0  0  0  0  0  0
  1  2  1  0  0  0  0
  1  3  1  0  0  0  0
  1  4  1  0  0  0  0
  4  5  1  0  0  0  0
  4  6  1  0  0  0  0
  4  7  1  0  0  0  0
  7  8  1  0  0  0  0
  1  9  1  0  0  0  0
  7  9  1  0  0  0  0
  9 10  1  0  0  0  0
  9 11  1  0  0  0  0
  7 12  1  0  0  0  0
 12 13  1  0  0  0  0
M  END
> <VConfSearch Rank>
833

> <Conf_Id>
20

> <Delta U+W>
1.030

> <U+W>
-2.101

> <U>
0.841

> <W>
-2.942

> <W(PB)>
-4.530

> <W(SA)>
1.587

> <Valence>
6.736

> <Coulomb>
-7.246

> <VdW>
1.352

> <VdW6>
-2.500

> <VdW12>
3.851

> <Bond>
0.063

> <Angle>
0.687

> <Pdih>
5.986

> <Idih>
0.000

> <Tether>
0.000

$$$$
VeraChem MOL file


 13 13  0  0  0  0  0  0  0  0999 V2000     
   19.3421   19.9590   22.8959 C   0  0  0  0  0  0  0  0  0  0  0  0
   19.7301   20.9516   22.6317 H   0  0  0  0  0  0  0  0  0  0  0  0
   18.6515   20.0668   23.7409 H   0  0  0  0  0  0  0  0  0  0  0  0
   20.4330   18.8467   23.0375 C   0  0  0  0  0  0  0  0  0  0  0  0
   21.4106   19.1746   23.4077 H   0  0  0  0  0  0  0  0  0  0  0  0
   20.1170   17.9662   23.6104 H   0  0  0  0  0  0  0  0  0  0  0  0
   20.3094   18.7004   21.4908 C   0  0  0  0  0  0  0  0  0  0  0  0
   20.9050   19.4309   20.9266 H   0  0  0  0  0  0  0  0  0  0  0  0
   18.8202   19.1172   21.6850 C   0  0  0  0  0  0  0  0  0  0  0  0
   18.1436   18.2971   21.9556 H   0  0  0  0  0  0  0  0  0  0  0  0
   18.3734   19.6839   20.8607 H   0  0  0  0  0  0  0  0  0  0  0  0
   20.5128   17.4012   20.9884 O   0  0  0  0  0  0  0  0  0  0  0  0
   19.9598   16.7972   21.5269 H   0  0  0  0  0  0  0  0  0  0  0  0
  1  2  1  0  0  0  0
  1  3  1  0  0  0  0
  1  4  1  0  0  0  0
  4  5  1  0  0  0  0
  4  6  1  0  0  0  0
  4  7  1  0  0  0  0
  7  8  1  0  0  0  0
  1  9  1  0  0  0  0
  7  9  1  0  0  0  0
  9 10  1  0  0  0  0
  9 11  1  0  0  0  0
  7 12  1  0  0  0  0
 12 13  1  0  0  0  0
M  END
> <VConfSearch Rank>
834

> <Conf_Id>
24

> <Delta U+W>
0.356

> <U+W>
-2.775

> <U>
-0.184

> <W>
-2.591

> <W(PB)>
-4.184

> <W(SA)>
1.593

> <Valence>
6.840

> <Coulomb>
-7.916

> <VdW>
0.893

> <VdW6>
-2.167

> <VdW12>
3.060

> <Bond>
0.059

> <Angle>
0.918

> <Pdih>
5.862

> <Idih>
0.000

> <Tether>
0.000

$$$$
VeraChem MOL file


 13 13  0  0  0  0  0  0  0  0999 V2000     
   20.7768   18.8168   22.4704 C   0  0  0  0  0  0  0  0  0  0  0  0
   21.8064   19.1585   22.3106 H   0  0  0  0  0  0  0  0  0  0  0  0
   20.7961   17.9764   23.1757 H   0  0  0  0  0  0  0  0  0  0  0  0
   19.9287   18.5722   21.1777 C   0  0  0  0  0  0  0  0  0  0  0  0
   20.1972   19.2155   20.3309 H   0  0  0  0  0  0  0  0  0  0  0  0
   19.8740   17.5364   20.8245 H   0  0  0  0  0  0  0  0  0  0  0  0
   18.7018   19.0787   21.9976 C   0  0  0  0  0  0  0  0  0  0  0  0
   17.9712   19.6607   21.4214 H   0  0  0  0  0  0  0  0  0  0  0  0
   19.7298   19.9318   22.8033 C   0  0  0  0  0  0  0  0  0  0  0  0
   19.9496   20.9084   22.3550 H   0  0  0  0  0  0  0  0  0  0  0  0
   19.5021   20.0794   23.8649 H   0  0  0  0  0  0  0  0  0  0  0  0
   18.0409   18.0835   22.7490 O   0  0  0  0  0  0  0  0  0  0  0  0
   18.7372   17.5995   23.2391 H   0  0  0  0  0  0  0  0  0  0  0  0
  1  2  1  0  0  0  0
  1  3  1  0  0  0  0
  1  4  1  0  0  0  0
  4  5  1  0  0  0  0
  4  6  1  0  0  0  0
  4  7  1  0  0  0  0
  7  8  1  0  0  0  0
  1  9  1  0  0  0  0
  7  9  1  0  0  0  0
  9 10  1  0  0  0  0
  9 11  1  0  0  0  0
  7 12  1  0  0  0  0
 12 13  1  0  0  0  0
M  END
> <VConfSearch Rank>
835

> <Conf_Id>
44

> <Delta U+W>
0.823

> <U+W>
-2.308

> <U>
0.039

> <W>
-2.348

> <W(PB)>
-3.918

> <W(SA)>
1.571

> <Valence>
7.320

> <Coulomb>
-8.530

> <VdW>
1.249

> <VdW6>
-2.615

> <VdW12>
3.864

> <Bond>
0.056

> <Angle>
0.694

> <Pdih>
6.570

> <Idih>
0.000

> <Tether>
0.000

$$$$
VeraChem MOL file


 13 13  0  0  0  0  0  0  0  0999 V2000     
   19.5284   17.8377   22.7675 C   0  0  0  0  0  0  0  0  0  0  0  0
   18.5443   17.3901   22.5756 H   0  0  0  0  0  0  0  0  0  0  0  0
   20.1451   17.1097   23.3079 H   0  0  0  0  0  0  0  0  0  0  0  0
   19.4847   19.2815   23.3684 C   0  0  0  0  0  0  0  0  0  0  0  0
   18.6403   19.5048   24.0295 H   0  0  0  0  0  0  0  0  0  0  0  0
   20.4117   19.6037   23.8587 H   0  0  0  0  0  0  0  0  0  0  0  0
   19.3349   19.7599   21.8928 C   0  0  0  0  0  0  0  0  0  0  0  0
   18.3037   19.7181   21.5162 H   0  0  0  0  0  0  0  0  0  0  0  0
   20.1942   18.5131   21.5234 C   0  0  0  0  0  0  0  0  0  0  0  0
   19.9780   18.0544   20.5523 H   0  0  0  0  0  0  0  0  0  0  0  0
   21.2775   18.6645   21.6093 H   0  0  0  0  0  0  0  0  0  0  0  0
   19.9239   21.0058   21.6009 O   0  0  0  0  0  0  0  0  0  0  0  0
   19.9059   21.1145   20.6256 H   0  0  0  0  0  0  0  0  0  0  0  0
  1  2  1  0  0  0  0
  1  3  1  0  0  0  0
  1  4  1  0  0  0  0
  4  5  1  0  0  0  0
  4  6  1  0  0  0  0
  4  7  1  0  0  0  0
  7  8  1  0  0  0  0
  1  9  1  0  0  0  0
  7  9  1  0  0  0  0
  9 10  1  0  0  0  0
  9 11  1  0  0  0  0
  7 12  1  0  0  0  0
 12 13  1  0  0  0  0
M  END
> <VConfSearch Rank>
836

> <Conf_Id>
22

> <Delta U+W>
0.000

> <U+W>
-3.131

> <U>
-0.154

> <W>
-2.978

> <W(PB)>
-4.579

> <W(SA)>
1.601

> <Valence>
6.333

> <Coulomb>
-7.439

> <VdW>
0.952

> <VdW6>
-2.120

> <VdW12>
3.072

> <Bond>
0.065

> <Angle>
0.931

> <Pdih>
5.338

> <Idih>
0.000

> <Tether>
0.000

$$$$
VeraChem MOL file


 13 13  0  0  0  0  0  0  0  0999 V2000     
   19.2004   19.9527   22.9548 C   0  0  0  0  0  0  0  0  0  0  0  0
   19.3897   20.9229   22.4769 H   0  0  0  0  0  0  0  0  0  0  0  0
   18.7414   20.1286   23.9350 H   0  0  0  0  0  0  0  0  0  0  0  0
   20.4123   18.9637   22.9312 C   0  0  0  0  0  0  0  0  0  0  0  0
   20.3553   18.1517   23.6667 H   0  0  0  0  0  0  0  0  0  0  0  0
   21.4073   19.4190   22.9848 H   0  0  0  0  0  0  0  0  0  0  0  0
   19.9157   18.5810   21.5043 C   0  0  0  0  0  0  0  0  0  0  0  0
   20.2558   19.2657   20.7152 H   0  0  0  0  0  0  0  0  0  0  0  0
   18.4882   18.9012   22.0415 C   0  0  0  0  0  0  0  0  0  0  0  0
   18.0091   18.0740   22.5798 H   0  0  0  0  0  0  0  0  0  0  0  0
   17.7808   19.2995   21.3060 H   0  0  0  0  0  0  0  0  0  0  0  0
   20.1317   17.2401   21.1304 O   0  0  0  0  0  0  0  0  0  0  0  0
   21.0943   17.1344   20.9704 H   0  0  0  0  0  0  0  0  0  0  0  0
  1  2  1  0  0  0  0
  1  3  1  0  0  0  0
  1  4  1  0  0  0  0
  4  5  1  0  0  0  0
  4  6  1  0  0  0  0
  4  7  1  0  0  0  0
  7  8  1  0  0  0  0
  1  9  1  0  0  0  0
  7  9  1  0  0  0  0
  9 10  1  0  0  0  0
  9 11  1  0  0  0  0
  7 12  1  0  0  0  0
 12 13  1  0  0  0  0
M  END
> <VConfSearch Rank>
837

> <Conf_Id>
19

> <Delta U+W>
-0.011

> <U+W>
-3.142

> <U>
-0.154

> <W>
-2.989

> <W(PB)>
-4.588

> <W(SA)>
1.599

> <Valence>
6.334

> <Coulomb>
-7.439

> <VdW>
0.951

> <VdW6>
-2.120

> <VdW12>
3.072

> <Bond>
0.065

> <Angle>
0.930

> <Pdih>
5.339

> <Idih>
0.000

> <Tether>
0.000

$$$$
VeraChem MOL file


 13 13  0  0  0  0  0  0  0  0999 V2000     
   18.4895   18.9180   22.7194 C   0  0  0  0  0  0  0  0  0  0  0  0
   17.8015   19.1771   23.5327 H   0  0  0  0  0  0  0  0  0  0  0  0
   17.9350   18.3570   21.9558 H   0  0  0  0  0  0  0  0  0  0  0  0
   19.8464   18.2661   23.1468 C   0  0  0  0  0  0  0  0  0  0  0  0
   20.2201   18.5929   24.1247 H   0  0  0  0  0  0  0  0  0  0  0  0
   19.8897   17.1722   23.1028 H   0  0  0  0  0  0  0  0  0  0  0  0
   20.4805   19.0190   21.9358 C   0  0  0  0  0  0  0  0  0  0  0  0
   21.5033   19.3792   22.1062 H   0  0  0  0  0  0  0  0  0  0  0  0
   19.3651   20.0877   22.1592 C   0  0  0  0  0  0  0  0  0  0  0  0
   18.9866   20.5819   21.2576 H   0  0  0  0  0  0  0  0  0  0  0  0
   19.6217   20.8566   22.8980 H   0  0  0  0  0  0  0  0  0  0  0  0
   20.4093   18.3299   20.7036 O   0  0  0  0  0  0  0  0  0  0  0  0
   20.6728   18.9621   20.0014 H   0  0  0  0  0  0  0  0  0  0  0  0
  1  2  1  0  0  0  0
  1  3  1  0  0  0  0
  1  4  1  0  0  0  0
  4  5  1  0  0  0  0
  4  6  1  0  0  0  0
  4  7  1  0  0  0  0
  7  8  1  0  0  0  0
  1  9  1  0  0  0  0
  7  9  1  0  0  0  0
  9 10  1  0  0  0  0
  9 11  1  0  0  0  0
  7 12  1  0  0  0  0
 12 13  1  0  0  0  0
M  END
> <VConfSearch Rank>
838

> <Conf_Id>
20

> <Delta U+W>
1.030

> <U+W>
-2.101

> <U>
0.841

> <W>
-2.942

> <W(PB)>
-4.530

> <W(SA)>
1.587

> <Valence>
6.736

> <Coulomb>
-7.246

> <VdW>
1.352

> <VdW6>
-2.500

> <VdW12>
3.851

> <Bond>
0.063

> <Angle>
0.687

> <Pdih>
5.986

> <Idih>
0.000

> <Tether>
0.000

$$$$
VeraChem MOL file


 13 13  0  0  0  0  0  0  0  0999 V2000     
   19.0527   19.7053   21.4405 C   0  0  0  0  0  0  0  0  0  0  0  0
   18.7024   20.6674   21.8372 H   0  0  0  0  0  0  0  0  0  0  0  0
   18.7033   19.6053   20.4059 H   0  0  0  0  0  0  0  0  0  0  0  0
   18.7922   18.4784   22.3755 C   0  0  0  0  0  0  0  0  0  0  0  0
   17.8880   18.5257   22.9923 H   0  0  0  0  0  0  0  0  0  0  0  0
   18.8240   17.5045   21.8717 H   0  0  0  0  0  0  0  0  0  0  0  0
   20.1172   18.8928   23.0839 C   0  0  0  0  0  0  0  0  0  0  0  0
   19.9911   19.6873   23.8320 H   0  0  0  0  0  0  0  0  0  0  0  0
   20.5695   19.4103   21.6851 C   0  0  0  0  0  0  0  0  0  0  0  0
   20.9986   18.6447   21.0271 H   0  0  0  0  0  0  0  0  0  0  0  0
   21.2349   20.2807   21.6923 H   0  0  0  0  0  0  0  0  0  0  0  0
   20.8781   17.8321   23.6110 O   0  0  0  0  0  0  0  0  0  0  0  0
   20.9566   17.1583   22.9036 H   0  0  0  0  0  0  0  0  0  0  0  0
  1  2  1  0  0  0  0
  1  3  1  0  0  0  0
  1  4  1  0  0  0  0
  4  5  1  0  0  0  0
  4  6  1  0  0  0  0
  4  7  1  0  0  0  0
  7  8  1  0  0  0  0
  1  9  1  0  0  0  0
  7  9  1  0  0  0  0
  9 10  1  0  0  0  0
  9 11  1  0  0  0  0
  7 12  1  0  0  0  0
 12 13  1  0  0  0  0
M  END
> <VConfSearch Rank>
839

> <Conf_Id>
24

> <Delta U+W>
0.356

> <U+W>
-2.775

> <U>
-0.184

> <W>
-2.591

> <W(PB)>
-4.184

> <W(SA)>
1.593

> <Valence>
6.840

> <Coulomb>
-7.916

> <VdW>
0.893

> <VdW6>
-2.167

> <VdW12>
3.060

> <Bond>
0.059

> <Angle>
0.918

> <Pdih>
5.862

> <Idih>
0.000

> <Tether>
0.000

$$$$
VeraChem MOL file


 13 13  0  0  0  0  0  0  0  0999 V2000     
   20.7946   19.1690   22.3260 C   0  0  0  0  0  0  0  0  0  0  0  0
   21.5702   19.9322   22.4614 H   0  0  0  0  0  0  0  0  0  0  0  0
   21.2796   18.1854   22.2858 H   0  0  0  0  0  0  0  0  0  0  0  0
   19.7601   19.4401   21.1830 C   0  0  0  0  0  0  0  0  0  0  0  0
   19.5625   20.5021   20.9929 H   0  0  0  0  0  0  0  0  0  0  0  0
   19.9577   18.9459   20.2251 H   0  0  0  0  0  0  0  0  0  0  0  0
   18.7036   18.7506   22.1008 C   0  0  0  0  0  0  0  0  0  0  0  0
   17.6953   19.1805   22.0462 H   0  0  0  0  0  0  0  0  0  0  0  0
   19.5688   19.2596   23.2951 C   0  0  0  0  0  0  0  0  0  0  0  0
   19.3243   20.2774   23.6229 H   0  0  0  0  0  0  0  0  0  0  0  0
   19.5998   18.6083   24.1757 H   0  0  0  0  0  0  0  0  0  0  0  0
   18.6368   17.3466   21.9747 O   0  0  0  0  0  0  0  0  0  0  0  0
   19.5586   17.0201   22.0303 H   0  0  0  0  0  0  0  0  0  0  0  0
  1  2  1  0  0  0  0
  1  3  1  0  0  0  0
  1  4  1  0  0  0  0
  4  5  1  0  0  0  0
  4  6  1  0  0  0  0
  4  7  1  0  0  0  0
  7  8  1  0  0  0  0
  1  9  1  0  0  0  0
  7  9  1  0  0  0  0
  9 10  1  0  0  0  0
  9 11  1  0  0  0  0
  7 12  1  0  0  0  0
 12 13  1  0  0  0  0
M  END
> <VConfSearch Rank>
840

> <Conf_Id>
44

> <Delta U+W>
0.823

> <U+W>
-2.308

> <U>
0.039

> <W>
-2.348

> <W(PB)>
-3.918

> <W(SA)>
1.571

> <Valence>
7.320

> <Coulomb>
-8.530

> <VdW>
1.249

> <VdW6>
-2.615

> <VdW12>
3.864

> <Bond>
0.056

> <Angle>
0.694

> <Pdih>
6.570

> <Idih>
0.000

> <Tether>
0.000

$$$$
VeraChem MOL file


 13 13  0  0  0  0  0  0  0  0999 V2000     
   19.7013   19.5093   21.0144 C   0  0  0  0  0  0  0  0  0  0  0  0
   19.1366   18.8959   20.2998 H   0  0  0  0  0  0  0  0  0  0  0  0
   20.0991   20.3846   20.4871 H   0  0  0  0  0  0  0  0  0  0  0  0
   20.7219   18.7153   21.8949 C   0  0  0  0  0  0  0  0  0  0  0  0
   21.1926   17.8453   21.4242 H   0  0  0  0  0  0  0  0  0  0  0  0
   21.5021   19.3296   22.3613 H   0  0  0  0  0  0  0  0  0  0  0  0
   19.5032   18.4101   22.8172 C   0  0  0  0  0  0  0  0  0  0  0  0
   18.8952   17.5593   22.4804 H   0  0  0  0  0  0  0  0  0  0  0  0
   18.9582   19.7971   22.3605 C   0  0  0  0  0  0  0  0  0  0  0  0
   17.8679   19.8858   22.3001 H   0  0  0  0  0  0  0  0  0  0  0  0
   19.3512   20.6504   22.9274 H   0  0  0  0  0  0  0  0  0  0  0  0
   19.7993   18.3011   24.1901 O   0  0  0  0  0  0  0  0  0  0  0  0
   18.9440   18.2741   24.6706 H   0  0  0  0  0  0  0  0  0  0  0  0
  1  2  1  0  0  0  0
  1  3  1  0  0  0  0
  1  4  1  0  0  0  0
  4  5  1  0  0  0  0
  4  6  1  0  0  0  0
  4  7  1  0  0  0  0
  7  8  1  0  0  0  0
  1  9  1  0  0  0  0
  7  9  1  0  0  0  0
  9 10  1  0  0  0  0
  9 11  1  0  0  0  0
  7 12  1  0  0  0  0
 12 13  1  0  0  0  0
M  END
> <VConfSearch Rank>
841

> <Conf_Id>
22

> <Delta U+W>
0.000

> <U+W>
-3.131

> <U>
-0.154

> <W>
-2.978

> <W(PB)>
-4.579

> <W(SA)>
1.601

> <Valence>
6.333

> <Coulomb>
-7.439

> <VdW>
0.952

> <VdW6>
-2.120

> <VdW12>
3.072

> <Bond>
0.065

> <Angle>
0.931

> <Pdih>
5.338

> <Idih>
0.000

> <Tether>
0.000

$$$$
VeraChem MOL file


 13 13  0  0  0  0  0  0  0  0999 V2000     
   20.9236   18.9505   21.9893 C   0  0  0  0  0  0  0  0  0  0  0  0
   21.1721   18.6378   20.9666 H   0  0  0  0  0  0  0  0  0  0  0  0
   21.8558   19.1498   22.5311 H   0  0  0  0  0  0  0  0  0  0  0  0
   19.8865   18.0351   22.7199 C   0  0  0  0  0  0  0  0  0  0  0  0
   19.8786   18.1333   23.8127 H   0  0  0  0  0  0  0  0  0  0  0  0
   19.9164   16.9709   22.4616 H   0  0  0  0  0  0  0  0  0  0  0  0
   18.8039   18.8827   21.9859 C   0  0  0  0  0  0  0  0  0  0  0  0
   18.6044   18.5560   20.9561 H   0  0  0  0  0  0  0  0  0  0  0  0
   19.8227   20.0579   22.0858 C   0  0  0  0  0  0  0  0  0  0  0  0
   19.7986   20.6004   23.0390 H   0  0  0  0  0  0  0  0  0  0  0  0
   19.7940   20.7840   21.2661 H   0  0  0  0  0  0  0  0  0  0  0  0
   17.6003   19.0673   22.6943 O   0  0  0  0  0  0  0  0  0  0  0  0
   17.1251   18.2086   22.6886 H   0  0  0  0  0  0  0  0  0  0  0  0
  1  2  1  0  0  0  0
  1  3  1  0  0  0  0
  1  4  1  0  0  0  0
  4  5  1  0  0  0  0
  4  6  1  0  0  0  0
  4  7  1  0  0  0  0
  7  8  1  0  0  0  0
  1  9  1  0  0  0  0
  7  9  1  0  0  0  0
  9 10  1  0  0  0  0
  9 11  1  0  0  0  0
  7 12  1  0  0  0  0
 12 13  1  0  0  0  0
M  END
> <VConfSearch Rank>
842

> <Conf_Id>
19

> <Delta U+W>
-0.011

> <U+W>
-3.142

> <U>
-0.154

> <W>
-2.989

> <W(PB)>
-4.588

> <W(SA)>
1.599

> <Valence>
6.334

> <Coulomb>
-7.439

> <VdW>
0.951

> <VdW6>
-2.120

> <VdW12>
3.072

> <Bond>
0.065

> <Angle>
0.930

> <Pdih>
5.339

> <Idih>
0.000

> <Tether>
0.000

$$$$
VeraChem MOL file


 13 13  0  0  0  0  0  0  0  0999 V2000     
   19.3568   20.1014   22.8669 C   0  0  0  0  0  0  0  0  0  0  0  0
   18.5799   20.6488   23.4135 H   0  0  0  0  0  0  0  0  0  0  0  0
   20.2835   20.6894   22.8911 H   0  0  0  0  0  0  0  0  0  0  0  0
   18.9589   19.5744   21.4482 C   0  0  0  0  0  0  0  0  0  0  0  0
   17.8986   19.3159   21.3397 H   0  0  0  0  0  0  0  0  0  0  0  0
   19.2549   20.2028   20.6009 H   0  0  0  0  0  0  0  0  0  0  0  0
   19.8870   18.3554   21.7450 C   0  0  0  0  0  0  0  0  0  0  0  0
   19.5330   17.4008   21.3349 H   0  0  0  0  0  0  0  0  0  0  0  0
   19.5331   18.5936   23.2464 C   0  0  0  0  0  0  0  0  0  0  0  0
   20.3265   18.3694   23.9679 H   0  0  0  0  0  0  0  0  0  0  0  0
   18.6116   18.0974   23.5744 H   0  0  0  0  0  0  0  0  0  0  0  0
   21.2476   18.5493   21.4141 O   0  0  0  0  0  0  0  0  0  0  0  0
   21.7503   17.8011   21.8011 H   0  0  0  0  0  0  0  0  0  0  0  0
  1  2  1  0  0  0  0
  1  3  1  0  0  0  0
  1  4  1  0  0  0  0
  4  5  1  0  0  0  0
  4  6  1  0  0  0  0
  4  7  1  0  0  0  0
  7  8  1  0  0  0  0
  1  9  1  0  0  0  0
  7  9  1  0  0  0  0
  9 10  1  0  0  0  0
  9 11  1  0  0  0  0
  7 12  1  0  0  0  0
 12 13  1  0  0  0  0
M  END
> <VConfSearch Rank>
843

> <Conf_Id>
20

> <Delta U+W>
1.030

> <U+W>
-2.101

> <U>
0.841

> <W>
-2.942

> <W(PB)>
-4.530

> <W(SA)>
1.587

> <Valence>
6.736

> <Coulomb>
-7.246

> <VdW>
1.352

> <VdW6>
-2.500

> <VdW12>
3.851

> <Bond>
0.063

> <Angle>
0.687

> <Pdih>
5.986

> <Idih>
0.000

> <Tether>
0.000

$$$$
VeraChem MOL file


 13 13  0  0  0  0  0  0  0  0999 V2000     
   20.0466   18.7668   23.4443 C   0  0  0  0  0  0  0  0  0  0  0  0
   20.8966   19.3253   23.8581 H   0  0  0  0  0  0  0  0  0  0  0  0
   19.6234   18.1367   24.2356 H   0  0  0  0  0  0  0  0  0  0  0  0
   20.3323   18.0571   22.0797 C   0  0  0  0  0  0  0  0  0  0  0  0
   21.3562   17.6980   21.9281 H   0  0  0  0  0  0  0  0  0  0  0  0
   19.6349   17.2480   21.8300 H   0  0  0  0  0  0  0  0  0  0  0  0
   19.9957   19.4346   21.4329 C   0  0  0  0  0  0  0  0  0  0  0  0
   20.8394   20.1380   21.4215 H   0  0  0  0  0  0  0  0  0  0  0  0
   19.0254   19.6339   22.6363 C   0  0  0  0  0  0  0  0  0  0  0  0
   18.0359   19.1772   22.5110 H   0  0  0  0  0  0  0  0  0  0  0  0
   18.8951   20.6672   22.9763 H   0  0  0  0  0  0  0  0  0  0  0  0
   19.3836   19.3743   20.1666 O   0  0  0  0  0  0  0  0  0  0  0  0
   18.6434   18.7358   20.2376 H   0  0  0  0  0  0  0  0  0  0  0  0
  1  2  1  0  0  0  0
  1  3  1  0  0  0  0
  1  4  1  0  0  0  0
  4  5  1  0  0  0  0
  4  6  1  0  0  0  0
  4  7  1  0  0  0  0
  7  8  1  0  0  0  0
  1  9  1  0  0  0  0
  7  9  1  0  0  0  0
  9 10  1  0  0  0  0
  9 11  1  0  0  0  0
  7 12  1  0  0  0  0
 12 13  1  0  0  0  0
M  END
> <VConfSearch Rank>
844

> <Conf_Id>
24

> <Delta U+W>
0.356

> <U+W>
-2.775

> <U>
-0.184

> <W>
-2.591

> <W(PB)>
-4.184

> <W(SA)>
1.593

> <Valence>
6.840

> <Coulomb>
-7.916

> <VdW>
0.893

> <VdW6>
-2.167

> <VdW12>
3.060

> <Bond>
0.059

> <Angle>
0.918

> <Pdih>
5.862

> <Idih>
0.000

> <Tether>
0.000

$$$$
VeraChem MOL file


 13 13  0  0  0  0  0  0  0  0999 V2000     
   20.4841   18.8909   23.0056 C   0  0  0  0  0  0  0  0  0  0  0  0
   21.0064   18.2249   23.7027 H   0  0  0  0  0  0  0  0  0  0  0  0
   20.8918   19.9031   23.1220 H   0  0  0  0  0  0  0  0  0  0  0  0
   18.9212   18.8049   23.0184 C   0  0  0  0  0  0  0  0  0  0  0  0
   18.5237   17.8161   23.2776 H   0  0  0  0  0  0  0  0  0  0  0  0
   18.4008   19.5582   23.6205 H   0  0  0  0  0  0  0  0  0  0  0  0
   18.9849   19.0831   21.4846 C   0  0  0  0  0  0  0  0  0  0  0  0
   18.2270   18.5581   20.8893 H   0  0  0  0  0  0  0  0  0  0  0  0
   20.3813   18.3885   21.5266 C   0  0  0  0  0  0  0  0  0  0  0  0
   20.3417   17.2976   21.4201 H   0  0  0  0  0  0  0  0  0  0  0  0
   21.1317   18.7793   20.8303 H   0  0  0  0  0  0  0  0  0  0  0  0
   19.0141   20.4493   21.1318 O   0  0  0  0  0  0  0  0  0  0  0  0
   19.7033   20.8641   21.6906 H   0  0  0  0  0  0  0  0  0  0  0  0
  1  2  1  0  0  0  0
  1  3  1  0  0  0  0
  1  4  1  0  0  0  0
  4  5  1  0  0  0  0
  4  6  1  0  0  0  0
  4  7  1  0  0  0  0
  7  8  1  0  0  0  0
  1  9  1  0  0  0  0
  7  9  1  0  0  0  0
  9 10  1  0  0  0  0
  9 11  1  0  0  0  0
  7 12  1  0  0  0  0
 12 13  1  0  0  0  0
M  END
> <VConfSearch Rank>
845

> <Conf_Id>
44

> <Delta U+W>
0.823

> <U+W>
-2.308

> <U>
0.039

> <W>
-2.348

> <W(PB)>
-3.918

> <W(SA)>
1.571

> <Valence>
7.320

> <Coulomb>
-8.530

> <VdW>
1.249

> <VdW6>
-2.615

> <VdW12>
3.864

> <Bond>
0.056

> <Angle>
0.694

> <Pdih>
6.570

> <Idih>
0.000

> <Tether>
0.000

$$$$
VeraChem MOL file


 13 13  0  0  0  0  0  0  0  0999 V2000     
   20.2413   18.2050   23.0906 C   0  0  0  0  0  0  0  0  0  0  0  0
   19.6612   17.2880   23.2581 H   0  0  0  0  0  0  0  0  0  0  0  0
   21.1814   18.1321   23.6504 H   0  0  0  0  0  0  0  0  0  0  0  0
   19.4342   19.5326   23.2734 C   0  0  0  0  0  0  0  0  0  0  0  0
   18.6381   19.5149   24.0256 H   0  0  0  0  0  0  0  0  0  0  0  0
   20.0497   20.4268   23.4319 H   0  0  0  0  0  0  0  0  0  0  0  0
   18.9783   19.3157   21.7989 C   0  0  0  0  0  0  0  0  0  0  0  0
   18.1262   18.6300   21.6952 H   0  0  0  0  0  0  0  0  0  0  0  0
   20.3657   18.6364   21.5920 C   0  0  0  0  0  0  0  0  0  0  0  0
   20.3954   17.8243   20.8573 H   0  0  0  0  0  0  0  0  0  0  0  0
   21.1874   19.3326   21.3824 H   0  0  0  0  0  0  0  0  0  0  0  0
   18.7666   20.4929   21.0547 O   0  0  0  0  0  0  0  0  0  0  0  0
   18.6473   20.2268   20.1176 H   0  0  0  0  0  0  0  0  0  0  0  0
  1  2  1  0  0  0  0
  1  3  1  0  0  0  0
  1  4  1  0  0  0  0
  4  5  1  0  0  0  0
  4  6  1  0  0  0  0
  4  7  1  0  0  0  0
  7  8  1  0  0  0  0
  1  9  1  0  0  0  0
  7  9  1  0  0  0  0
  9 10  1  0  0  0  0
  9 11  1  0  0  0  0
  7 12  1  0  0  0  0
 12 13  1  0  0  0  0
M  END
> <VConfSearch Rank>
846

> <Conf_Id>
22

> <Delta U+W>
0.000

> <U+W>
-3.131

> <U>
-0.154

> <W>
-2.978

> <W(PB)>
-4.579

> <W(SA)>
1.601

> <Valence>
6.333

> <Coulomb>
-7.439

> <VdW>
0.952

> <VdW6>
-2.120

> <VdW12>
3.072

> <Bond>
0.065

> <Angle>
0.931

> <Pdih>
5.338

> <Idih>
0.000

> <Tether>
0.000

$$$$
VeraChem MOL file


 13 13  0  0  0  0  0  0  0  0999 V2000     
   19.2167   19.4135   21.0913 C   0  0  0  0  0  0  0  0  0  0  0  0
   18.4219   18.8171   20.6243 H   0  0  0  0  0  0  0  0  0  0  0  0
   19.4787   20.2375   20.4170 H   0  0  0  0  0  0  0  0  0  0  0  0
   20.4145   18.5803   21.6557 C   0  0  0  0  0  0  0  0  0  0  0  0
   21.3353   19.1542   21.8186 H   0  0  0  0  0  0  0  0  0  0  0  0
   20.6625   17.6626   21.1113 H   0  0  0  0  0  0  0  0  0  0  0  0
   19.5311   18.3990   22.9269 C   0  0  0  0  0  0  0  0  0  0  0  0
   18.7970   17.5855   22.8475 H   0  0  0  0  0  0  0  0  0  0  0  0
   18.9513   19.8041   22.5827 C   0  0  0  0  0  0  0  0  0  0  0  0
   19.5508   20.6458   22.9512 H   0  0  0  0  0  0  0  0  0  0  0  0
   17.9046   19.9686   22.8607 H   0  0  0  0  0  0  0  0  0  0  0  0
   20.2356   18.3200   24.1443 O   0  0  0  0  0  0  0  0  0  0  0  0
   20.6822   17.4463   24.1654 H   0  0  0  0  0  0  0  0  0  0  0  0
  1  2  1  0  0  0  0
  1  3  1  0  0  0  0
  1  4  1  0  0  0  0
  4  5  1  0  0  0  0
  4  6  1  0  0  0  0
  4  7  1  0  0  0  0
  7  8  1  0  0  0  0
  1  9  1  0  0  0  0
  7  9  1  0  0  0  0
  9 10  1  0  0  0  0
  9 11  1  0  0  0  0
  7 12  1  0  0  0  0
 12 13  1  0  0  0  0
M  END
> <VConfSearch Rank>
847

> <Conf_Id>
19

> <Delta U+W>
-0.011

> <U+W>
-3.142

> <U>
-0.154

> <W>
-2.989

> <W(PB)>
-4.588

> <W(SA)>
1.599

> <Valence>
6.334

> <Coulomb>
-7.439

> <VdW>
0.951

> <VdW6>
-2.120

> <VdW12>
3.072

> <Bond>
0.065

> <Angle>
0.930

> <Pdih>
5.339

> <Idih>
0.000

> <Tether>
0.000

$$$$
VeraChem MOL file


 13 13  0  0  0  0  0  0  0  0999 V2000     
   20.4211   18.3497   21.6480 C   0  0  0  0  0  0  0  0  0  0  0  0
   20.6311   17.3366   21.2854 H   0  0  0  0  0  0  0  0  0  0  0  0
   21.1845   19.0305   21.2494 H   0  0  0  0  0  0  0  0  0  0  0  0
   20.1635   18.4913   23.1851 C   0  0  0  0  0  0  0  0  0  0  0  0
   19.7003   17.6134   23.6516 H   0  0  0  0  0  0  0  0  0  0  0  0
   21.0236   18.7973   23.7909 H   0  0  0  0  0  0  0  0  0  0  0  0
   19.1567   19.6250   22.8157 C   0  0  0  0  0  0  0  0  0  0  0  0
   18.2694   19.6762   23.4598 H   0  0  0  0  0  0  0  0  0  0  0  0
   18.9488   18.8512   21.4763 C   0  0  0  0  0  0  0  0  0  0  0  0
   18.7512   19.4670   20.5919 H   0  0  0  0  0  0  0  0  0  0  0  0
   18.1909   18.0600   21.5280 H   0  0  0  0  0  0  0  0  0  0  0  0
   19.7310   20.9096   22.6803 O   0  0  0  0  0  0  0  0  0  0  0  0
   19.0497   21.4920   22.2817 H   0  0  0  0  0  0  0  0  0  0  0  0
  1  2  1  0  0  0  0
  1  3  1  0  0  0  0
  1  4  1  0  0  0  0
  4  5  1  0  0  0  0
  4  6  1  0  0  0  0
  4  7  1  0  0  0  0
  7  8  1  0  0  0  0
  1  9  1  0  0  0  0
  7  9  1  0  0  0  0
  9 10  1  0  0  0  0
  9 11  1  0  0  0  0
  7 12  1  0  0  0  0
 12 13  1  0  0  0  0
M  END
> <VConfSearch Rank>
848

> <Conf_Id>
20

> <Delta U+W>
1.030

> <U+W>
-2.101

> <U>
0.841

> <W>
-2.942

> <W(PB)>
-4.530

> <W(SA)>
1.587

> <Valence>
6.736

> <Coulomb>
-7.246

> <VdW>
1.352

> <VdW6>
-2.500

> <VdW12>
3.851

> <Bond>
0.063

> <Angle>
0.687

> <Pdih>
5.986

> <Idih>
0.000

> <Tether>
0.000

$$$$
VeraChem MOL file


 13 13  0  0  0  0  0  0  0  0999 V2000     
   19.7156   18.0580   21.2954 C   0  0  0  0  0  0  0  0  0  0  0  0
   20.0133   17.0356   21.5633 H   0  0  0  0  0  0  0  0  0  0  0  0
   19.4424   18.0762   20.2336 H   0  0  0  0  0  0  0  0  0  0  0  0
   20.7056   19.1728   21.7694 C   0  0  0  0  0  0  0  0  0  0  0  0
   21.7651   18.8955   21.8000 H   0  0  0  0  0  0  0  0  0  0  0  0
   20.6069   20.1280   21.2391 H   0  0  0  0  0  0  0  0  0  0  0  0
   19.9468   19.0972   23.1287 C   0  0  0  0  0  0  0  0  0  0  0  0
   20.2952   18.2901   23.7875 H   0  0  0  0  0  0  0  0  0  0  0  0
   18.6956   18.7211   22.2790 C   0  0  0  0  0  0  0  0  0  0  0  0
   18.1477   19.5753   21.8625 H   0  0  0  0  0  0  0  0  0  0  0  0
   17.9799   18.0449   22.7595 H   0  0  0  0  0  0  0  0  0  0  0  0
   19.8539   20.3100   23.8374 O   0  0  0  0  0  0  0  0  0  0  0  0
   19.5406   20.9880   23.2026 H   0  0  0  0  0  0  0  0  0  0  0  0
  1  2  1  0  0  0  0
  1  3  1  0  0  0  0
  1  4  1  0  0  0  0
  4  5  1  0  0  0  0
  4  6  1  0  0  0  0
  4  7  1  0  0  0  0
  7  8  1  0  0  0  0
  1  9  1  0  0  0  0
  7  9  1  0  0  0  0
  9 10  1  0  0  0  0
  9 11  1  0  0  0  0
  7 12  1  0  0  0  0
 12 13  1  0  0  0  0
M  END
> <VConfSearch Rank>
849

> <Conf_Id>
24

> <Delta U+W>
0.356

> <U+W>
-2.775

> <U>
-0.184

> <W>
-2.591

> <W(PB)>
-4.184

> <W(SA)>
1.593

> <Valence>
6.840

> <Coulomb>
-7.916

> <VdW>
0.893

> <VdW6>
-2.167

> <VdW12>
3.060

> <Bond>
0.059

> <Angle>
0.918

> <Pdih>
5.862

> <Idih>
0.000

> <Tether>
0.000

$$$$
VeraChem MOL file


 13 13  0  0  0  0  0  0  0  0999 V2000     
   18.6853   18.6199   21.8525 C   0  0  0  0  0  0  0  0  0  0  0  0
   17.8023   18.0118   22.0821 H   0  0  0  0  0  0  0  0  0  0  0  0
   18.5393   19.0859   20.8697 H   0  0  0  0  0  0  0  0  0  0  0  0
   20.0700   17.9169   22.0486 C   0  0  0  0  0  0  0  0  0  0  0  0
   20.0842   17.1558   22.8383 H   0  0  0  0  0  0  0  0  0  0  0  0
   20.5285   17.4929   21.1482 H   0  0  0  0  0  0  0  0  0  0  0  0
   20.6104   19.3099   22.4976 C   0  0  0  0  0  0  0  0  0  0  0  0
   21.3631   19.2767   23.2956 H   0  0  0  0  0  0  0  0  0  0  0  0
   19.1553   19.5973   22.9813 C   0  0  0  0  0  0  0  0  0  0  0  0
   18.9452   19.2482   23.9996 H   0  0  0  0  0  0  0  0  0  0  0  0
   18.8176   20.6359   22.8927 H   0  0  0  0  0  0  0  0  0  0  0  0
   21.0586   20.1375   21.4460 O   0  0  0  0  0  0  0  0  0  0  0  0
   20.3520   20.1293   20.7677 H   0  0  0  0  0  0  0  0  0  0  0  0
  1  2  1  0  0  0  0
  1  3  1  0  0  0  0
  1  4  1  0  0  0  0
  4  5  1  0  0  0  0
  4  6  1  0  0  0  0
  4  7  1  0  0  0  0
  7  8  1  0  0  0  0
  1  9  1  0  0  0  0
  7  9  1  0  0  0  0
  9 10  1  0  0  0  0
  9 11  1  0  0  0  0
  7 12  1  0  0  0  0
 12 13  1  0  0  0  0
M  END
> <VConfSearch Rank>
850

> <Conf_Id>
44

> <Delta U+W>
0.823

> <U+W>
-2.308

> <U>
0.039

> <W>
-2.348

> <W(PB)>
-3.918

> <W(SA)>
1.571

> <Valence>
7.320

> <Coulomb>
-8.530

> <VdW>
1.249

> <VdW6>
-2.615

> <VdW12>
3.864

> <Bond>
0.056

> <Angle>
0.694

> <Pdih>
6.570

> <Idih>
0.000

> <Tether>
0.000

$$$$
VeraChem MOL file


 13 13  0  0  0  0  0  0  0  0999 V2000     
   18.8459   19.7741   22.9779 C   0  0  0  0  0  0  0  0  0  0  0  0
   19.3474   20.3124   23.7930 H   0  0  0  0  0  0  0  0  0  0  0  0
   17.7845   20.0495   22.9771 H   0  0  0  0  0  0  0  0  0  0  0  0
   19.1583   18.2425   22.9155 C   0  0  0  0  0  0  0  0  0  0  0  0
   19.3358   17.7456   23.8755 H   0  0  0  0  0  0  0  0  0  0  0  0
   18.4375   17.6493   22.3391 H   0  0  0  0  0  0  0  0  0  0  0  0
   20.4333   18.6585   22.1218 C   0  0  0  0  0  0  0  0  0  0  0  0
   21.2738   18.9616   22.7612 H   0  0  0  0  0  0  0  0  0  0  0  0
   19.5764   19.8498   21.5966 C   0  0  0  0  0  0  0  0  0  0  0  0
   20.1225   20.7768   21.3900 H   0  0  0  0  0  0  0  0  0  0  0  0
   18.9458   19.6109   20.7311 H   0  0  0  0  0  0  0  0  0  0  0  0
   20.8572   17.7418   21.1397 O   0  0  0  0  0  0  0  0  0  0  0  0
   21.5542   18.1851   20.6097 H   0  0  0  0  0  0  0  0  0  0  0  0
  1  2  1  0  0  0  0
  1  3  1  0  0  0  0
  1  4  1  0  0  0  0
  4  5  1  0  0  0  0
  4  6  1  0  0  0  0
  4  7  1  0  0  0  0
  7  8  1  0  0  0  0
  1  9  1  0  0  0  0
  7  9  1  0  0  0  0
  9 10  1  0  0  0  0
  9 11  1  0  0  0  0
  7 12  1  0  0  0  0
 12 13  1  0  0  0  0
M  END
> <VConfSearch Rank>
851

> <Conf_Id>
22

> <Delta U+W>
0.000

> <U+W>
-3.131

> <U>
-0.154

> <W>
-2.978

> <W(PB)>
-4.579

> <W(SA)>
1.601

> <Valence>
6.333

> <Coulomb>
-7.439

> <VdW>
0.952

> <VdW6>
-2.120

> <VdW12>
3.072

> <Bond>
0.065

> <Angle>
0.931

> <Pdih>
5.338

> <Idih>
0.000

> <Tether>
0.000

$$$$
VeraChem MOL file


 13 13  0  0  0  0  0  0  0  0999 V2000     
   18.3152   18.9966   22.3414 C   0  0  0  0  0  0  0  0  0  0  0  0
   17.9661   19.8469   22.9419 H   0  0  0  0  0  0  0  0  0  0  0  0
   17.4447   18.4075   22.0288 H   0  0  0  0  0  0  0  0  0  0  0  0
   19.4988   18.1916   22.9726 C   0  0  0  0  0  0  0  0  0  0  0  0
   19.6341   17.1815   22.5661 H   0  0  0  0  0  0  0  0  0  0  0  0
   19.5155   18.1367   24.0666 H   0  0  0  0  0  0  0  0  0  0  0  0
   20.4174   19.2757   22.3321 C   0  0  0  0  0  0  0  0  0  0  0  0
   20.5120   20.1911   22.9321 H   0  0  0  0  0  0  0  0  0  0  0  0
   19.3352   19.3662   21.2143 C   0  0  0  0  0  0  0  0  0  0  0  0
   19.4367   18.6147   20.4216 H   0  0  0  0  0  0  0  0  0  0  0  0
   19.2092   20.3513   20.7520 H   0  0  0  0  0  0  0  0  0  0  0  0
   21.6823   18.8212   21.9102 O   0  0  0  0  0  0  0  0  0  0  0  0
   22.2150   18.6536   22.7173 H   0  0  0  0  0  0  0  0  0  0  0  0
  1  2  1  0  0  0  0
  1  3  1  0  0  0  0
  1  4  1  0  0  0  0
  4  5  1  0  0  0  0
  4  6  1  0  0  0  0
  4  7  1  0  0  0  0
  7  8  1  0  0  0  0
  1  9  1  0  0  0  0
  7  9  1  0  0  0  0
  9 10  1  0  0  0  0
  9 11  1  0  0  0  0
  7 12  1  0  0  0  0
 12 13  1  0  0  0  0
M  END
> <VConfSearch Rank>
852

> <Conf_Id>
19

> <Delta U+W>
-0.011

> <U+W>
-3.142

> <U>
-0.154

> <W>
-2.989

> <W(PB)>
-4.588

> <W(SA)>
1.599

> <Valence>
6.334

> <Coulomb>
-7.439

> <VdW>
0.951

> <VdW6>
-2.120

> <VdW12>
3.072

> <Bond>
0.065

> <Angle>
0.930

> <Pdih>
5.339

> <Idih>
0.000

> <Tether>
0.000

$$$$
VeraChem MOL file


 13 13  0  0  0  0  0  0  0  0999 V2000     
   18.9959   18.1847   21.6829 C   0  0  0  0  0  0  0  0  0  0  0  0
   18.2631   17.3757   21.7856 H   0  0  0  0  0  0  0  0  0  0  0  0
   19.2210   18.3212   20.6171 H   0  0  0  0  0  0  0  0  0  0  0  0
   20.2559   18.0936   22.6064 C   0  0  0  0  0  0  0  0  0  0  0  0
   20.0772   17.6083   23.5735 H   0  0  0  0  0  0  0  0  0  0  0  0
   21.1528   17.6553   22.1549 H   0  0  0  0  0  0  0  0  0  0  0  0
   20.2147   19.6529   22.6562 C   0  0  0  0  0  0  0  0  0  0  0  0
   20.5135   20.0876   23.6188 H   0  0  0  0  0  0  0  0  0  0  0  0
   18.6739   19.5075   22.4543 C   0  0  0  0  0  0  0  0  0  0  0  0
   18.1896   20.2982   21.8707 H   0  0  0  0  0  0  0  0  0  0  0  0
   18.1108   19.3648   23.3847 H   0  0  0  0  0  0  0  0  0  0  0  0
   20.8969   20.2999   21.6006 O   0  0  0  0  0  0  0  0  0  0  0  0
   20.6564   21.2501   21.6384 H   0  0  0  0  0  0  0  0  0  0  0  0
  1  2  1  0  0  0  0
  1  3  1  0  0  0  0
  1  4  1  0  0  0  0
  4  5  1  0  0  0  0
  4  6  1  0  0  0  0
  4  7  1  0  0  0  0
  7  8  1  0  0  0  0
  1  9  1  0  0  0  0
  7  9  1  0  0  0  0
  9 10  1  0  0  0  0
  9 11  1  0  0  0  0
  7 12  1  0  0  0  0
 12 13  1  0  0  0  0
M  END
> <VConfSearch Rank>
853

> <Conf_Id>
20

> <Delta U+W>
1.030

> <U+W>
-2.101

> <U>
0.841

> <W>
-2.942

> <W(PB)>
-4.530

> <W(SA)>
1.587

> <Valence>
6.736

> <Coulomb>
-7.246

> <VdW>
1.352

> <VdW6>
-2.500

> <VdW12>
3.851

> <Bond>
0.063

> <Angle>
0.687

> <Pdih>
5.986

> <Idih>
0.000

> <Tether>
0.000

$$$$
VeraChem MOL file


 13 13  0  0  0  0  0  0  0  0999 V2000     
   19.3724   17.7834   22.5780 C   0  0  0  0  0  0  0  0  0  0  0  0
   20.1490   17.0467   22.8226 H   0  0  0  0  0  0  0  0  0  0  0  0
   18.3904   17.3145   22.7129 H   0  0  0  0  0  0  0  0  0  0  0  0
   19.5922   18.5414   21.2273 C   0  0  0  0  0  0  0  0  0  0  0  0
   20.0866   17.9742   20.4310 H   0  0  0  0  0  0  0  0  0  0  0  0
   18.6916   19.0137   20.8159 H   0  0  0  0  0  0  0  0  0  0  0  0
   20.5116   19.4921   22.0520 C   0  0  0  0  0  0  0  0  0  0  0  0
   21.5344   19.1146   22.1862 H   0  0  0  0  0  0  0  0  0  0  0  0
   19.5637   19.1831   23.2500 C   0  0  0  0  0  0  0  0  0  0  0  0
   18.6567   19.7988   23.2907 H   0  0  0  0  0  0  0  0  0  0  0  0
   20.0329   19.1825   24.2400 H   0  0  0  0  0  0  0  0  0  0  0  0
   20.5304   20.8339   21.6266 O   0  0  0  0  0  0  0  0  0  0  0  0
   19.5967   21.1140   21.5246 H   0  0  0  0  0  0  0  0  0  0  0  0
  1  2  1  0  0  0  0
  1  3  1  0  0  0  0
  1  4  1  0  0  0  0
  4  5  1  0  0  0  0
  4  6  1  0  0  0  0
  4  7  1  0  0  0  0
  7  8  1  0  0  0  0
  1  9  1  0  0  0  0
  7  9  1  0  0  0  0
  9 10  1  0  0  0  0
  9 11  1  0  0  0  0
  7 12  1  0  0  0  0
 12 13  1  0  0  0  0
M  END
> <VConfSearch Rank>
854

> <Conf_Id>
24

> <Delta U+W>
0.356

> <U+W>
-2.775

> <U>
-0.184

> <W>
-2.591

> <W(PB)>
-4.184

> <W(SA)>
1.593

> <Valence>
6.840

> <Coulomb>
-7.916

> <VdW>
0.893

> <VdW6>
-2.167

> <VdW12>
3.060

> <Bond>
0.059

> <Angle>
0.918

> <Pdih>
5.862

> <Idih>
0.000

> <Tether>
0.000

$$$$
VeraChem MOL file


 13 13  0  0  0  0  0  0  0  0999 V2000     
   18.5734   18.9024   22.2952 C   0  0  0  0  0  0  0  0  0  0  0  0
   17.6115   19.1099   21.8114 H   0  0  0  0  0  0  0  0  0  0  0  0
   18.3780   18.4336   23.2680 H   0  0  0  0  0  0  0  0  0  0  0  0
   19.5923   20.0902   22.3295 C   0  0  0  0  0  0  0  0  0  0  0  0
   19.5111   20.7818   21.4821 H   0  0  0  0  0  0  0  0  0  0  0  0
   19.6208   20.6758   23.2552 H   0  0  0  0  0  0  0  0  0  0  0  0
   20.7110   19.0148   22.1684 C   0  0  0  0  0  0  0  0  0  0  0  0
   21.5662   19.3277   21.5559 H   0  0  0  0  0  0  0  0  0  0  0  0
   19.6389   18.1696   21.4132 C   0  0  0  0  0  0  0  0  0  0  0  0
   19.5691   18.3903   20.3411 H   0  0  0  0  0  0  0  0  0  0  0  0
   19.7079   17.0836   21.5413 H   0  0  0  0  0  0  0  0  0  0  0  0
   21.1659   18.4485   23.3784 O   0  0  0  0  0  0  0  0  0  0  0  0
   20.3657   18.1897   23.8803 H   0  0  0  0  0  0  0  0  0  0  0  0
  1  2  1  0  0  0  0
  1  3  1  0  0  0  0
  1  4  1  0  0  0  0
  4  5  1  0  0  0  0
  4  6  1  0  0  0  0
  4  7  1  0  0  0  0
  7  8  1  0  0  0  0
  1  9  1  0  0  0  0
  7  9  1  0  0  0  0
  9 10  1  0  0  0  0
  9 11  1  0  0  0  0
  7 12  1  0  0  0  0
 12 13  1  0  0  0  0
M  END
> <VConfSearch Rank>
855

> <Conf_Id>
44

> <Delta U+W>
0.823

> <U+W>
-2.308

> <U>
0.039

> <W>
-2.348

> <W(PB)>
-3.918

> <W(SA)>
1.571

> <Valence>
7.320

> <Coulomb>
-8.530

> <VdW>
1.249

> <VdW6>
-2.615

> <VdW12>
3.864

> <Bond>
0.056

> <Angle>
0.694

> <Pdih>
6.570

> <Idih>
0.000

> <Tether>
0.000

$$$$
VeraChem MOL file


 13 13  0  0  0  0  0  0  0  0999 V2000     
   20.3113   19.9191   22.9958 C   0  0  0  0  0  0  0  0  0  0  0  0
   20.6682   19.5029   23.9471 H   0  0  0  0  0  0  0  0  0  0  0  0
   20.6486   20.9597   22.9200 H   0  0  0  0  0  0  0  0  0  0  0  0
   18.7970   19.6643   22.6972 C   0  0  0  0  0  0  0  0  0  0  0  0
   18.1316   19.6299   23.5667 H   0  0  0  0  0  0  0  0  0  0  0  0
   18.3586   20.3301   21.9435 H   0  0  0  0  0  0  0  0  0  0  0  0
   19.2632   18.2832   22.1456 C   0  0  0  0  0  0  0  0  0  0  0  0
   19.3980   17.5186   22.9229 H   0  0  0  0  0  0  0  0  0  0  0  0
   20.5785   19.0175   21.7456 C   0  0  0  0  0  0  0  0  0  0  0  0
   21.4912   18.4122   21.7737 H   0  0  0  0  0  0  0  0  0  0  0  0
   20.5327   19.5430   20.7835 H   0  0  0  0  0  0  0  0  0  0  0  0
   18.5051   17.7766   21.0717 O   0  0  0  0  0  0  0  0  0  0  0  0
   18.9888   17.0007   20.7150 H   0  0  0  0  0  0  0  0  0  0  0  0
  1  2  1  0  0  0  0
  1  3  1  0  0  0  0
  1  4  1  0  0  0  0
  4  5  1  0  0  0  0
  4  6  1  0  0  0  0
  4  7  1  0  0  0  0
  7  8  1  0  0  0  0
  1  9  1  0  0  0  0
  7  9  1  0  0  0  0
  9 10  1  0  0  0  0
  9 11  1  0  0  0  0
  7 12  1  0  0  0  0
 12 13  1  0  0  0  0
M  END
> <VConfSearch Rank>
856

> <Conf_Id>
22

> <Delta U+W>
0.000

> <U+W>
-3.131

> <U>
-0.154

> <W>
-2.978

> <W(PB)>
-4.579

> <W(SA)>
1.601

> <Valence>
6.333

> <Coulomb>
-7.439

> <VdW>
0.952

> <VdW6>
-2.120

> <VdW12>
3.072

> <Bond>
0.065

> <Angle>
0.931

> <Pdih>
5.338

> <Idih>
0.000

> <Tether>
0.000

$$$$
VeraChem MOL file


 13 13  0  0  0  0  0  0  0  0999 V2000     
   18.3136   18.9232   22.3462 C   0  0  0  0  0  0  0  0  0  0  0  0
   17.9292   19.6560   23.0679 H   0  0  0  0  0  0  0  0  0  0  0  0
   17.4691   18.3509   21.9444 H   0  0  0  0  0  0  0  0  0  0  0  0
   19.5336   18.0845   22.8518 C   0  0  0  0  0  0  0  0  0  0  0  0
   19.7120   17.1550   22.2968 H   0  0  0  0  0  0  0  0  0  0  0  0
   19.5560   17.8644   23.9247 H   0  0  0  0  0  0  0  0  0  0  0  0
   20.4015   19.2928   22.3873 C   0  0  0  0  0  0  0  0  0  0  0  0
   20.4574   20.1095   23.1201 H   0  0  0  0  0  0  0  0  0  0  0  0
   19.3129   19.5048   21.2924 C   0  0  0  0  0  0  0  0  0  0  0  0
   19.4450   18.8879   20.3948 H   0  0  0  0  0  0  0  0  0  0  0  0
   19.1421   20.5422   20.9850 H   0  0  0  0  0  0  0  0  0  0  0  0
   21.6839   18.9641   21.9058 O   0  0  0  0  0  0  0  0  0  0  0  0
   22.2259   18.6991   22.6799 H   0  0  0  0  0  0  0  0  0  0  0  0
  1  2  1  0  0  0  0
  1  3  1  0  0  0  0
  1  4  1  0  0  0  0
  4  5  1  0  0  0  0
  4  6  1  0  0  0  0
  4  7  1  0  0  0  0
  7  8  1  0  0  0  0
  1  9  1  0  0  0  0
  7  9  1  0  0  0  0
  9 10  1  0  0  0  0
  9 11  1  0  0  0  0
  7 12  1  0  0  0  0
 12 13  1  0  0  0  0
M  END
> <VConfSearch Rank>
857

> <Conf_Id>
19

> <Delta U+W>
-0.011

> <U+W>
-3.142

> <U>
-0.154

> <W>
-2.989

> <W(PB)>
-4.588

> <W(SA)>
1.599

> <Valence>
6.334

> <Coulomb>
-7.439

> <VdW>
0.951

> <VdW6>
-2.120

> <VdW12>
3.072

> <Bond>
0.065

> <Angle>
0.930

> <Pdih>
5.339

> <Idih>
0.000

> <Tether>
0.000

$$$$
VeraChem MOL file


 13 13  0  0  0  0  0  0  0  0999 V2000     
   18.7800   18.6565   21.4847 C   0  0  0  0  0  0  0  0  0  0  0  0
   18.5697   18.4211   20.4347 H   0  0  0  0  0  0  0  0  0  0  0  0
   17.9053   18.3812   22.0882 H   0  0  0  0  0  0  0  0  0  0  0  0
   19.3413   20.0891   21.7700 C   0  0  0  0  0  0  0  0  0  0  0  0
   19.9508   20.5086   20.9605 H   0  0  0  0  0  0  0  0  0  0  0  0
   18.6070   20.8404   22.0811 H   0  0  0  0  0  0  0  0  0  0  0  0
   20.1685   19.4329   22.9191 C   0  0  0  0  0  0  0  0  0  0  0  0
   21.1647   19.8680   23.0712 H   0  0  0  0  0  0  0  0  0  0  0  0
   20.1462   18.1395   22.0458 C   0  0  0  0  0  0  0  0  0  0  0  0
   20.1126   17.1912   22.5935 H   0  0  0  0  0  0  0  0  0  0  0  0
   20.9511   18.0858   21.3026 H   0  0  0  0  0  0  0  0  0  0  0  0
   19.4914   19.3304   24.1557 O   0  0  0  0  0  0  0  0  0  0  0  0
   20.0330   18.7549   24.7368 H   0  0  0  0  0  0  0  0  0  0  0  0
  1  2  1  0  0  0  0
  1  3  1  0  0  0  0
  1  4  1  0  0  0  0
  4  5  1  0  0  0  0
  4  6  1  0  0  0  0
  4  7  1  0  0  0  0
  7  8  1  0  0  0  0
  1  9  1  0  0  0  0
  7  9  1  0  0  0  0
  9 10  1  0  0  0  0
  9 11  1  0  0  0  0
  7 12  1  0  0  0  0
 12 13  1  0  0  0  0
M  END
> <VConfSearch Rank>
858

> <Conf_Id>
20

> <Delta U+W>
1.030

> <U+W>
-2.101

> <U>
0.841

> <W>
-2.942

> <W(PB)>
-4.530

> <W(SA)>
1.587

> <Valence>
6.736

> <Coulomb>
-7.246

> <VdW>
1.352

> <VdW6>
-2.500

> <VdW12>
3.851

> <Bond>
0.063

> <Angle>
0.687

> <Pdih>
5.986

> <Idih>
0.000

> <Tether>
0.000

$$$$
VeraChem MOL file


 13 13  0  0  0  0  0  0  0  0999 V2000     
   20.3620   18.2387   23.0803 C   0  0  0  0  0  0  0  0  0  0  0  0
   19.9294   17.2651   23.3463 H   0  0  0  0  0  0  0  0  0  0  0  0
   21.2823   18.3825   23.6588 H   0  0  0  0  0  0  0  0  0  0  0  0
   19.3485   19.4303   23.0938 C   0  0  0  0  0  0  0  0  0  0  0  0
   18.5400   19.3674   23.8304 H   0  0  0  0  0  0  0  0  0  0  0  0
   19.8104   20.4230   23.1622 H   0  0  0  0  0  0  0  0  0  0  0  0
   18.9838   18.9761   21.6482 C   0  0  0  0  0  0  0  0  0  0  0  0
   18.2560   18.1540   21.6113 H   0  0  0  0  0  0  0  0  0  0  0  0
   20.4672   18.5096   21.5431 C   0  0  0  0  0  0  0  0  0  0  0  0
   21.1791   19.2964   21.2649 H   0  0  0  0  0  0  0  0  0  0  0  0
   20.6466   17.6334   20.9103 H   0  0  0  0  0  0  0  0  0  0  0  0
   18.6108   20.0081   20.7663 O   0  0  0  0  0  0  0  0  0  0  0  0
   19.2924   20.7084   20.8421 H   0  0  0  0  0  0  0  0  0  0  0  0
  1  2  1  0  0  0  0
  1  3  1  0  0  0  0
  1  4  1  0  0  0  0
  4  5  1  0  0  0  0
  4  6  1  0  0  0  0
  4  7  1  0  0  0  0
  7  8  1  0  0  0  0
  1  9  1  0  0  0  0
  7  9  1  0  0  0  0
  9 10  1  0  0  0  0
  9 11  1  0  0  0  0
  7 12  1  0  0  0  0
 12 13  1  0  0  0  0
M  END
> <VConfSearch Rank>
859

> <Conf_Id>
24

> <Delta U+W>
0.356

> <U+W>
-2.775

> <U>
-0.184

> <W>
-2.591

> <W(PB)>
-4.184

> <W(SA)>
1.593

> <Valence>
6.840

> <Coulomb>
-7.916

> <VdW>
0.893

> <VdW6>
-2.167

> <VdW12>
3.060

> <Bond>
0.059

> <Angle>
0.918

> <Pdih>
5.862

> <Idih>
0.000

> <Tether>
0.000

$$$$
VeraChem MOL file


 13 13  0  0  0  0  0  0  0  0999 V2000     
   20.4607   19.6268   22.7056 C   0  0  0  0  0  0  0  0  0  0  0  0
   20.8332   20.6500   22.8347 H   0  0  0  0  0  0  0  0  0  0  0  0
   21.0870   18.9521   23.3029 H   0  0  0  0  0  0  0  0  0  0  0  0
   20.2205   19.1674   21.2287 C   0  0  0  0  0  0  0  0  0  0  0  0
   19.9353   19.9749   20.5434 H   0  0  0  0  0  0  0  0  0  0  0  0
   21.0263   18.5866   20.7661 H   0  0  0  0  0  0  0  0  0  0  0  0
   19.0149   18.3435   21.7780 C   0  0  0  0  0  0  0  0  0  0  0  0
   18.1476   18.2930   21.1073 H   0  0  0  0  0  0  0  0  0  0  0  0
   18.9189   19.4315   22.8920 C   0  0  0  0  0  0  0  0  0  0  0  0
   18.3146   20.3038   22.6145 H   0  0  0  0  0  0  0  0  0  0  0  0
   18.5918   19.0806   23.8772 H   0  0  0  0  0  0  0  0  0  0  0  0
   19.3431   17.0510   22.2401 O   0  0  0  0  0  0  0  0  0  0  0  0
   20.1180   17.1570   22.8296 H   0  0  0  0  0  0  0  0  0  0  0  0
  1  2  1  0  0  0  0
  1  3  1  0  0  0  0
  1  4  1  0  0  0  0
  4  5  1  0  0  0  0
  4  6  1  0  0  0  0
  4  7  1  0  0  0  0
  7  8  1  0  0  0  0
  1  9  1  0  0  0  0
  7  9  1  0  0  0  0
  9 10  1  0  0  0  0
  9 11  1  0  0  0  0
  7 12  1  0  0  0  0
 12 13  1  0  0  0  0
M  END
> <VConfSearch Rank>
860

> <Conf_Id>
44

> <Delta U+W>
0.823

> <U+W>
-2.308

> <U>
0.039

> <W>
-2.348

> <W(PB)>
-3.918

> <W(SA)>
1.571

> <Valence>
7.320

> <Coulomb>
-8.530

> <VdW>
1.249

> <VdW6>
-2.615

> <VdW12>
3.864

> <Bond>
0.056

> <Angle>
0.694

> <Pdih>
6.570

> <Idih>
0.000

> <Tether>
0.000

$$$$
VeraChem MOL file


 13 13  0  0  0  0  0  0  0  0999 V2000     
   19.6985   19.7359   23.3708 C   0  0  0  0  0  0  0  0  0  0  0  0
   18.7025   19.9469   23.7819 H   0  0  0  0  0  0  0  0  0  0  0  0
   20.4533   20.1314   24.0609 H   0  0  0  0  0  0  0  0  0  0  0  0
   19.8787   20.1164   21.8642 C   0  0  0  0  0  0  0  0  0  0  0  0
   19.3117   20.9857   21.5137 H   0  0  0  0  0  0  0  0  0  0  0  0
   20.9209   20.2198   21.5375 H   0  0  0  0  0  0  0  0  0  0  0  0
   19.2425   18.7260   21.5626 C   0  0  0  0  0  0  0  0  0  0  0  0
   18.1443   18.7259   21.5915 H   0  0  0  0  0  0  0  0  0  0  0  0
   19.9103   18.2617   22.8922 C   0  0  0  0  0  0  0  0  0  0  0  0
   19.3718   17.4903   23.4535 H   0  0  0  0  0  0  0  0  0  0  0  0
   20.9602   17.9585   22.7933 H   0  0  0  0  0  0  0  0  0  0  0  0
   19.7124   18.0887   20.3975 O   0  0  0  0  0  0  0  0  0  0  0  0
   19.3656   17.1706   20.4084 H   0  0  0  0  0  0  0  0  0  0  0  0
  1  2  1  0  0  0  0
  1  3  1  0  0  0  0
  1  4  1  0  0  0  0
  4  5  1  0  0  0  0
  4  6  1  0  0  0  0
  4  7  1  0  0  0  0
  7  8  1  0  0  0  0
  1  9  1  0  0  0  0
  7  9  1  0  0  0  0
  9 10  1  0  0  0  0
  9 11  1  0  0  0  0
  7 12  1  0  0  0  0
 12 13  1  0  0  0  0
M  END
> <VConfSearch Rank>
861

> <Conf_Id>
22

> <Delta U+W>
0.000

> <U+W>
-3.131

> <U>
-0.154

> <W>
-2.978

> <W(PB)>
-4.579

> <W(SA)>
1.601

> <Valence>
6.333

> <Coulomb>
-7.439

> <VdW>
0.952

> <VdW6>
-2.120

> <VdW12>
3.072

> <Bond>
0.065

> <Angle>
0.931

> <Pdih>
5.338

> <Idih>
0.000

> <Tether>
0.000

$$$$
VeraChem MOL file


 13 13  0  0  0  0  0  0  0  0999 V2000     
   19.8869   19.7980   21.2898 C   0  0  0  0  0  0  0  0  0  0  0  0
   20.4515   19.3716   20.4501 H   0  0  0  0  0  0  0  0  0  0  0  0
   19.7413   20.8691   21.1062 H   0  0  0  0  0  0  0  0  0  0  0  0
   20.4276   19.4108   22.7058 C   0  0  0  0  0  0  0  0  0  0  0  0
   20.0961   20.0692   23.5185 H   0  0  0  0  0  0  0  0  0  0  0  0
   21.5109   19.2693   22.7863 H   0  0  0  0  0  0  0  0  0  0  0  0
   19.5827   18.1118   22.5394 C   0  0  0  0  0  0  0  0  0  0  0  0
   20.0840   17.3251   21.9590 H   0  0  0  0  0  0  0  0  0  0  0  0
   18.6101   18.9909   21.6968 C   0  0  0  0  0  0  0  0  0  0  0  0
   17.8789   19.5551   22.2889 H   0  0  0  0  0  0  0  0  0  0  0  0
   18.0844   18.4759   20.8854 H   0  0  0  0  0  0  0  0  0  0  0  0
   19.0423   17.5875   23.7301 O   0  0  0  0  0  0  0  0  0  0  0  0
   19.7854   17.1999   24.2406 H   0  0  0  0  0  0  0  0  0  0  0  0
  1  2  1  0  0  0  0
  1  3  1  0  0  0  0
  1  4  1  0  0  0  0
  4  5  1  0  0  0  0
  4  6  1  0  0  0  0
  4  7  1  0  0  0  0
  7  8  1  0  0  0  0
  1  9  1  0  0  0  0
  7  9  1  0  0  0  0
  9 10  1  0  0  0  0
  9 11  1  0  0  0  0
  7 12  1  0  0  0  0
 12 13  1  0  0  0  0
M  END
> <VConfSearch Rank>
862

> <Conf_Id>
19

> <Delta U+W>
-0.011

> <U+W>
-3.142

> <U>
-0.154

> <W>
-2.989

> <W(PB)>
-4.588

> <W(SA)>
1.599

> <Valence>
6.334

> <Coulomb>
-7.439

> <VdW>
0.951

> <VdW6>
-2.120

> <VdW12>
3.072

> <Bond>
0.065

> <Angle>
0.930

> <Pdih>
5.339

> <Idih>
0.000

> <Tether>
0.000

$$$$
VeraChem MOL file


 13 13  0  0  0  0  0  0  0  0999 V2000     
   20.6804   18.9207   22.9140 C   0  0  0  0  0  0  0  0  0  0  0  0
   21.7605   18.7473   22.8402 H   0  0  0  0  0  0  0  0  0  0  0  0
   20.4254   19.1047   23.9658 H   0  0  0  0  0  0  0  0  0  0  0  0
   19.7645   17.8737   22.1972 C   0  0  0  0  0  0  0  0  0  0  0  0
   20.2072   17.4186   21.3029 H   0  0  0  0  0  0  0  0  0  0  0  0
   19.3568   17.0778   22.8302 H   0  0  0  0  0  0  0  0  0  0  0  0
   18.7999   19.0635   21.8983 C   0  0  0  0  0  0  0  0  0  0  0  0
   18.2875   19.0042   20.9294 H   0  0  0  0  0  0  0  0  0  0  0  0
   20.0792   19.9575   21.9079 C   0  0  0  0  0  0  0  0  0  0  0  0
   19.9496   20.9767   22.2885 H   0  0  0  0  0  0  0  0  0  0  0  0
   20.5988   20.0079   20.9433 H   0  0  0  0  0  0  0  0  0  0  0  0
   17.8671   19.3446   22.9225 O   0  0  0  0  0  0  0  0  0  0  0  0
   17.4449   20.2025   22.7037 H   0  0  0  0  0  0  0  0  0  0  0  0
  1  2  1  0  0  0  0
  1  3  1  0  0  0  0
  1  4  1  0  0  0  0
  4  5  1  0  0  0  0
  4  6  1  0  0  0  0
  4  7  1  0  0  0  0
  7  8  1  0  0  0  0
  1  9  1  0  0  0  0
  7  9  1  0  0  0  0
  9 10  1  0  0  0  0
  9 11  1  0  0  0  0
  7 12  1  0  0  0  0
 12 13  1  0  0  0  0
M  END
> <VConfSearch Rank>
863

> <Conf_Id>
20

> <Delta U+W>
1.030

> <U+W>
-2.101

> <U>
0.841

> <W>
-2.942

> <W(PB)>
-4.530

> <W(SA)>
1.587

> <Valence>
6.736

> <Coulomb>
-7.246

> <VdW>
1.352

> <VdW6>
-2.500

> <VdW12>
3.851

> <Bond>
0.063

> <Angle>
0.687

> <Pdih>
5.986

> <Idih>
0.000

> <Tether>
0.000

$$$$
VeraChem MOL file


 13 13  0  0  0  0  0  0  0  0999 V2000     
   20.8673   18.3801   21.9698 C   0  0  0  0  0  0  0  0  0  0  0  0
   21.2813   17.7126   22.7371 H   0  0  0  0  0  0  0  0  0  0  0  0
   21.5559   18.4023   21.1167 H   0  0  0  0  0  0  0  0  0  0  0  0
   20.3879   19.7707   22.5023 C   0  0  0  0  0  0  0  0  0  0  0  0
   20.9486   20.1822   23.3489 H   0  0  0  0  0  0  0  0  0  0  0  0
   20.2921   20.5469   21.7331 H   0  0  0  0  0  0  0  0  0  0  0  0
   19.0603   19.0379   22.8620 C   0  0  0  0  0  0  0  0  0  0  0  0
   19.0925   18.5066   23.8229 H   0  0  0  0  0  0  0  0  0  0  0  0
   19.3606   18.1313   21.6303 C   0  0  0  0  0  0  0  0  0  0  0  0
   19.0351   18.5410   20.6662 H   0  0  0  0  0  0  0  0  0  0  0  0
   19.0139   17.0948   21.7068 H   0  0  0  0  0  0  0  0  0  0  0  0
   17.8934   19.8197   22.7669 O   0  0  0  0  0  0  0  0  0  0  0  0
   17.9198   20.2668   21.8950 H   0  0  0  0  0  0  0  0  0  0  0  0
  1  2  1  0  0  0  0
  1  3  1  0  0  0  0
  1  4  1  0  0  0  0
  4  5  1  0  0  0  0
  4  6  1  0  0  0  0
  4  7  1  0  0  0  0
  7  8  1  0  0  0  0
  1  9  1  0  0  0  0
  7  9  1  0  0  0  0
  9 10  1  0  0  0  0
  9 11  1  0  0  0  0
  7 12  1  0  0  0  0
 12 13  1  0  0  0  0
M  END
> <VConfSearch Rank>
864

> <Conf_Id>
24

> <Delta U+W>
0.356

> <U+W>
-2.775

> <U>
-0.184

> <W>
-2.591

> <W(PB)>
-4.184

> <W(SA)>
1.593

> <Valence>
6.840

> <Coulomb>
-7.916

> <VdW>
0.893

> <VdW6>
-2.167

> <VdW12>
3.060

> <Bond>
0.059

> <Angle>
0.918

> <Pdih>
5.862

> <Idih>
0.000

> <Tether>
0.000

$$$$
VeraChem MOL file


 13 13  0  0  0  0  0  0  0  0999 V2000     
   20.2570   19.8913   22.5261 C   0  0  0  0  0  0  0  0  0  0  0  0
   20.1845   20.9500   22.8023 H   0  0  0  0  0  0  0  0  0  0  0  0
   21.3117   19.5920   22.5747 H   0  0  0  0  0  0  0  0  0  0  0  0
   19.5140   19.4743   21.2131 C   0  0  0  0  0  0  0  0  0  0  0  0
   18.6185   20.0675   20.9911 H   0  0  0  0  0  0  0  0  0  0  0  0
   20.1280   19.4185   20.3073 H   0  0  0  0  0  0  0  0  0  0  0  0
   19.2181   18.1159   21.9209 C   0  0  0  0  0  0  0  0  0  0  0  0
   18.2415   17.6754   21.6828 H   0  0  0  0  0  0  0  0  0  0  0  0
   19.2641   18.9248   23.2542 C   0  0  0  0  0  0  0  0  0  0  0  0
   18.3073   19.3832   23.5326 H   0  0  0  0  0  0  0  0  0  0  0  0
   19.6606   18.3907   24.1249 H   0  0  0  0  0  0  0  0  0  0  0  0
   20.2320   17.1439   21.7834 O   0  0  0  0  0  0  0  0  0  0  0  0
   21.0747   17.5904   22.0067 H   0  0  0  0  0  0  0  0  0  0  0  0
  1  2  1  0  0  0  0
  1  3  1  0  0  0  0
  1  4  1  0  0  0  0
  4  5  1  0  0  0  0
  4  6  1  0  0  0  0
  4  7  1  0  0  0  0
  7  8  1  0  0  0  0
  1  9  1  0  0  0  0
  7  9  1  0  0  0  0
  9 10  1  0  0  0  0
  9 11  1  0  0  0  0
  7 12  1  0  0  0  0
 12 13  1  0  0  0  0
M  END
> <VConfSearch Rank>
865

> <Conf_Id>
44

> <Delta U+W>
0.823

> <U+W>
-2.308

> <U>
0.039

> <W>
-2.348

> <W(PB)>
-3.918

> <W(SA)>
1.571

> <Valence>
7.320

> <Coulomb>
-8.530

> <VdW>
1.249

> <VdW6>
-2.615

> <VdW12>
3.864

> <Bond>
0.056

> <Angle>
0.694

> <Pdih>
6.570

> <Idih>
0.000

> <Tether>
0.000

$$$$
VeraChem MOL file


 13 13  0  0  0  0  0  0  0  0999 V2000     
   20.5849   18.1774   21.8611 C   0  0  0  0  0  0  0  0  0  0  0  0
   20.1949   17.3954   21.1962 H   0  0  0  0  0  0  0  0  0  0  0  0
   21.6665   18.0356   21.9721 H   0  0  0  0  0  0  0  0  0  0  0  0
   19.7777   18.3712   23.1871 C   0  0  0  0  0  0  0  0  0  0  0  0
   19.3152   17.4717   23.6077 H   0  0  0  0  0  0  0  0  0  0  0  0
   20.3212   18.8941   23.9839 H   0  0  0  0  0  0  0  0  0  0  0  0
   18.8395   19.2828   22.3400 C   0  0  0  0  0  0  0  0  0  0  0  0
   18.0770   18.7296   21.7746 H   0  0  0  0  0  0  0  0  0  0  0  0
   20.1143   19.6279   21.5123 C   0  0  0  0  0  0  0  0  0  0  0  0
   19.9514   19.8397   20.4498 H   0  0  0  0  0  0  0  0  0  0  0  0
   20.7336   20.4259   21.9406 H   0  0  0  0  0  0  0  0  0  0  0  0
   18.2613   20.3632   23.0349 O   0  0  0  0  0  0  0  0  0  0  0  0
   17.8352   20.9433   22.3677 H   0  0  0  0  0  0  0  0  0  0  0  0
  1  2  1  0  0  0  0
  1  3  1  0  0  0  0
  1  4  1  0  0  0  0
  4  5  1  0  0  0  0
  4  6  1  0  0  0  0
  4  7  1  0  0  0  0
  7  8  1  0  0  0  0
  1  9  1  0  0  0  0
  7  9  1  0  0  0  0
  9 10  1  0  0  0  0
  9 11  1  0  0  0  0
  7 12  1  0  0  0  0
 12 13  1  0  0  0  0
M  END
> <VConfSearch Rank>
866

> <Conf_Id>
22

> <Delta U+W>
0.000

> <U+W>
-3.131

> <U>
-0.154

> <W>
-2.978

> <W(PB)>
-4.579

> <W(SA)>
1.601

> <Valence>
6.333

> <Coulomb>
-7.439

> <VdW>
0.952

> <VdW6>
-2.120

> <VdW12>
3.072

> <Bond>
0.065

> <Angle>
0.931

> <Pdih>
5.338

> <Idih>
0.000

> <Tether>
0.000

$$$$
VeraChem MOL file


 13 13  0  0  0  0  0  0  0  0999 V2000     
   18.5237   19.2805   21.6192 C   0  0  0  0  0  0  0  0  0  0  0  0
   18.4963   20.3447   21.3503 H   0  0  0  0  0  0  0  0  0  0  0  0
   17.5733   18.8200   21.3242 H   0  0  0  0  0  0  0  0  0  0  0  0
   19.0063   18.9861   23.0778 C   0  0  0  0  0  0  0  0  0  0  0  0
   18.7323   17.9947   23.4597 H   0  0  0  0  0  0  0  0  0  0  0  0
   18.7490   19.7379   23.8319 H   0  0  0  0  0  0  0  0  0  0  0  0
   20.4468   19.0781   22.4899 C   0  0  0  0  0  0  0  0  0  0  0  0
   20.8279   20.1048   22.4022 H   0  0  0  0  0  0  0  0  0  0  0  0
   19.8199   18.5262   21.1741 C   0  0  0  0  0  0  0  0  0  0  0  0
   19.7268   17.4337   21.1384 H   0  0  0  0  0  0  0  0  0  0  0  0
   20.2848   18.8708   20.2440 H   0  0  0  0  0  0  0  0  0  0  0  0
   21.4014   18.2406   23.0997 O   0  0  0  0  0  0  0  0  0  0  0  0
   21.5938   18.6161   23.9858 H   0  0  0  0  0  0  0  0  0  0  0  0
  1  2  1  0  0  0  0
  1  3  1  0  0  0  0
  1  4  1  0  0  0  0
  4  5  1  0  0  0  0
  4  6  1  0  0  0  0
  4  7  1  0  0  0  0
  7  8  1  0  0  0  0
  1  9  1  0  0  0  0
  7  9  1  0  0  0  0
  9 10  1  0  0  0  0
  9 11  1  0  0  0  0
  7 12  1  0  0  0  0
 12 13  1  0  0  0  0
M  END
> <VConfSearch Rank>
867

> <Conf_Id>
19

> <Delta U+W>
-0.011

> <U+W>
-3.142

> <U>
-0.154

> <W>
-2.989

> <W(PB)>
-4.588

> <W(SA)>
1.599

> <Valence>
6.334

> <Coulomb>
-7.439

> <VdW>
0.951

> <VdW6>
-2.120

> <VdW12>
3.072

> <Bond>
0.065

> <Angle>
0.930

> <Pdih>
5.339

> <Idih>
0.000

> <Tether>
0.000

$$$$
VeraChem MOL file


 13 13  0  0  0  0  0  0  0  0999 V2000     
   19.0721   19.8001   23.0844 C   0  0  0  0  0  0  0  0  0  0  0  0
   18.9937   20.0903   24.1388 H   0  0  0  0  0  0  0  0  0  0  0  0
   18.4436   20.4737   22.4873 H   0  0  0  0  0  0  0  0  0  0  0  0
   18.8736   18.2796   22.7721 C   0  0  0  0  0  0  0  0  0  0  0  0
   19.1987   17.6044   23.5729 H   0  0  0  0  0  0  0  0  0  0  0  0
   17.8702   17.9818   22.4484 H   0  0  0  0  0  0  0  0  0  0  0  0
   19.9235   18.4737   21.6339 C   0  0  0  0  0  0  0  0  0  0  0  0
   20.5867   17.6141   21.4723 H   0  0  0  0  0  0  0  0  0  0  0  0
   20.5222   19.6021   22.5306 C   0  0  0  0  0  0  0  0  0  0  0  0
   20.9549   20.4577   22.0004 H   0  0  0  0  0  0  0  0  0  0  0  0
   21.2473   19.2479   23.2734 H   0  0  0  0  0  0  0  0  0  0  0  0
   19.3894   18.9112   20.4004 O   0  0  0  0  0  0  0  0  0  0  0  0
   20.1459   19.1631   19.8291 H   0  0  0  0  0  0  0  0  0  0  0  0
  1  2  1  0  0  0  0
  1  3  1  0  0  0  0
  1  4  1  0  0  0  0
  4  5  1  0  0  0  0
  4  6  1  0  0  0  0
  4  7  1  0  0  0  0
  7  8  1  0  0  0  0
  1  9  1  0  0  0  0
  7  9  1  0  0  0  0
  9 10  1  0  0  0  0
  9 11  1  0  0  0  0
  7 12  1  0  0  0  0
 12 13  1  0  0  0  0
M  END
> <VConfSearch Rank>
868

> <Conf_Id>
20

> <Delta U+W>
1.030

> <U+W>
-2.101

> <U>
0.841

> <W>
-2.942

> <W(PB)>
-4.530

> <W(SA)>
1.587

> <Valence>
6.736

> <Coulomb>
-7.246

> <VdW>
1.352

> <VdW6>
-2.500

> <VdW12>
3.851

> <Bond>
0.063

> <Angle>
0.687

> <Pdih>
5.986

> <Idih>
0.000

> <Tether>
0.000

$$$$
VeraChem MOL file


 13 13  0  0  0  0  0  0  0  0999 V2000     
   18.8955   19.7925   22.6744 C   0  0  0  0  0  0  0  0  0  0  0  0
   19.2646   20.5941   23.3279 H   0  0  0  0  0  0  0  0  0  0  0  0
   17.8105   19.9045   22.5620 H   0  0  0  0  0  0  0  0  0  0  0  0
   19.4038   18.3602   23.0453 C   0  0  0  0  0  0  0  0  0  0  0  0
   19.5751   18.1702   24.1106 H   0  0  0  0  0  0  0  0  0  0  0  0
   18.8020   17.5405   22.6339 H   0  0  0  0  0  0  0  0  0  0  0  0
   20.6685   18.7266   22.2113 C   0  0  0  0  0  0  0  0  0  0  0  0
   21.4162   19.3059   22.7698 H   0  0  0  0  0  0  0  0  0  0  0  0
   19.7075   19.6016   21.3510 C   0  0  0  0  0  0  0  0  0  0  0  0
   19.1736   19.0593   20.5609 H   0  0  0  0  0  0  0  0  0  0  0  0
   20.1470   20.5078   20.9200 H   0  0  0  0  0  0  0  0  0  0  0  0
   21.2777   17.6533   21.5341 O   0  0  0  0  0  0  0  0  0  0  0  0
   20.5666   17.1763   21.0571 H   0  0  0  0  0  0  0  0  0  0  0  0
  1  2  1  0  0  0  0
  1  3  1  0  0  0  0
  1  4  1  0  0  0  0
  4  5  1  0  0  0  0
  4  6  1  0  0  0  0
  4  7  1  0  0  0  0
  7  8  1  0  0  0  0
  1  9  1  0  0  0  0
  7  9  1  0  0  0  0
  9 10  1  0  0  0  0
  9 11  1  0  0  0  0
  7 12  1  0  0  0  0
 12 13  1  0  0  0  0
M  END
> <VConfSearch Rank>
869

> <Conf_Id>
24

> <Delta U+W>
0.356

> <U+W>
-2.775

> <U>
-0.184

> <W>
-2.591

> <W(PB)>
-4.184

> <W(SA)>
1.593

> <Valence>
6.840

> <Coulomb>
-7.916

> <VdW>
0.893

> <VdW6>
-2.167

> <VdW12>
3.060

> <Bond>
0.059

> <Angle>
0.918

> <Pdih>
5.862

> <Idih>
0.000

> <Tether>
0.000

$$$$
VeraChem MOL file


 13 13  0  0  0  0  0  0  0  0999 V2000     
   18.6704   18.5837   21.9443 C   0  0  0  0  0  0  0  0  0  0  0  0
   17.6389   18.8490   21.6835 H   0  0  0  0  0  0  0  0  0  0  0  0
   18.7546   17.4895   21.9551 H   0  0  0  0  0  0  0  0  0  0  0  0
   19.2648   19.3022   23.2015 C   0  0  0  0  0  0  0  0  0  0  0  0
   18.8665   20.3087   23.3790 H   0  0  0  0  0  0  0  0  0  0  0  0
   19.2257   18.7415   24.1421 H   0  0  0  0  0  0  0  0  0  0  0  0
   20.6330   19.2823   22.4522 C   0  0  0  0  0  0  0  0  0  0  0  0
   21.2641   20.1640   22.6220 H   0  0  0  0  0  0  0  0  0  0  0  0
   19.7913   19.3224   21.1393 C   0  0  0  0  0  0  0  0  0  0  0  0
   19.5221   20.3338   20.8111 H   0  0  0  0  0  0  0  0  0  0  0  0
   20.2105   18.7792   20.2849 H   0  0  0  0  0  0  0  0  0  0  0  0
   21.3900   18.1051   22.6340 O   0  0  0  0  0  0  0  0  0  0  0  0
   20.7798   17.3565   22.4709 H   0  0  0  0  0  0  0  0  0  0  0  0
  1  2  1  0  0  0  0
  1  3  1  0  0  0  0
  1  4  1  0  0  0  0
  4  5  1  0  0  0  0
  4  6  1  0  0  0  0
  4  7  1  0  0  0  0
  7  8  1  0  0  0  0
  1  9  1  0  0  0  0
  7  9  1  0  0  0  0
  9 10  1  0  0  0  0
  9 11  1  0  0  0  0
  7 12  1  0  0  0  0
 12 13  1  0  0  0  0
M  END
> <VConfSearch Rank>
870

> <Conf_Id>
44

> <Delta U+W>
0.823

> <U+W>
-2.308

> <U>
0.039

> <W>
-2.348

> <W(PB)>
-3.918

> <W(SA)>
1.571

> <Valence>
7.320

> <Coulomb>
-8.530

> <VdW>
1.249

> <VdW6>
-2.615

> <VdW12>
3.864

> <Bond>
0.056

> <Angle>
0.694

> <Pdih>
6.570

> <Idih>
0.000

> <Tether>
0.000

$$$$
VeraChem MOL file


 13 13  0  0  0  0  0  0  0  0999 V2000     
   20.4984   19.9864   22.6487 C   0  0  0  0  0  0  0  0  0  0  0  0
   21.4453   19.9987   22.0931 H   0  0  0  0  0  0  0  0  0  0  0  0
   20.4996   20.8193   23.3618 H   0  0  0  0  0  0  0  0  0  0  0  0
   20.0962   18.5889   23.2253 C   0  0  0  0  0  0  0  0  0  0  0  0
   20.9211   17.9356   23.5296 H   0  0  0  0  0  0  0  0  0  0  0  0
   19.3549   18.6210   24.0334 H   0  0  0  0  0  0  0  0  0  0  0  0
   19.4992   18.3131   21.8123 C   0  0  0  0  0  0  0  0  0  0  0  0
   20.2405   17.9695   21.0778 H   0  0  0  0  0  0  0  0  0  0  0  0
   19.2192   19.8454   21.7591 C   0  0  0  0  0  0  0  0  0  0  0  0
   19.2690   20.3062   20.7664 H   0  0  0  0  0  0  0  0  0  0  0  0
   18.2862   20.1555   22.2460 H   0  0  0  0  0  0  0  0  0  0  0  0
   18.3559   17.4904   21.7916 O   0  0  0  0  0  0  0  0  0  0  0  0
   17.9872   17.5280   20.8829 H   0  0  0  0  0  0  0  0  0  0  0  0
  1  2  1  0  0  0  0
  1  3  1  0  0  0  0
  1  4  1  0  0  0  0
  4  5  1  0  0  0  0
  4  6  1  0  0  0  0
  4  7  1  0  0  0  0
  7  8  1  0  0  0  0
  1  9  1  0  0  0  0
  7  9  1  0  0  0  0
  9 10  1  0  0  0  0
  9 11  1  0  0  0  0
  7 12  1  0  0  0  0
 12 13  1  0  0  0  0
M  END
> <VConfSearch Rank>
871

> <Conf_Id>
22

> <Delta U+W>
0.000

> <U+W>
-3.131

> <U>
-0.154

> <W>
-2.978

> <W(PB)>
-4.579

> <W(SA)>
1.601

> <Valence>
6.333

> <Coulomb>
-7.439

> <VdW>
0.952

> <VdW6>
-2.120

> <VdW12>
3.072

> <Bond>
0.065

> <Angle>
0.931

> <Pdih>
5.338

> <Idih>
0.000

> <Tether>
0.000

$$$$
VeraChem MOL file


 13 13  0  0  0  0  0  0  0  0999 V2000     
   20.0323   19.2165   21.0234 C   0  0  0  0  0  0  0  0  0  0  0  0
   19.2510   19.6762   20.4038 H   0  0  0  0  0  0  0  0  0  0  0  0
   20.9319   19.0829   20.4109 H   0  0  0  0  0  0  0  0  0  0  0  0
   19.5674   17.9677   21.8431 C   0  0  0  0  0  0  0  0  0  0  0  0
   20.3813   17.3205   22.1931 H   0  0  0  0  0  0  0  0  0  0  0  0
   18.7968   17.3442   21.3765 H   0  0  0  0  0  0  0  0  0  0  0  0
   19.0617   18.9991   22.8964 C   0  0  0  0  0  0  0  0  0  0  0  0
   18.0710   19.4173   22.6711 H   0  0  0  0  0  0  0  0  0  0  0  0
   20.2447   19.8935   22.4176 C   0  0  0  0  0  0  0  0  0  0  0  0
   21.2063   19.6694   22.8958 H   0  0  0  0  0  0  0  0  0  0  0  0
   20.0727   20.9745   22.4616 H   0  0  0  0  0  0  0  0  0  0  0  0
   19.1322   18.5746   24.2378 O   0  0  0  0  0  0  0  0  0  0  0  0
   18.4328   17.8981   24.3657 H   0  0  0  0  0  0  0  0  0  0  0  0
  1  2  1  0  0  0  0
  1  3  1  0  0  0  0
  1  4  1  0  0  0  0
  4  5  1  0  0  0  0
  4  6  1  0  0  0  0
  4  7  1  0  0  0  0
  7  8  1  0  0  0  0
  1  9  1  0  0  0  0
  7  9  1  0  0  0  0
  9 10  1  0  0  0  0
  9 11  1  0  0  0  0
  7 12  1  0  0  0  0
 12 13  1  0  0  0  0
M  END
> <VConfSearch Rank>
872

> <Conf_Id>
19

> <Delta U+W>
-0.011

> <U+W>
-3.142

> <U>
-0.154

> <W>
-2.989

> <W(PB)>
-4.588

> <W(SA)>
1.599

> <Valence>
6.334

> <Coulomb>
-7.439

> <VdW>
0.951

> <VdW6>
-2.120

> <VdW12>
3.072

> <Bond>
0.065

> <Angle>
0.930

> <Pdih>
5.339

> <Idih>
0.000

> <Tether>
0.000

$$$$
VeraChem MOL file


 13 13  0  0  0  0  0  0  0  0999 V2000     
   18.9657   18.5219   23.1692 C   0  0  0  0  0  0  0  0  0  0  0  0
   18.8892   18.3350   24.2467 H   0  0  0  0  0  0  0  0  0  0  0  0
   18.0651   18.1286   22.6798 H   0  0  0  0  0  0  0  0  0  0  0  0
   20.3109   18.0985   22.4907 C   0  0  0  0  0  0  0  0  0  0  0  0
   21.1901   18.1653   23.1428 H   0  0  0  0  0  0  0  0  0  0  0  0
   20.3139   17.1203   21.9973 H   0  0  0  0  0  0  0  0  0  0  0  0
   20.1154   19.3303   21.5527 C   0  0  0  0  0  0  0  0  0  0  0  0
   21.0447   19.8413   21.2696 H   0  0  0  0  0  0  0  0  0  0  0  0
   19.3507   19.9791   22.7487 C   0  0  0  0  0  0  0  0  0  0  0  0
   18.5170   20.6388   22.4840 H   0  0  0  0  0  0  0  0  0  0  0  0
   19.9970   20.5022   23.4640 H   0  0  0  0  0  0  0  0  0  0  0  0
   19.3293   19.0844   20.4040 O   0  0  0  0  0  0  0  0  0  0  0  0
   19.1327   19.9539   19.9946 H   0  0  0  0  0  0  0  0  0  0  0  0
  1  2  1  0  0  0  0
  1  3  1  0  0  0  0
  1  4  1  0  0  0  0
  4  5  1  0  0  0  0
  4  6  1  0  0  0  0
  4  7  1  0  0  0  0
  7  8  1  0  0  0  0
  1  9  1  0  0  0  0
  7  9  1  0  0  0  0
  9 10  1  0  0  0  0
  9 11  1  0  0  0  0
  7 12  1  0  0  0  0
 12 13  1  0  0  0  0
M  END
> <VConfSearch Rank>
873

> <Conf_Id>
20

> <Delta U+W>
1.030

> <U+W>
-2.101

> <U>
0.841

> <W>
-2.942

> <W(PB)>
-4.530

> <W(SA)>
1.587

> <Valence>
6.736

> <Coulomb>
-7.246

> <VdW>
1.352

> <VdW6>
-2.500

> <VdW12>
3.851

> <Bond>
0.063

> <Angle>
0.687

> <Pdih>
5.986

> <Idih>
0.000

> <Tether>
0.000

$$$$
VeraChem MOL file


 13 13  0  0  0  0  0  0  0  0999 V2000     
   19.0669   17.8677   22.2577 C   0  0  0  0  0  0  0  0  0  0  0  0
   19.5850   16.9475   22.5585 H   0  0  0  0  0  0  0  0  0  0  0  0
   18.0170   17.6272   22.0525 H   0  0  0  0  0  0  0  0  0  0  0  0
   19.8062   18.7068   21.1638 C   0  0  0  0  0  0  0  0  0  0  0  0
   20.3909   18.1374   20.4328 H   0  0  0  0  0  0  0  0  0  0  0  0
   19.1694   19.4201   20.6262 H   0  0  0  0  0  0  0  0  0  0  0  0
   20.6135   19.3147   22.3503 C   0  0  0  0  0  0  0  0  0  0  0  0
   21.4629   18.6970   22.6723 H   0  0  0  0  0  0  0  0  0  0  0  0
   19.3204   19.0962   23.1926 C   0  0  0  0  0  0  0  0  0  0  0  0
   18.5750   19.8966   23.1085 H   0  0  0  0  0  0  0  0  0  0  0  0
   19.4761   18.8709   24.2534 H   0  0  0  0  0  0  0  0  0  0  0  0
   21.0095   20.6558   22.1877 O   0  0  0  0  0  0  0  0  0  0  0  0
   20.2159   21.1550   21.9018 H   0  0  0  0  0  0  0  0  0  0  0  0
  1  2  1  0  0  0  0
  1  3  1  0  0  0  0
  1  4  1  0  0  0  0
  4  5  1  0  0  0  0
  4  6  1  0  0  0  0
  4  7  1  0  0  0  0
  7  8  1  0  0  0  0
  1  9  1  0  0  0  0
  7  9  1  0  0  0  0
  9 10  1  0  0  0  0
  9 11  1  0  0  0  0
  7 12  1  0  0  0  0
 12 13  1  0  0  0  0
M  END
> <VConfSearch Rank>
874

> <Conf_Id>
24

> <Delta U+W>
0.356

> <U+W>
-2.775

> <U>
-0.184

> <W>
-2.591

> <W(PB)>
-4.184

> <W(SA)>
1.593

> <Valence>
6.840

> <Coulomb>
-7.916

> <VdW>
0.893

> <VdW6>
-2.167

> <VdW12>
3.060

> <Bond>
0.059

> <Angle>
0.918

> <Pdih>
5.862

> <Idih>
0.000

> <Tether>
0.000

$$$$
VeraChem MOL file


 13 13  0  0  0  0  0  0  0  0999 V2000     
   18.8644   18.2255   22.3638 C   0  0  0  0  0  0  0  0  0  0  0  0
   18.1368   17.5635   21.8793 H   0  0  0  0  0  0  0  0  0  0  0  0
   18.7467   18.1332   23.4510 H   0  0  0  0  0  0  0  0  0  0  0  0
   18.9136   19.6959   21.8293 C   0  0  0  0  0  0  0  0  0  0  0  0
   18.6560   19.8015   20.7684 H   0  0  0  0  0  0  0  0  0  0  0  0
   18.3444   20.4373   22.4012 H   0  0  0  0  0  0  0  0  0  0  0  0
   20.4476   19.6493   22.1100 C   0  0  0  0  0  0  0  0  0  0  0  0
   21.0652   20.1967   21.3866 H   0  0  0  0  0  0  0  0  0  0  0  0
   20.3386   18.1149   21.8494 C   0  0  0  0  0  0  0  0  0  0  0  0
   20.4304   17.8329   20.7935 H   0  0  0  0  0  0  0  0  0  0  0  0
   21.0097   17.4802   22.4389 H   0  0  0  0  0  0  0  0  0  0  0  0
   20.8192   20.0010   23.4253 O   0  0  0  0  0  0  0  0  0  0  0  0
   20.2393   19.4859   24.0233 H   0  0  0  0  0  0  0  0  0  0  0  0
  1  2  1  0  0  0  0
  1  3  1  0  0  0  0
  1  4  1  0  0  0  0
  4  5  1  0  0  0  0
  4  6  1  0  0  0  0
  4  7  1  0  0  0  0
  7  8  1  0  0  0  0
  1  9  1  0  0  0  0
  7  9  1  0  0  0  0
  9 10  1  0  0  0  0
  9 11  1  0  0  0  0
  7 12  1  0  0  0  0
 12 13  1  0  0  0  0
M  END
> <VConfSearch Rank>
875

> <Conf_Id>
44

> <Delta U+W>
0.823

> <U+W>
-2.308

> <U>
0.039

> <W>
-2.348

> <W(PB)>
-3.918

> <W(SA)>
1.571

> <Valence>
7.320

> <Coulomb>
-8.530

> <VdW>
1.249

> <VdW6>
-2.615

> <VdW12>
3.864

> <Bond>
0.056

> <Angle>
0.694

> <Pdih>
6.570

> <Idih>
0.000

> <Tether>
0.000

$$$$
VeraChem MOL file


 13 13  0  0  0  0  0  0  0  0999 V2000     
   20.9513   18.8557   22.4876 C   0  0  0  0  0  0  0  0  0  0  0  0
   21.3193   17.8761   22.1550 H   0  0  0  0  0  0  0  0  0  0  0  0
   21.7954   19.4296   22.8881 H   0  0  0  0  0  0  0  0  0  0  0  0
   19.6695   18.8037   23.3830 C   0  0  0  0  0  0  0  0  0  0  0  0
   19.5695   17.9284   24.0340 H   0  0  0  0  0  0  0  0  0  0  0  0
   19.4864   19.7079   23.9767 H   0  0  0  0  0  0  0  0  0  0  0  0
   18.8814   18.7428   22.0398 C   0  0  0  0  0  0  0  0  0  0  0  0
   18.8123   17.7330   21.6124 H   0  0  0  0  0  0  0  0  0  0  0  0
   20.0436   19.5997   21.4532 C   0  0  0  0  0  0  0  0  0  0  0  0
   20.2770   19.4291   20.3965 H   0  0  0  0  0  0  0  0  0  0  0  0
   19.9449   20.6791   21.6234 H   0  0  0  0  0  0  0  0  0  0  0  0
   17.6190   19.3678   22.0534 O   0  0  0  0  0  0  0  0  0  0  0  0
   17.3031   19.4049   21.1249 H   0  0  0  0  0  0  0  0  0  0  0  0
  1  2  1  0  0  0  0
  1  3  1  0  0  0  0
  1  4  1  0  0  0  0
  4  5  1  0  0  0  0
  4  6  1  0  0  0  0
  4  7  1  0  0  0  0
  7  8  1  0  0  0  0
  1  9  1  0  0  0  0
  7  9  1  0  0  0  0
  9 10  1  0  0  0  0
  9 11  1  0  0  0  0
  7 12  1  0  0  0  0
 12 13  1  0  0  0  0
M  END
> <VConfSearch Rank>
876

> <Conf_Id>
22

> <Delta U+W>
0.000

> <U+W>
-3.131

> <U>
-0.154

> <W>
-2.978

> <W(PB)>
-4.579

> <W(SA)>
1.601

> <Valence>
6.333

> <Coulomb>
-7.439

> <VdW>
0.952

> <VdW6>
-2.120

> <VdW12>
3.072

> <Bond>
0.065

> <Angle>
0.931

> <Pdih>
5.338

> <Idih>
0.000

> <Tether>
0.000

$$$$
VeraChem MOL file


 13 13  0  0  0  0  0  0  0  0999 V2000     
   19.6954   20.2315   22.4242 C   0  0  0  0  0  0  0  0  0  0  0  0
   20.2950   20.5235   23.2965 H   0  0  0  0  0  0  0  0  0  0  0  0
   19.2720   21.1360   21.9714 H   0  0  0  0  0  0  0  0  0  0  0  0
   18.6932   19.0583   22.6818 C   0  0  0  0  0  0  0  0  0  0  0  0
   17.8822   18.9790   21.9471 H   0  0  0  0  0  0  0  0  0  0  0  0
   18.2641   19.0028   23.6882 H   0  0  0  0  0  0  0  0  0  0  0  0
   19.9086   18.1216   22.4083 C   0  0  0  0  0  0  0  0  0  0  0  0
   20.5583   17.9680   23.2808 H   0  0  0  0  0  0  0  0  0  0  0  0
   20.4057   19.2405   21.4440 C   0  0  0  0  0  0  0  0  0  0  0  0
   19.9713   19.1990   20.4374 H   0  0  0  0  0  0  0  0  0  0  0  0
   21.4925   19.3441   21.3548 H   0  0  0  0  0  0  0  0  0  0  0  0
   19.5963   16.8926   21.7946 O   0  0  0  0  0  0  0  0  0  0  0  0
   19.1475   16.3373   22.4679 H   0  0  0  0  0  0  0  0  0  0  0  0
  1  2  1  0  0  0  0
  1  3  1  0  0  0  0
  1  4  1  0  0  0  0
  4  5  1  0  0  0  0
  4  6  1  0  0  0  0
  4  7  1  0  0  0  0
  7  8  1  0  0  0  0
  1  9  1  0  0  0  0
  7  9  1  0  0  0  0
  9 10  1  0  0  0  0
  9 11  1  0  0  0  0
  7 12  1  0  0  0  0
 12 13  1  0  0  0  0
M  END
> <VConfSearch Rank>
877

> <Conf_Id>
19

> <Delta U+W>
-0.011

> <U+W>
-3.142

> <U>
-0.154

> <W>
-2.989

> <W(PB)>
-4.588

> <W(SA)>
1.599

> <Valence>
6.334

> <Coulomb>
-7.439

> <VdW>
0.951

> <VdW6>
-2.120

> <VdW12>
3.072

> <Bond>
0.065

> <Angle>
0.930

> <Pdih>
5.339

> <Idih>
0.000

> <Tether>
0.000

$$$$
VeraChem MOL file


 13 13  0  0  0  0  0  0  0  0999 V2000     
   20.6154   18.9820   21.5413 C   0  0  0  0  0  0  0  0  0  0  0  0
   21.4439   19.5400   21.0895 H   0  0  0  0  0  0  0  0  0  0  0  0
   20.7246   17.9207   21.2825 H   0  0  0  0  0  0  0  0  0  0  0  0
   19.1825   19.5644   21.3036 C   0  0  0  0  0  0  0  0  0  0  0  0
   19.1456   20.6561   21.2055 H   0  0  0  0  0  0  0  0  0  0  0  0
   18.6125   19.1191   20.4808 H   0  0  0  0  0  0  0  0  0  0  0  0
   18.8353   19.0387   22.7314 C   0  0  0  0  0  0  0  0  0  0  0  0
   18.1452   19.6769   23.2982 H   0  0  0  0  0  0  0  0  0  0  0  0
   20.3458   19.2573   23.0579 C   0  0  0  0  0  0  0  0  0  0  0  0
   20.7924   18.5465   23.7620 H   0  0  0  0  0  0  0  0  0  0  0  0
   20.5915   20.2749   23.3852 H   0  0  0  0  0  0  0  0  0  0  0  0
   18.4020   17.6941   22.7810 O   0  0  0  0  0  0  0  0  0  0  0  0
   18.3851   17.4288   23.7252 H   0  0  0  0  0  0  0  0  0  0  0  0
  1  2  1  0  0  0  0
  1  3  1  0  0  0  0
  1  4  1  0  0  0  0
  4  5  1  0  0  0  0
  4  6  1  0  0  0  0
  4  7  1  0  0  0  0
  7  8  1  0  0  0  0
  1  9  1  0  0  0  0
  7  9  1  0  0  0  0
  9 10  1  0  0  0  0
  9 11  1  0  0  0  0
  7 12  1  0  0  0  0
 12 13  1  0  0  0  0
M  END
> <VConfSearch Rank>
878

> <Conf_Id>
20

> <Delta U+W>
1.030

> <U+W>
-2.101

> <U>
0.841

> <W>
-2.942

> <W(PB)>
-4.530

> <W(SA)>
1.587

> <Valence>
6.736

> <Coulomb>
-7.246

> <VdW>
1.352

> <VdW6>
-2.500

> <VdW12>
3.851

> <Bond>
0.063

> <Angle>
0.687

> <Pdih>
5.986

> <Idih>
0.000

> <Tether>
0.000

$$$$
VeraChem MOL file


 13 13  0  0  0  0  0  0  0  0999 V2000     
   19.8316   20.2181   22.0230 C   0  0  0  0  0  0  0  0  0  0  0  0
   18.9006   20.7999   22.0041 H   0  0  0  0  0  0  0  0  0  0  0  0
   20.6745   20.9014   21.8648 H   0  0  0  0  0  0  0  0  0  0  0  0
   19.8157   18.9296   21.1360 C   0  0  0  0  0  0  0  0  0  0  0  0
   19.2145   18.9811   20.2216 H   0  0  0  0  0  0  0  0  0  0  0  0
   20.8079   18.5360   20.8831 H   0  0  0  0  0  0  0  0  0  0  0  0
   19.1318   18.2453   22.3579 C   0  0  0  0  0  0  0  0  0  0  0  0
   18.0471   18.4110   22.4101 H   0  0  0  0  0  0  0  0  0  0  0  0
   19.9629   19.2331   23.2312 C   0  0  0  0  0  0  0  0  0  0  0  0
   20.9880   18.9073   23.4466 H   0  0  0  0  0  0  0  0  0  0  0  0
   19.4916   19.5527   24.1672 H   0  0  0  0  0  0  0  0  0  0  0  0
   19.4338   16.8816   22.5343 O   0  0  0  0  0  0  0  0  0  0  0  0
   20.4086   16.7958   22.4783 H   0  0  0  0  0  0  0  0  0  0  0  0
  1  2  1  0  0  0  0
  1  3  1  0  0  0  0
  1  4  1  0  0  0  0
  4  5  1  0  0  0  0
  4  6  1  0  0  0  0
  4  7  1  0  0  0  0
  7  8  1  0  0  0  0
  1  9  1  0  0  0  0
  7  9  1  0  0  0  0
  9 10  1  0  0  0  0
  9 11  1  0  0  0  0
  7 12  1  0  0  0  0
 12 13  1  0  0  0  0
M  END
> <VConfSearch Rank>
879

> <Conf_Id>
24

> <Delta U+W>
0.356

> <U+W>
-2.775

> <U>
-0.184

> <W>
-2.591

> <W(PB)>
-4.184

> <W(SA)>
1.593

> <Valence>
6.840

> <Coulomb>
-7.916

> <VdW>
0.893

> <VdW6>
-2.167

> <VdW12>
3.060

> <Bond>
0.059

> <Angle>
0.918

> <Pdih>
5.862

> <Idih>
0.000

> <Tether>
0.000

$$$$
VeraChem MOL file


 13 13  0  0  0  0  0  0  0  0999 V2000     
   19.7230   19.9375   22.7839 C   0  0  0  0  0  0  0  0  0  0  0  0
   19.1346   20.7030   23.3037 H   0  0  0  0  0  0  0  0  0  0  0  0
   20.7825   20.2178   22.8393 H   0  0  0  0  0  0  0  0  0  0  0  0
   19.2204   19.5413   21.3554 C   0  0  0  0  0  0  0  0  0  0  0  0
   18.1359   19.6272   21.2164 H   0  0  0  0  0  0  0  0  0  0  0  0
   19.7194   20.0343   20.5136 H   0  0  0  0  0  0  0  0  0  0  0  0
   19.7073   18.0962   21.6852 C   0  0  0  0  0  0  0  0  0  0  0  0
   19.0825   17.2940   21.2719 H   0  0  0  0  0  0  0  0  0  0  0  0
   19.4132   18.4538   23.1750 C   0  0  0  0  0  0  0  0  0  0  0  0
   18.3758   18.2731   23.4821 H   0  0  0  0  0  0  0  0  0  0  0  0
   20.0799   18.0004   23.9169 H   0  0  0  0  0  0  0  0  0  0  0  0
   21.0656   17.8485   21.3933 O   0  0  0  0  0  0  0  0  0  0  0  0
   21.5717   18.5908   21.7833 H   0  0  0  0  0  0  0  0  0  0  0  0
  1  2  1  0  0  0  0
  1  3  1  0  0  0  0
  1  4  1  0  0  0  0
  4  5  1  0  0  0  0
  4  6  1  0  0  0  0
  4  7  1  0  0  0  0
  7  8  1  0  0  0  0
  1  9  1  0  0  0  0
  7  9  1  0  0  0  0
  9 10  1  0  0  0  0
  9 11  1  0  0  0  0
  7 12  1  0  0  0  0
 12 13  1  0  0  0  0
M  END
> <VConfSearch Rank>
880

> <Conf_Id>
44

> <Delta U+W>
0.823

> <U+W>
-2.308

> <U>
0.039

> <W>
-2.348

> <W(PB)>
-3.918

> <W(SA)>
1.571

> <Valence>
7.320

> <Coulomb>
-8.530

> <VdW>
1.249

> <VdW6>
-2.615

> <VdW12>
3.864

> <Bond>
0.056

> <Angle>
0.694

> <Pdih>
6.570

> <Idih>
0.000

> <Tether>
0.000

$$$$
VeraChem MOL file


 13 13  0  0  0  0  0  0  0  0999 V2000     
   18.3692   19.1990   22.0684 C   0  0  0  0  0  0  0  0  0  0  0  0
   18.0911   20.2124   21.7504 H   0  0  0  0  0  0  0  0  0  0  0  0
   17.4648   18.5797   22.0956 H   0  0  0  0  0  0  0  0  0  0  0  0
   19.2815   19.1386   23.3378 C   0  0  0  0  0  0  0  0  0  0  0  0
   19.1255   19.9258   24.0834 H   0  0  0  0  0  0  0  0  0  0  0  0
   19.2962   18.1674   23.8477 H   0  0  0  0  0  0  0  0  0  0  0  0
   20.4646   19.3666   22.3492 C   0  0  0  0  0  0  0  0  0  0  0  0
   20.6288   20.4218   22.0910 H   0  0  0  0  0  0  0  0  0  0  0  0
   19.5966   18.5898   21.3136 C   0  0  0  0  0  0  0  0  0  0  0  0
   19.7173   18.8910   20.2672 H   0  0  0  0  0  0  0  0  0  0  0  0
   19.6783   17.4976   21.3785 H   0  0  0  0  0  0  0  0  0  0  0  0
   21.6768   18.7446   22.7070 O   0  0  0  0  0  0  0  0  0  0  0  0
   22.2820   18.8237   21.9384 H   0  0  0  0  0  0  0  0  0  0  0  0
  1  2  1  0  0  0  0
  1  3  1  0  0  0  0
  1  4  1  0  0  0  0
  4  5  1  0  0  0  0
  4  6  1  0  0  0  0
  4  7  1  0  0  0  0
  7  8  1  0  0  0  0
  1  9  1  0  0  0  0
  7  9  1  0  0  0  0
  9 10  1  0  0  0  0
  9 11  1  0  0  0  0
  7 12  1  0  0  0  0
 12 13  1  0  0  0  0
M  END
> <VConfSearch Rank>
881

> <Conf_Id>
22

> <Delta U+W>
0.000

> <U+W>
-3.131

> <U>
-0.154

> <W>
-2.978

> <W(PB)>
-4.579

> <W(SA)>
1.601

> <Valence>
6.333

> <Coulomb>
-7.439

> <VdW>
0.952

> <VdW6>
-2.120

> <VdW12>
3.072

> <Bond>
0.065

> <Angle>
0.931

> <Pdih>
5.338

> <Idih>
0.000

> <Tether>
0.000

$$$$
VeraChem MOL file


 13 13  0  0  0  0  0  0  0  0999 V2000     
   20.3573   19.4299   21.2676 C   0  0  0  0  0  0  0  0  0  0  0  0
   20.8538   20.3725   21.5336 H   0  0  0  0  0  0  0  0  0  0  0  0
   20.5776   19.2020   20.2179 H   0  0  0  0  0  0  0  0  0  0  0  0
   18.8535   19.3405   21.6892 C   0  0  0  0  0  0  0  0  0  0  0  0
   18.2735   18.5756   21.1579 H   0  0  0  0  0  0  0  0  0  0  0  0
   18.2922   20.2812   21.6760 H   0  0  0  0  0  0  0  0  0  0  0  0
   19.3961   18.8920   23.0798 C   0  0  0  0  0  0  0  0  0  0  0  0
   19.6932   19.7246   23.7321 H   0  0  0  0  0  0  0  0  0  0  0  0
   20.5802   18.2630   22.2853 C   0  0  0  0  0  0  0  0  0  0  0  0
   20.3786   17.2608   21.8870 H   0  0  0  0  0  0  0  0  0  0  0  0
   21.5462   18.2493   22.8016 H   0  0  0  0  0  0  0  0  0  0  0  0
   18.5841   17.9756   23.7766 O   0  0  0  0  0  0  0  0  0  0  0  0
   17.7957   18.4675   24.0924 H   0  0  0  0  0  0  0  0  0  0  0  0
  1  2  1  0  0  0  0
  1  3  1  0  0  0  0
  1  4  1  0  0  0  0
  4  5  1  0  0  0  0
  4  6  1  0  0  0  0
  4  7  1  0  0  0  0
  7  8  1  0  0  0  0
  1  9  1  0  0  0  0
  7  9  1  0  0  0  0
  9 10  1  0  0  0  0
  9 11  1  0  0  0  0
  7 12  1  0  0  0  0
 12 13  1  0  0  0  0
M  END
> <VConfSearch Rank>
882

> <Conf_Id>
19

> <Delta U+W>
-0.011

> <U+W>
-3.142

> <U>
-0.154

> <W>
-2.989

> <W(PB)>
-4.588

> <W(SA)>
1.599

> <Valence>
6.334

> <Coulomb>
-7.439

> <VdW>
0.951

> <VdW6>
-2.120

> <VdW12>
3.072

> <Bond>
0.065

> <Angle>
0.930

> <Pdih>
5.339

> <Idih>
0.000

> <Tether>
0.000

$$$$
VeraChem MOL file


 13 13  0  0  0  0  0  0  0  0999 V2000     
   18.6929   18.9690   23.0725 C   0  0  0  0  0  0  0  0  0  0  0  0
   17.6342   19.1991   23.2405 H   0  0  0  0  0  0  0  0  0  0  0  0
   19.0626   18.3783   23.9208 H   0  0  0  0  0  0  0  0  0  0  0  0
   19.6054   20.1766   22.6751 C   0  0  0  0  0  0  0  0  0  0  0  0
   19.0970   20.9621   22.1030 H   0  0  0  0  0  0  0  0  0  0  0  0
   20.1664   20.6448   23.4913 H   0  0  0  0  0  0  0  0  0  0  0  0
   20.4038   19.1621   21.7982 C   0  0  0  0  0  0  0  0  0  0  0  0
   20.7901   19.5758   20.8578 H   0  0  0  0  0  0  0  0  0  0  0  0
   19.0561   18.3860   21.6665 C   0  0  0  0  0  0  0  0  0  0  0  0
   19.1347   17.2949   21.6046 H   0  0  0  0  0  0  0  0  0  0  0  0
   18.4138   18.7372   20.8498 H   0  0  0  0  0  0  0  0  0  0  0  0
   21.4296   18.4667   22.4782 O   0  0  0  0  0  0  0  0  0  0  0  0
   21.7350   17.7471   21.8858 H   0  0  0  0  0  0  0  0  0  0  0  0
  1  2  1  0  0  0  0
  1  3  1  0  0  0  0
  1  4  1  0  0  0  0
  4  5  1  0  0  0  0
  4  6  1  0  0  0  0
  4  7  1  0  0  0  0
  7  8  1  0  0  0  0
  1  9  1  0  0  0  0
  7  9  1  0  0  0  0
  9 10  1  0  0  0  0
  9 11  1  0  0  0  0
  7 12  1  0  0  0  0
 12 13  1  0  0  0  0
M  END
> <VConfSearch Rank>
883

> <Conf_Id>
20

> <Delta U+W>
1.030

> <U+W>
-2.101

> <U>
0.841

> <W>
-2.942

> <W(PB)>
-4.530

> <W(SA)>
1.587

> <Valence>
6.736

> <Coulomb>
-7.246

> <VdW>
1.352

> <VdW6>
-2.500

> <VdW12>
3.851

> <Bond>
0.063

> <Angle>
0.687

> <Pdih>
5.986

> <Idih>
0.000

> <Tether>
0.000

$$$$
VeraChem MOL file


 13 13  0  0  0  0  0  0  0  0999 V2000     
   19.1309   17.8478   22.0088 C   0  0  0  0  0  0  0  0  0  0  0  0
   19.7038   16.9151   22.0960 H   0  0  0  0  0  0  0  0  0  0  0  0
   18.0947   17.5991   21.7504 H   0  0  0  0  0  0  0  0  0  0  0  0
   19.8106   18.9535   21.1354 C   0  0  0  0  0  0  0  0  0  0  0  0
   20.4203   18.5988   20.2971 H   0  0  0  0  0  0  0  0  0  0  0  0
   19.1288   19.7315   20.7703 H   0  0  0  0  0  0  0  0  0  0  0  0
   20.5925   19.3240   22.4318 C   0  0  0  0  0  0  0  0  0  0  0  0
   21.4790   18.7000   22.6093 H   0  0  0  0  0  0  0  0  0  0  0  0
   19.3220   18.8463   23.1978 C   0  0  0  0  0  0  0  0  0  0  0  0
   18.5310   19.6003   23.2937 H   0  0  0  0  0  0  0  0  0  0  0  0
   19.5002   18.3969   24.1810 H   0  0  0  0  0  0  0  0  0  0  0  0
   20.9092   20.6879   22.5777 O   0  0  0  0  0  0  0  0  0  0  0  0
   20.0856   21.1917   22.4088 H   0  0  0  0  0  0  0  0  0  0  0  0
  1  2  1  0  0  0  0
  1  3  1  0  0  0  0
  1  4  1  0  0  0  0
  4  5  1  0  0  0  0
  4  6  1  0  0  0  0
  4  7  1  0  0  0  0
  7  8  1  0  0  0  0
  1  9  1  0  0  0  0
  7  9  1  0  0  0  0
  9 10  1  0  0  0  0
  9 11  1  0  0  0  0
  7 12  1  0  0  0  0
 12 13  1  0  0  0  0
M  END
> <VConfSearch Rank>
884

> <Conf_Id>
24

> <Delta U+W>
0.356

> <U+W>
-2.775

> <U>
-0.184

> <W>
-2.591

> <W(PB)>
-4.184

> <W(SA)>
1.593

> <Valence>
6.840

> <Coulomb>
-7.916

> <VdW>
0.893

> <VdW6>
-2.167

> <VdW12>
3.060

> <Bond>
0.059

> <Angle>
0.918

> <Pdih>
5.862

> <Idih>
0.000

> <Tether>
0.000

$$$$
VeraChem MOL file


 13 13  0  0  0  0  0  0  0  0999 V2000     
   20.5886   18.3489   22.4882 C   0  0  0  0  0  0  0  0  0  0  0  0
   21.4455   17.7738   22.1176 H   0  0  0  0  0  0  0  0  0  0  0  0
   20.5941   18.3111   23.5849 H   0  0  0  0  0  0  0  0  0  0  0  0
   19.2084   18.0243   21.8250 C   0  0  0  0  0  0  0  0  0  0  0  0
   19.2733   17.6960   20.7805 H   0  0  0  0  0  0  0  0  0  0  0  0
   18.5628   17.3264   22.3698 H   0  0  0  0  0  0  0  0  0  0  0  0
   18.8736   19.5384   21.9965 C   0  0  0  0  0  0  0  0  0  0  0  0
   18.2758   19.9729   21.1851 H   0  0  0  0  0  0  0  0  0  0  0  0
   20.4104   19.7800   21.8796 C   0  0  0  0  0  0  0  0  0  0  0  0
   20.7701   19.8822   20.8485 H   0  0  0  0  0  0  0  0  0  0  0  0
   20.8110   20.6103   22.4720 H   0  0  0  0  0  0  0  0  0  0  0  0
   18.3139   19.8827   23.2455 O   0  0  0  0  0  0  0  0  0  0  0  0
   18.8844   19.4709   23.9268 H   0  0  0  0  0  0  0  0  0  0  0  0
  1  2  1  0  0  0  0
  1  3  1  0  0  0  0
  1  4  1  0  0  0  0
  4  5  1  0  0  0  0
  4  6  1  0  0  0  0
  4  7  1  0  0  0  0
  7  8  1  0  0  0  0
  1  9  1  0  0  0  0
  7  9  1  0  0  0  0
  9 10  1  0  0  0  0
  9 11  1  0  0  0  0
  7 12  1  0  0  0  0
 12 13  1  0  0  0  0
M  END
> <VConfSearch Rank>
885

> <Conf_Id>
44

> <Delta U+W>
0.823

> <U+W>
-2.308

> <U>
0.039

> <W>
-2.348

> <W(PB)>
-3.918

> <W(SA)>
1.571

> <Valence>
7.320

> <Coulomb>
-8.530

> <VdW>
1.249

> <VdW6>
-2.615

> <VdW12>
3.864

> <Bond>
0.056

> <Angle>
0.694

> <Pdih>
6.570

> <Idih>
0.000

> <Tether>
0.000

$$$$
VeraChem MOL file


 13 13  0  0  0  0  0  0  0  0999 V2000     
   18.6580   18.3203   21.8003 C   0  0  0  0  0  0  0  0  0  0  0  0
   17.6750   18.7473   22.0393 H   0  0  0  0  0  0  0  0  0  0  0  0
   18.5102   17.4168   21.1969 H   0  0  0  0  0  0  0  0  0  0  0  0
   19.6251   18.1800   23.0219 C   0  0  0  0  0  0  0  0  0  0  0  0
   19.1553   17.9717   23.9893 H   0  0  0  0  0  0  0  0  0  0  0  0
   20.4542   17.4771   22.8736 H   0  0  0  0  0  0  0  0  0  0  0  0
   19.9871   19.6716   22.7516 C   0  0  0  0  0  0  0  0  0  0  0  0
   19.2804   20.3862   23.1954 H   0  0  0  0  0  0  0  0  0  0  0  0
   19.7028   19.3483   21.2536 C   0  0  0  0  0  0  0  0  0  0  0  0
   19.3004   20.1727   20.6548 H   0  0  0  0  0  0  0  0  0  0  0  0
   20.5477   18.9006   20.7156 H   0  0  0  0  0  0  0  0  0  0  0  0
   21.3161   20.0322   23.0487 O   0  0  0  0  0  0  0  0  0  0  0  0
   21.4606   20.9331   22.6872 H   0  0  0  0  0  0  0  0  0  0  0  0
  1  2  1  0  0  0  0
  1  3  1  0  0  0  0
  1  4  1  0  0  0  0
  4  5  1  0  0  0  0
  4  6  1  0  0  0  0
  4  7  1  0  0  0  0
  7  8  1  0  0  0  0
  1  9  1  0  0  0  0
  7  9  1  0  0  0  0
  9 10  1  0  0  0  0
  9 11  1  0  0  0  0
  7 12  1  0  0  0  0
 12 13  1  0  0  0  0
M  END
> <VConfSearch Rank>
886

> <Conf_Id>
22

> <Delta U+W>
0.000

> <U+W>
-3.131

> <U>
-0.154

> <W>
-2.978

> <W(PB)>
-4.579

> <W(SA)>
1.601

> <Valence>
6.333

> <Coulomb>
-7.439

> <VdW>
0.952

> <VdW6>
-2.120

> <VdW12>
3.072

> <Bond>
0.065

> <Angle>
0.931

> <Pdih>
5.338

> <Idih>
0.000

> <Tether>
0.000

$$$$
VeraChem MOL file


 13 13  0  0  0  0  0  0  0  0999 V2000     
   18.6026   18.1461   22.5273 C   0  0  0  0  0  0  0  0  0  0  0  0
   18.8278   17.0757   22.4315 H   0  0  0  0  0  0  0  0  0  0  0  0
   17.5436   18.2594   22.7879 H   0  0  0  0  0  0  0  0  0  0  0  0
   19.1180   19.0318   21.3453 C   0  0  0  0  0  0  0  0  0  0  0  0
   18.6315   20.0116   21.2611 H   0  0  0  0  0  0  0  0  0  0  0  0
   19.1303   18.5581   20.3575 H   0  0  0  0  0  0  0  0  0  0  0  0
   20.4764   19.0468   22.1092 C   0  0  0  0  0  0  0  0  0  0  0  0
   21.1007   18.1614   21.9263 H   0  0  0  0  0  0  0  0  0  0  0  0
   19.6161   18.9520   23.4052 C   0  0  0  0  0  0  0  0  0  0  0  0
   19.2412   19.9151   23.7732 H   0  0  0  0  0  0  0  0  0  0  0  0
   20.0713   18.4086   24.2404 H   0  0  0  0  0  0  0  0  0  0  0  0
   21.2316   20.2282   21.9727 O   0  0  0  0  0  0  0  0  0  0  0  0
   21.5909   20.2396   21.0595 H   0  0  0  0  0  0  0  0  0  0  0  0
  1  2  1  0  0  0  0
  1  3  1  0  0  0  0
  1  4  1  0  0  0  0
  4  5  1  0  0  0  0
  4  6  1  0  0  0  0
  4  7  1  0  0  0  0
  7  8  1  0  0  0  0
  1  9  1  0  0  0  0
  7  9  1  0  0  0  0
  9 10  1  0  0  0  0
  9 11  1  0  0  0  0
  7 12  1  0  0  0  0
 12 13  1  0  0  0  0
M  END
> <VConfSearch Rank>
887

> <Conf_Id>
19

> <Delta U+W>
-0.011

> <U+W>
-3.142

> <U>
-0.154

> <W>
-2.989

> <W(PB)>
-4.588

> <W(SA)>
1.599

> <Valence>
6.334

> <Coulomb>
-7.439

> <VdW>
0.951

> <VdW6>
-2.120

> <VdW12>
3.072

> <Bond>
0.065

> <Angle>
0.930

> <Pdih>
5.339

> <Idih>
0.000

> <Tether>
0.000

$$$$
VeraChem MOL file


 13 13  0  0  0  0  0  0  0  0999 V2000     
   20.0304   18.0471   21.6923 C   0  0  0  0  0  0  0  0  0  0  0  0
   19.9739   16.9534   21.6417 H   0  0  0  0  0  0  0  0  0  0  0  0
   20.6416   18.4062   20.8540 H   0  0  0  0  0  0  0  0  0  0  0  0
   20.4151   18.6532   23.0829 C   0  0  0  0  0  0  0  0  0  0  0  0
   20.0842   18.0609   23.9445 H   0  0  0  0  0  0  0  0  0  0  0  0
   21.4710   18.9114   23.2197 H   0  0  0  0  0  0  0  0  0  0  0  0
   19.4683   19.8399   22.7212 C   0  0  0  0  0  0  0  0  0  0  0  0
   18.9168   20.2603   23.5720 H   0  0  0  0  0  0  0  0  0  0  0  0
   18.6704   18.7993   21.8746 C   0  0  0  0  0  0  0  0  0  0  0  0
   18.2059   19.1808   20.9587 H   0  0  0  0  0  0  0  0  0  0  0  0
   17.9161   18.2418   22.4433 H   0  0  0  0  0  0  0  0  0  0  0  0
   20.0733   20.8778   21.9763 O   0  0  0  0  0  0  0  0  0  0  0  0
   19.3549   21.4675   21.6629 H   0  0  0  0  0  0  0  0  0  0  0  0
  1  2  1  0  0  0  0
  1  3  1  0  0  0  0
  1  4  1  0  0  0  0
  4  5  1  0  0  0  0
  4  6  1  0  0  0  0
  4  7  1  0  0  0  0
  7  8  1  0  0  0  0
  1  9  1  0  0  0  0
  7  9  1  0  0  0  0
  9 10  1  0  0  0  0
  9 11  1  0  0  0  0
  7 12  1  0  0  0  0
 12 13  1  0  0  0  0
M  END
> <VConfSearch Rank>
888

> <Conf_Id>
20

> <Delta U+W>
1.030

> <U+W>
-2.101

> <U>
0.841

> <W>
-2.942

> <W(PB)>
-4.530

> <W(SA)>
1.587

> <Valence>
6.736

> <Coulomb>
-7.246

> <VdW>
1.352

> <VdW6>
-2.500

> <VdW12>
3.851

> <Bond>
0.063

> <Angle>
0.687

> <Pdih>
5.986

> <Idih>
0.000

> <Tether>
0.000

$$$$
VeraChem MOL file


 13 13  0  0  0  0  0  0  0  0999 V2000     
   19.3572   19.3287   23.3741 C   0  0  0  0  0  0  0  0  0  0  0  0
   18.6208   20.1411   23.4332 H   0  0  0  0  0  0  0  0  0  0  0  0
   19.6046   19.0059   24.3924 H   0  0  0  0  0  0  0  0  0  0  0  0
   20.5713   19.6139   22.4296 C   0  0  0  0  0  0  0  0  0  0  0  0
   20.8940   20.6587   22.3613 H   0  0  0  0  0  0  0  0  0  0  0  0
   21.4512   18.9850   22.6129 H   0  0  0  0  0  0  0  0  0  0  0  0
   19.6389   19.1174   21.2836 C   0  0  0  0  0  0  0  0  0  0  0  0
   18.9585   19.8892   20.8988 H   0  0  0  0  0  0  0  0  0  0  0  0
   18.9973   18.1921   22.3612 C   0  0  0  0  0  0  0  0  0  0  0  0
   19.5254   17.2454   22.5293 H   0  0  0  0  0  0  0  0  0  0  0  0
   17.9299   17.9811   22.2325 H   0  0  0  0  0  0  0  0  0  0  0  0
   20.2849   18.4532   20.2237 O   0  0  0  0  0  0  0  0  0  0  0  0
   20.8746   17.7811   20.6254 H   0  0  0  0  0  0  0  0  0  0  0  0
  1  2  1  0  0  0  0
  1  3  1  0  0  0  0
  1  4  1  0  0  0  0
  4  5  1  0  0  0  0
  4  6  1  0  0  0  0
  4  7  1  0  0  0  0
  7  8  1  0  0  0  0
  1  9  1  0  0  0  0
  7  9  1  0  0  0  0
  9 10  1  0  0  0  0
  9 11  1  0  0  0  0
  7 12  1  0  0  0  0
 12 13  1  0  0  0  0
M  END
> <VConfSearch Rank>
889

> <Conf_Id>
24

> <Delta U+W>
0.356

> <U+W>
-2.775

> <U>
-0.184

> <W>
-2.591

> <W(PB)>
-4.184

> <W(SA)>
1.593

> <Valence>
6.840

> <Coulomb>
-7.916

> <VdW>
0.893

> <VdW6>
-2.167

> <VdW12>
3.060

> <Bond>
0.059

> <Angle>
0.918

> <Pdih>
5.862

> <Idih>
0.000

> <Tether>
0.000

$$$$
VeraChem MOL file


 13 13  0  0  0  0  0  0  0  0999 V2000     
   18.9264   18.2260   22.5607 C   0  0  0  0  0  0  0  0  0  0  0  0
   17.8870   18.0731   22.8749 H   0  0  0  0  0  0  0  0  0  0  0  0
   19.4463   17.2605   22.6010 H   0  0  0  0  0  0  0  0  0  0  0  0
   19.6824   19.4103   23.2507 C   0  0  0  0  0  0  0  0  0  0  0  0
   19.0396   20.2495   23.5432 H   0  0  0  0  0  0  0  0  0  0  0  0
   20.3191   19.1462   24.1025 H   0  0  0  0  0  0  0  0  0  0  0  0
   20.4157   19.6148   21.8889 C   0  0  0  0  0  0  0  0  0  0  0  0
   20.6280   20.6605   21.6325 H   0  0  0  0  0  0  0  0  0  0  0  0
   19.1284   19.0277   21.2316 C   0  0  0  0  0  0  0  0  0  0  0  0
   18.3497   19.7731   21.0289 H   0  0  0  0  0  0  0  0  0  0  0  0
   19.2828   18.4306   20.3258 H   0  0  0  0  0  0  0  0  0  0  0  0
   21.5769   18.8310   21.7188 O   0  0  0  0  0  0  0  0  0  0  0  0
   21.3295   17.9147   21.9603 H   0  0  0  0  0  0  0  0  0  0  0  0
  1  2  1  0  0  0  0
  1  3  1  0  0  0  0
  1  4  1  0  0  0  0
  4  5  1  0  0  0  0
  4  6  1  0  0  0  0
  4  7  1  0  0  0  0
  7  8  1  0  0  0  0
  1  9  1  0  0  0  0
  7  9  1  0  0  0  0
  9 10  1  0  0  0  0
  9 11  1  0  0  0  0
  7 12  1  0  0  0  0
 12 13  1  0  0  0  0
M  END
> <VConfSearch Rank>
890

> <Conf_Id>
44

> <Delta U+W>
0.823

> <U+W>
-2.308

> <U>
0.039

> <W>
-2.348

> <W(PB)>
-3.918

> <W(SA)>
1.571

> <Valence>
7.320

> <Coulomb>
-8.530

> <VdW>
1.249

> <VdW6>
-2.615

> <VdW12>
3.864

> <Bond>
0.056

> <Angle>
0.694

> <Pdih>
6.570

> <Idih>
0.000

> <Tether>
0.000

$$$$
VeraChem MOL file


 13 13  0  0  0  0  0  0  0  0999 V2000     
   18.7210   18.1287   22.1463 C   0  0  0  0  0  0  0  0  0  0  0  0
   19.0912   17.1534   21.8039 H   0  0  0  0  0  0  0  0  0  0  0  0
   17.6487   18.0418   22.3585 H   0  0  0  0  0  0  0  0  0  0  0  0
   19.1488   19.3409   21.2547 C   0  0  0  0  0  0  0  0  0  0  0  0
   19.2573   19.1388   20.1835 H   0  0  0  0  0  0  0  0  0  0  0  0
   18.5395   20.2441   21.3835 H   0  0  0  0  0  0  0  0  0  0  0  0
   20.4684   19.3287   22.0837 C   0  0  0  0  0  0  0  0  0  0  0  0
   21.2107   18.6029   21.7240 H   0  0  0  0  0  0  0  0  0  0  0  0
   19.5889   18.8044   23.2588 C   0  0  0  0  0  0  0  0  0  0  0  0
   20.0853   18.1263   23.9616 H   0  0  0  0  0  0  0  0  0  0  0  0
   19.0744   19.5886   23.8281 H   0  0  0  0  0  0  0  0  0  0  0  0
   21.0613   20.5898   22.2906 O   0  0  0  0  0  0  0  0  0  0  0  0
   21.7773   20.4695   22.9509 H   0  0  0  0  0  0  0  0  0  0  0  0
  1  2  1  0  0  0  0
  1  3  1  0  0  0  0
  1  4  1  0  0  0  0
  4  5  1  0  0  0  0
  4  6  1  0  0  0  0
  4  7  1  0  0  0  0
  7  8  1  0  0  0  0
  1  9  1  0  0  0  0
  7  9  1  0  0  0  0
  9 10  1  0  0  0  0
  9 11  1  0  0  0  0
  7 12  1  0  0  0  0
 12 13  1  0  0  0  0
M  END
> <VConfSearch Rank>
891

> <Conf_Id>
22

> <Delta U+W>
0.000

> <U+W>
-3.131

> <U>
-0.154

> <W>
-2.978

> <W(PB)>
-4.579

> <W(SA)>
1.601

> <Valence>
6.333

> <Coulomb>
-7.439

> <VdW>
0.952

> <VdW6>
-2.120

> <VdW12>
3.072

> <Bond>
0.065

> <Angle>
0.931

> <Pdih>
5.338

> <Idih>
0.000

> <Tether>
0.000

$$$$
VeraChem MOL file


 13 13  0  0  0  0  0  0  0  0999 V2000     
   19.9456   19.3324   23.4608 C   0  0  0  0  0  0  0  0  0  0  0  0
   19.5834   18.6641   24.2532 H   0  0  0  0  0  0  0  0  0  0  0  0
   20.4356   20.1954   23.9271 H   0  0  0  0  0  0  0  0  0  0  0  0
   18.8954   19.6571   22.3476 C   0  0  0  0  0  0  0  0  0  0  0  0
   19.1201   20.5512   21.7527 H   0  0  0  0  0  0  0  0  0  0  0  0
   17.8493   19.7015   22.6698 H   0  0  0  0  0  0  0  0  0  0  0  0
   19.3503   18.3156   21.6975 C   0  0  0  0  0  0  0  0  0  0  0  0
   18.8618   17.4270   22.1204 H   0  0  0  0  0  0  0  0  0  0  0  0
   20.7459   18.6214   22.3201 C   0  0  0  0  0  0  0  0  0  0  0  0
   21.3766   19.2866   21.7174 H   0  0  0  0  0  0  0  0  0  0  0  0
   21.3371   17.7479   22.6161 H   0  0  0  0  0  0  0  0  0  0  0  0
   19.3126   18.2849   20.2896 O   0  0  0  0  0  0  0  0  0  0  0  0
   18.3683   18.2490   20.0248 H   0  0  0  0  0  0  0  0  0  0  0  0
  1  2  1  0  0  0  0
  1  3  1  0  0  0  0
  1  4  1  0  0  0  0
  4  5  1  0  0  0  0
  4  6  1  0  0  0  0
  4  7  1  0  0  0  0
  7  8  1  0  0  0  0
  1  9  1  0  0  0  0
  7  9  1  0  0  0  0
  9 10  1  0  0  0  0
  9 11  1  0  0  0  0
  7 12  1  0  0  0  0
 12 13  1  0  0  0  0
M  END
> <VConfSearch Rank>
892

> <Conf_Id>
19

> <Delta U+W>
-0.011

> <U+W>
-3.142

> <U>
-0.154

> <W>
-2.989

> <W(PB)>
-4.588

> <W(SA)>
1.599

> <Valence>
6.334

> <Coulomb>
-7.439

> <VdW>
0.951

> <VdW6>
-2.120

> <VdW12>
3.072

> <Bond>
0.065

> <Angle>
0.930

> <Pdih>
5.339

> <Idih>
0.000

> <Tether>
0.000

$$$$
VeraChem MOL file


 13 13  0  0  0  0  0  0  0  0999 V2000     
   20.5863   19.8113   22.0963 C   0  0  0  0  0  0  0  0  0  0  0  0
   20.8868   20.8421   21.8747 H   0  0  0  0  0  0  0  0  0  0  0  0
   21.4888   19.2156   22.2856 H   0  0  0  0  0  0  0  0  0  0  0  0
   19.5753   19.1587   21.0959 C   0  0  0  0  0  0  0  0  0  0  0  0
   18.8798   19.8648   20.6264 H   0  0  0  0  0  0  0  0  0  0  0  0
   20.0114   18.5251   20.3157 H   0  0  0  0  0  0  0  0  0  0  0  0
   18.9865   18.4061   22.3298 C   0  0  0  0  0  0  0  0  0  0  0  0
   17.8992   18.2589   22.2994 H   0  0  0  0  0  0  0  0  0  0  0  0
   19.4565   19.6380   23.1650 C   0  0  0  0  0  0  0  0  0  0  0  0
   19.7903   19.4260   24.1868 H   0  0  0  0  0  0  0  0  0  0  0  0
   18.7323   20.4611   23.1974 H   0  0  0  0  0  0  0  0  0  0  0  0
   19.6308   17.1886   22.6469 O   0  0  0  0  0  0  0  0  0  0  0  0
   19.2977   16.9034   23.5243 H   0  0  0  0  0  0  0  0  0  0  0  0
  1  2  1  0  0  0  0
  1  3  1  0  0  0  0
  1  4  1  0  0  0  0
  4  5  1  0  0  0  0
  4  6  1  0  0  0  0
  4  7  1  0  0  0  0
  7  8  1  0  0  0  0
  1  9  1  0  0  0  0
  7  9  1  0  0  0  0
  9 10  1  0  0  0  0
  9 11  1  0  0  0  0
  7 12  1  0  0  0  0
 12 13  1  0  0  0  0
M  END
> <VConfSearch Rank>
893

> <Conf_Id>
20

> <Delta U+W>
1.030

> <U+W>
-2.101

> <U>
0.841

> <W>
-2.942

> <W(PB)>
-4.530

> <W(SA)>
1.587

> <Valence>
6.736

> <Coulomb>
-7.246

> <VdW>
1.352

> <VdW6>
-2.500

> <VdW12>
3.851

> <Bond>
0.063

> <Angle>
0.687

> <Pdih>
5.986

> <Idih>
0.000

> <Tether>
0.000

$$$$
VeraChem MOL file


 13 13  0  0  0  0  0  0  0  0999 V2000     
   19.0164   17.9013   22.2644 C   0  0  0  0  0  0  0  0  0  0  0  0
   18.5554   17.5473   21.3329 H   0  0  0  0  0  0  0  0  0  0  0  0
   18.7246   17.2264   23.0779 H   0  0  0  0  0  0  0  0  0  0  0  0
   18.8376   19.4304   22.5426 C   0  0  0  0  0  0  0  0  0  0  0  0
   17.9069   19.8807   22.1805 H   0  0  0  0  0  0  0  0  0  0  0  0
   18.9879   19.7258   23.5883 H   0  0  0  0  0  0  0  0  0  0  0  0
   20.0825   19.6181   21.6238 C   0  0  0  0  0  0  0  0  0  0  0  0
   19.8456   19.6269   20.5512 H   0  0  0  0  0  0  0  0  0  0  0  0
   20.5426   18.2274   22.1561 C   0  0  0  0  0  0  0  0  0  0  0  0
   21.0740   18.2539   23.1154 H   0  0  0  0  0  0  0  0  0  0  0  0
   21.1177   17.6153   21.4525 H   0  0  0  0  0  0  0  0  0  0  0  0
   20.9207   20.6996   21.9551 O   0  0  0  0  0  0  0  0  0  0  0  0
   21.0967   20.6398   22.9175 H   0  0  0  0  0  0  0  0  0  0  0  0
  1  2  1  0  0  0  0
  1  3  1  0  0  0  0
  1  4  1  0  0  0  0
  4  5  1  0  0  0  0
  4  6  1  0  0  0  0
  4  7  1  0  0  0  0
  7  8  1  0  0  0  0
  1  9  1  0  0  0  0
  7  9  1  0  0  0  0
  9 10  1  0  0  0  0
  9 11  1  0  0  0  0
  7 12  1  0  0  0  0
 12 13  1  0  0  0  0
M  END
> <VConfSearch Rank>
894

> <Conf_Id>
24

> <Delta U+W>
0.356

> <U+W>
-2.775

> <U>
-0.184

> <W>
-2.591

> <W(PB)>
-4.184

> <W(SA)>
1.593

> <Valence>
6.840

> <Coulomb>
-7.916

> <VdW>
0.893

> <VdW6>
-2.167

> <VdW12>
3.060

> <Bond>
0.059

> <Angle>
0.918

> <Pdih>
5.862

> <Idih>
0.000

> <Tether>
0.000

$$$$
VeraChem MOL file


 13 13  0  0  0  0  0  0  0  0999 V2000     
   20.3029   19.5326   22.9698 C   0  0  0  0  0  0  0  0  0  0  0  0
   21.0589   20.3101   23.1323 H   0  0  0  0  0  0  0  0  0  0  0  0
   20.0104   19.1243   23.9456 H   0  0  0  0  0  0  0  0  0  0  0  0
   20.6476   18.4595   21.8836 C   0  0  0  0  0  0  0  0  0  0  0  0
   21.2794   18.8284   21.0664 H   0  0  0  0  0  0  0  0  0  0  0  0
   21.0694   17.5175   22.2517 H   0  0  0  0  0  0  0  0  0  0  0  0
   19.1235   18.4401   21.5508 C   0  0  0  0  0  0  0  0  0  0  0  0
   18.8857   18.3001   20.4886 H   0  0  0  0  0  0  0  0  0  0  0  0
   19.1097   19.9231   22.0350 C   0  0  0  0  0  0  0  0  0  0  0  0
   19.3644   20.6509   21.2549 H   0  0  0  0  0  0  0  0  0  0  0  0
   18.1929   20.2552   22.5349 H   0  0  0  0  0  0  0  0  0  0  0  0
   18.3574   17.5537   22.3376 O   0  0  0  0  0  0  0  0  0  0  0  0
   18.6097   17.7225   23.2688 H   0  0  0  0  0  0  0  0  0  0  0  0
  1  2  1  0  0  0  0
  1  3  1  0  0  0  0
  1  4  1  0  0  0  0
  4  5  1  0  0  0  0
  4  6  1  0  0  0  0
  4  7  1  0  0  0  0
  7  8  1  0  0  0  0
  1  9  1  0  0  0  0
  7  9  1  0  0  0  0
  9 10  1  0  0  0  0
  9 11  1  0  0  0  0
  7 12  1  0  0  0  0
 12 13  1  0  0  0  0
M  END
> <VConfSearch Rank>
895

> <Conf_Id>
44

> <Delta U+W>
0.823

> <U+W>
-2.308

> <U>
0.039

> <W>
-2.348

> <W(PB)>
-3.918

> <W(SA)>
1.571

> <Valence>
7.320

> <Coulomb>
-8.530

> <VdW>
1.249

> <VdW6>
-2.615

> <VdW12>
3.864

> <Bond>
0.056

> <Angle>
0.694

> <Pdih>
6.570

> <Idih>
0.000

> <Tether>
0.000

$$$$
VeraChem MOL file


 13 13  0  0  0  0  0  0  0  0999 V2000     
   20.1853   20.2120   22.5740 C   0  0  0  0  0  0  0  0  0  0  0  0
   20.7278   20.1986   23.5286 H   0  0  0  0  0  0  0  0  0  0  0  0
   20.2784   21.2112   22.1320 H   0  0  0  0  0  0  0  0  0  0  0  0
   18.7386   19.6199   22.6351 C   0  0  0  0  0  0  0  0  0  0  0  0
   18.1977   19.7607   23.5773 H   0  0  0  0  0  0  0  0  0  0  0  0
   18.0850   19.9163   21.8053 H   0  0  0  0  0  0  0  0  0  0  0  0
   19.4286   18.2348   22.4503 C   0  0  0  0  0  0  0  0  0  0  0  0
   19.8118   17.8027   23.3850 H   0  0  0  0  0  0  0  0  0  0  0  0
   20.5004   19.0088   21.6251 C   0  0  0  0  0  0  0  0  0  0  0  0
   21.5200   18.6108   21.6733 H   0  0  0  0  0  0  0  0  0  0  0  0
   20.2348   19.1731   20.5733 H   0  0  0  0  0  0  0  0  0  0  0  0
   18.6834   17.2824   21.7276 O   0  0  0  0  0  0  0  0  0  0  0  0
   19.2810   16.5265   21.5411 H   0  0  0  0  0  0  0  0  0  0  0  0
  1  2  1  0  0  0  0
  1  3  1  0  0  0  0
  1  4  1  0  0  0  0
  4  5  1  0  0  0  0
  4  6  1  0  0  0  0
  4  7  1  0  0  0  0
  7  8  1  0  0  0  0
  1  9  1  0  0  0  0
  7  9  1  0  0  0  0
  9 10  1  0  0  0  0
  9 11  1  0  0  0  0
  7 12  1  0  0  0  0
 12 13  1  0  0  0  0
M  END
> <VConfSearch Rank>
896

> <Conf_Id>
22

> <Delta U+W>
0.000

> <U+W>
-3.131

> <U>
-0.154

> <W>
-2.978

> <W(PB)>
-4.579

> <W(SA)>
1.601

> <Valence>
6.333

> <Coulomb>
-7.439

> <VdW>
0.952

> <VdW6>
-2.120

> <VdW12>
3.072

> <Bond>
0.065

> <Angle>
0.931

> <Pdih>
5.338

> <Idih>
0.000

> <Tether>
0.000

$$$$
VeraChem MOL file


 13 13  0  0  0  0  0  0  0  0999 V2000     
   19.4910   17.6248   22.0736 C   0  0  0  0  0  0  0  0  0  0  0  0
   19.4463   17.0618   23.0153 H   0  0  0  0  0  0  0  0  0  0  0  0
   19.4574   16.9146   21.2389 H   0  0  0  0  0  0  0  0  0  0  0  0
   20.6196   18.7063   22.0105 C   0  0  0  0  0  0  0  0  0  0  0  0
   20.8841   19.0338   20.9973 H   0  0  0  0  0  0  0  0  0  0  0  0
   21.5399   18.4755   22.5581 H   0  0  0  0  0  0  0  0  0  0  0  0
   19.6049   19.6328   22.7463 C   0  0  0  0  0  0  0  0  0  0  0  0
   19.5819   19.4925   23.8357 H   0  0  0  0  0  0  0  0  0  0  0  0
   18.5028   18.8344   21.9868 C   0  0  0  0  0  0  0  0  0  0  0  0
   18.3022   19.1921   20.9693 H   0  0  0  0  0  0  0  0  0  0  0  0
   17.5495   18.7189   22.5141 H   0  0  0  0  0  0  0  0  0  0  0  0
   19.6908   21.0004   22.4196 O   0  0  0  0  0  0  0  0  0  0  0  0
   20.5117   21.3465   22.8314 H   0  0  0  0  0  0  0  0  0  0  0  0
  1  2  1  0  0  0  0
  1  3  1  0  0  0  0
  1  4  1  0  0  0  0
  4  5  1  0  0  0  0
  4  6  1  0  0  0  0
  4  7  1  0  0  0  0
  7  8  1  0  0  0  0
  1  9  1  0  0  0  0
  7  9  1  0  0  0  0
  9 10  1  0  0  0  0
  9 11  1  0  0  0  0
  7 12  1  0  0  0  0
 12 13  1  0  0  0  0
M  END
> <VConfSearch Rank>
897

> <Conf_Id>
19

> <Delta U+W>
-0.011

> <U+W>
-3.142

> <U>
-0.154

> <W>
-2.989

> <W(PB)>
-4.588

> <W(SA)>
1.599

> <Valence>
6.334

> <Coulomb>
-7.439

> <VdW>
0.951

> <VdW6>
-2.120

> <VdW12>
3.072

> <Bond>
0.065

> <Angle>
0.930

> <Pdih>
5.339

> <Idih>
0.000

> <Tether>
0.000

$$$$
VeraChem MOL file


 13 13  0  0  0  0  0  0  0  0999 V2000     
   19.1538   20.0834   22.7583 C   0  0  0  0  0  0  0  0  0  0  0  0
   18.4884   20.9353   22.5755 H   0  0  0  0  0  0  0  0  0  0  0  0
   19.4957   20.1223   23.8008 H   0  0  0  0  0  0  0  0  0  0  0  0
   20.2934   19.8623   21.7088 C   0  0  0  0  0  0  0  0  0  0  0  0
   20.0403   20.1771   20.6892 H   0  0  0  0  0  0  0  0  0  0  0  0
   21.2743   20.2747   21.9696 H   0  0  0  0  0  0  0  0  0  0  0  0
   20.1086   18.3350   21.9709 C   0  0  0  0  0  0  0  0  0  0  0  0
   20.2467   17.6995   21.0867 H   0  0  0  0  0  0  0  0  0  0  0  0
   18.6234   18.6845   22.2996 C   0  0  0  0  0  0  0  0  0  0  0  0
   18.1468   18.0738   23.0744 H   0  0  0  0  0  0  0  0  0  0  0  0
   17.9647   18.7139   21.4231 H   0  0  0  0  0  0  0  0  0  0  0  0
   20.8560   17.8231   23.0561 O   0  0  0  0  0  0  0  0  0  0  0  0
   20.5296   16.9148   23.2310 H   0  0  0  0  0  0  0  0  0  0  0  0
  1  2  1  0  0  0  0
  1  3  1  0  0  0  0
  1  4  1  0  0  0  0
  4  5  1  0  0  0  0
  4  6  1  0  0  0  0
  4  7  1  0  0  0  0
  7  8  1  0  0  0  0
  1  9  1  0  0  0  0
  7  9  1  0  0  0  0
  9 10  1  0  0  0  0
  9 11  1  0  0  0  0
  7 12  1  0  0  0  0
 12 13  1  0  0  0  0
M  END
> <VConfSearch Rank>
898

> <Conf_Id>
20

> <Delta U+W>
1.030

> <U+W>
-2.101

> <U>
0.841

> <W>
-2.942

> <W(PB)>
-4.530

> <W(SA)>
1.587

> <Valence>
6.736

> <Coulomb>
-7.246

> <VdW>
1.352

> <VdW6>
-2.500

> <VdW12>
3.851

> <Bond>
0.063

> <Angle>
0.687

> <Pdih>
5.986

> <Idih>
0.000

> <Tether>
0.000

$$$$
VeraChem MOL file


 13 13  0  0  0  0  0  0  0  0999 V2000     
   19.8989   19.9535   22.9990 C   0  0  0  0  0  0  0  0  0  0  0  0
   20.5206   19.8157   23.8935 H   0  0  0  0  0  0  0  0  0  0  0  0
   19.5276   20.9852   22.9865 H   0  0  0  0  0  0  0  0  0  0  0  0
   18.8295   18.8355   22.7672 C   0  0  0  0  0  0  0  0  0  0  0  0
   18.4074   18.3776   23.6686 H   0  0  0  0  0  0  0  0  0  0  0  0
   18.0073   19.1203   22.0991 H   0  0  0  0  0  0  0  0  0  0  0  0
   19.9845   18.0435   22.0833 C   0  0  0  0  0  0  0  0  0  0  0  0
   20.6278   17.4991   22.7879 H   0  0  0  0  0  0  0  0  0  0  0  0
   20.5426   19.4387   21.6694 C   0  0  0  0  0  0  0  0  0  0  0  0
   20.1034   19.8583   20.7560 H   0  0  0  0  0  0  0  0  0  0  0  0
   21.6335   19.5135   21.6013 H   0  0  0  0  0  0  0  0  0  0  0  0
   19.5968   17.2077   21.0189 O   0  0  0  0  0  0  0  0  0  0  0  0
   19.0287   17.7442   20.4272 H   0  0  0  0  0  0  0  0  0  0  0  0
  1  2  1  0  0  0  0
  1  3  1  0  0  0  0
  1  4  1  0  0  0  0
  4  5  1  0  0  0  0
  4  6  1  0  0  0  0
  4  7  1  0  0  0  0
  7  8  1  0  0  0  0
  1  9  1  0  0  0  0
  7  9  1  0  0  0  0
  9 10  1  0  0  0  0
  9 11  1  0  0  0  0
  7 12  1  0  0  0  0
 12 13  1  0  0  0  0
M  END
> <VConfSearch Rank>
899

> <Conf_Id>
24

> <Delta U+W>
0.356

> <U+W>
-2.775

> <U>
-0.184

> <W>
-2.591

> <W(PB)>
-4.184

> <W(SA)>
1.593

> <Valence>
6.840

> <Coulomb>
-7.916

> <VdW>
0.893

> <VdW6>
-2.167

> <VdW12>
3.060

> <Bond>
0.059

> <Angle>
0.918

> <Pdih>
5.862

> <Idih>
0.000

> <Tether>
0.000

$$$$
VeraChem MOL file


 13 13  0  0  0  0  0  0  0  0999 V2000     
   18.6895   18.4622   22.2175 C   0  0  0  0  0  0  0  0  0  0  0  0
   17.6027   18.5995   22.2667 H   0  0  0  0  0  0  0  0  0  0  0  0
   18.9001   17.3875   22.1467 H   0  0  0  0  0  0  0  0  0  0  0  0
   19.5253   19.2273   23.2974 C   0  0  0  0  0  0  0  0  0  0  0  0
   19.0787   20.1718   23.6311 H   0  0  0  0  0  0  0  0  0  0  0  0
   19.8178   18.6491   24.1811 H   0  0  0  0  0  0  0  0  0  0  0  0
   20.6205   19.3943   22.1989 C   0  0  0  0  0  0  0  0  0  0  0  0
   21.1668   20.3456   22.2338 H   0  0  0  0  0  0  0  0  0  0  0  0
   19.4450   19.3513   21.1741 C   0  0  0  0  0  0  0  0  0  0  0  0
   18.9786   20.3263   20.9871 H   0  0  0  0  0  0  0  0  0  0  0  0
   19.6674   18.8812   20.2096 H   0  0  0  0  0  0  0  0  0  0  0  0
   21.5297   18.3193   22.1017 O   0  0  0  0  0  0  0  0  0  0  0  0
   20.9898   17.5025   22.0744 H   0  0  0  0  0  0  0  0  0  0  0  0
  1  2  1  0  0  0  0
  1  3  1  0  0  0  0
  1  4  1  0  0  0  0
  4  5  1  0  0  0  0
  4  6  1  0  0  0  0
  4  7  1  0  0  0  0
  7  8  1  0  0  0  0
  1  9  1  0  0  0  0
  7  9  1  0  0  0  0
  9 10  1  0  0  0  0
  9 11  1  0  0  0  0
  7 12  1  0  0  0  0
 12 13  1  0  0  0  0
M  END
> <VConfSearch Rank>
900

> <Conf_Id>
44

> <Delta U+W>
0.823

> <U+W>
-2.308

> <U>
0.039

> <W>
-2.348

> <W(PB)>
-3.918

> <W(SA)>
1.571

> <Valence>
7.320

> <Coulomb>
-8.530

> <VdW>
1.249

> <VdW6>
-2.615

> <VdW12>
3.864

> <Bond>
0.056

> <Angle>
0.694

> <Pdih>
6.570

> <Idih>
0.000

> <Tether>
0.000

$$$$
VeraChem MOL file


 13 13  0  0  0  0  0  0  0  0999 V2000     
   18.8107   18.0391   22.2356 C   0  0  0  0  0  0  0  0  0  0  0  0
   17.9055   18.2297   22.8271 H   0  0  0  0  0  0  0  0  0  0  0  0
   18.7131   17.0602   21.7512 H   0  0  0  0  0  0  0  0  0  0  0  0
   20.1544   18.2996   22.9932 C   0  0  0  0  0  0  0  0  0  0  0  0
   20.1489   18.1002   24.0703 H   0  0  0  0  0  0  0  0  0  0  0  0
   21.0337   17.8165   22.5494 H   0  0  0  0  0  0  0  0  0  0  0  0
   19.9582   19.7892   22.5788 C   0  0  0  0  0  0  0  0  0  0  0  0
   19.2922   20.3509   23.2480 H   0  0  0  0  0  0  0  0  0  0  0  0
   19.2500   19.2223   21.3114 C   0  0  0  0  0  0  0  0  0  0  0  0
   18.4428   19.8379   20.8995 H   0  0  0  0  0  0  0  0  0  0  0  0
   19.9295   18.9400   20.4975 H   0  0  0  0  0  0  0  0  0  0  0  0
   21.1451   20.5079   22.3354 O   0  0  0  0  0  0  0  0  0  0  0  0
   20.8885   21.3644   21.9307 H   0  0  0  0  0  0  0  0  0  0  0  0
  1  2  1  0  0  0  0
  1  3  1  0  0  0  0
  1  4  1  0  0  0  0
  4  5  1  0  0  0  0
  4  6  1  0  0  0  0
  4  7  1  0  0  0  0
  7  8  1  0  0  0  0
  1  9  1  0  0  0  0
  7  9  1  0  0  0  0
  9 10  1  0  0  0  0
  9 11  1  0  0  0  0
  7 12  1  0  0  0  0
 12 13  1  0  0  0  0
M  END
> <VConfSearch Rank>
901

> <Conf_Id>
22

> <Delta U+W>
0.000

> <U+W>
-3.131

> <U>
-0.154

> <W>
-2.978

> <W(PB)>
-4.579

> <W(SA)>
1.601

> <Valence>
6.333

> <Coulomb>
-7.439

> <VdW>
0.952

> <VdW6>
-2.120

> <VdW12>
3.072

> <Bond>
0.065

> <Angle>
0.931

> <Pdih>
5.338

> <Idih>
0.000

> <Tether>
0.000

$$$$
VeraChem MOL file


 13 13  0  0  0  0  0  0  0  0999 V2000     
   18.6334   19.6745   21.8117 C   0  0  0  0  0  0  0  0  0  0  0  0
   18.4129   20.5295   22.4644 H   0  0  0  0  0  0  0  0  0  0  0  0
   17.9063   19.6636   20.9910 H   0  0  0  0  0  0  0  0  0  0  0  0
   18.8452   18.3172   22.5601 C   0  0  0  0  0  0  0  0  0  0  0  0
   18.7386   17.4252   21.9301 H   0  0  0  0  0  0  0  0  0  0  0  0
   18.2601   18.1746   23.4752 H   0  0  0  0  0  0  0  0  0  0  0  0
   20.3147   18.7965   22.7603 C   0  0  0  0  0  0  0  0  0  0  0  0
   20.4508   19.4713   23.6166 H   0  0  0  0  0  0  0  0  0  0  0  0
   20.1362   19.5359   21.4000 C   0  0  0  0  0  0  0  0  0  0  0  0
   20.3151   18.9110   20.5163 H   0  0  0  0  0  0  0  0  0  0  0  0
   20.6957   20.4712   21.2894 H   0  0  0  0  0  0  0  0  0  0  0  0
   21.2858   17.7760   22.7682 O   0  0  0  0  0  0  0  0  0  0  0  0
   21.1874   17.2877   23.6138 H   0  0  0  0  0  0  0  0  0  0  0  0
  1  2  1  0  0  0  0
  1  3  1  0  0  0  0
  1  4  1  0  0  0  0
  4  5  1  0  0  0  0
  4  6  1  0  0  0  0
  4  7  1  0  0  0  0
  7  8  1  0  0  0  0
  1  9  1  0  0  0  0
  7  9  1  0  0  0  0
  9 10  1  0  0  0  0
  9 11  1  0  0  0  0
  7 12  1  0  0  0  0
 12 13  1  0  0  0  0
M  END
> <VConfSearch Rank>
902

> <Conf_Id>
19

> <Delta U+W>
-0.011

> <U+W>
-3.142

> <U>
-0.154

> <W>
-2.989

> <W(PB)>
-4.588

> <W(SA)>
1.599

> <Valence>
6.334

> <Coulomb>
-7.439

> <VdW>
0.951

> <VdW6>
-2.120

> <VdW12>
3.072

> <Bond>
0.065

> <Angle>
0.930

> <Pdih>
5.339

> <Idih>
0.000

> <Tether>
0.000

$$$$
VeraChem MOL file


 13 13  0  0  0  0  0  0  0  0999 V2000     
   20.3878   18.9285   21.3153 C   0  0  0  0  0  0  0  0  0  0  0  0
   21.0566   19.4525   20.6224 H   0  0  0  0  0  0  0  0  0  0  0  0
   20.4472   17.8511   21.1133 H   0  0  0  0  0  0  0  0  0  0  0  0
   18.9310   19.4898   21.4230 C   0  0  0  0  0  0  0  0  0  0  0  0
   18.8469   20.5712   21.2604 H   0  0  0  0  0  0  0  0  0  0  0  0
   18.1741   18.9838   20.8136 H   0  0  0  0  0  0  0  0  0  0  0  0
   18.9824   19.0713   22.9255 C   0  0  0  0  0  0  0  0  0  0  0  0
   18.4525   19.7490   23.6072 H   0  0  0  0  0  0  0  0  0  0  0  0
   20.5207   19.3155   22.8257 C   0  0  0  0  0  0  0  0  0  0  0  0
   21.1514   18.6595   23.4359 H   0  0  0  0  0  0  0  0  0  0  0  0
   20.8226   20.3549   23.0030 H   0  0  0  0  0  0  0  0  0  0  0  0
   18.6055   17.7335   23.1835 O   0  0  0  0  0  0  0  0  0  0  0  0
   18.8430   17.5392   24.1152 H   0  0  0  0  0  0  0  0  0  0  0  0
  1  2  1  0  0  0  0
  1  3  1  0  0  0  0
  1  4  1  0  0  0  0
  4  5  1  0  0  0  0
  4  6  1  0  0  0  0
  4  7  1  0  0  0  0
  7  8  1  0  0  0  0
  1  9  1  0  0  0  0
  7  9  1  0  0  0  0
  9 10  1  0  0  0  0
  9 11  1  0  0  0  0
  7 12  1  0  0  0  0
 12 13  1  0  0  0  0
M  END
> <VConfSearch Rank>
903

> <Conf_Id>
20

> <Delta U+W>
1.030

> <U+W>
-2.101

> <U>
0.841

> <W>
-2.942

> <W(PB)>
-4.530

> <W(SA)>
1.587

> <Valence>
6.736

> <Coulomb>
-7.246

> <VdW>
1.352

> <VdW6>
-2.500

> <VdW12>
3.851

> <Bond>
0.063

> <Angle>
0.687

> <Pdih>
5.986

> <Idih>
0.000

> <Tether>
0.000

$$$$
VeraChem MOL file


 13 13  0  0  0  0  0  0  0  0999 V2000     
   20.6658   19.6513   22.7698 C   0  0  0  0  0  0  0  0  0  0  0  0
   21.6047   19.1483   23.0365 H   0  0  0  0  0  0  0  0  0  0  0  0
   20.7381   20.7055   23.0628 H   0  0  0  0  0  0  0  0  0  0  0  0
   19.3702   18.8999   23.2215 C   0  0  0  0  0  0  0  0  0  0  0  0
   19.4451   18.3261   24.1518 H   0  0  0  0  0  0  0  0  0  0  0  0
   18.4702   19.5256   23.2654 H   0  0  0  0  0  0  0  0  0  0  0  0
   19.5344   18.0804   21.9059 C   0  0  0  0  0  0  0  0  0  0  0  0
   20.2379   17.2410   21.9905 H   0  0  0  0  0  0  0  0  0  0  0  0
   20.1670   19.3755   21.3130 C   0  0  0  0  0  0  0  0  0  0  0  0
   19.4452   20.1075   20.9303 H   0  0  0  0  0  0  0  0  0  0  0  0
   20.9457   19.2218   20.5577 H   0  0  0  0  0  0  0  0  0  0  0  0
   18.3342   17.6621   21.3006 O   0  0  0  0  0  0  0  0  0  0  0  0
   17.7501   18.4477   21.2524 H   0  0  0  0  0  0  0  0  0  0  0  0
  1  2  1  0  0  0  0
  1  3  1  0  0  0  0
  1  4  1  0  0  0  0
  4  5  1  0  0  0  0
  4  6  1  0  0  0  0
  4  7  1  0  0  0  0
  7  8  1  0  0  0  0
  1  9  1  0  0  0  0
  7  9  1  0  0  0  0
  9 10  1  0  0  0  0
  9 11  1  0  0  0  0
  7 12  1  0  0  0  0
 12 13  1  0  0  0  0
M  END
> <VConfSearch Rank>
904

> <Conf_Id>
24

> <Delta U+W>
0.356

> <U+W>
-2.775

> <U>
-0.184

> <W>
-2.591

> <W(PB)>
-4.184

> <W(SA)>
1.593

> <Valence>
6.840

> <Coulomb>
-7.916

> <VdW>
0.893

> <VdW6>
-2.167

> <VdW12>
3.060

> <Bond>
0.059

> <Angle>
0.918

> <Pdih>
5.862

> <Idih>
0.000

> <Tether>
0.000

$$$$
VeraChem MOL file


 13 13  0  0  0  0  0  0  0  0999 V2000     
   18.9013   18.1713   22.2114 C   0  0  0  0  0  0  0  0  0  0  0  0
   17.8462   17.9383   22.0250 H   0  0  0  0  0  0  0  0  0  0  0  0
   19.4071   17.2527   22.5351 H   0  0  0  0  0  0  0  0  0  0  0  0
   19.1773   19.4253   23.1065 C   0  0  0  0  0  0  0  0  0  0  0  0
   18.4183   20.2134   23.0291 H   0  0  0  0  0  0  0  0  0  0  0  0
   19.3684   19.2291   24.1675 H   0  0  0  0  0  0  0  0  0  0  0  0
   20.4380   19.6668   22.2199 C   0  0  0  0  0  0  0  0  0  0  0  0
   20.6751   20.7220   22.0336 H   0  0  0  0  0  0  0  0  0  0  0  0
   19.6371   18.9644   21.0801 C   0  0  0  0  0  0  0  0  0  0  0  0
   18.9909   19.6394   20.5058 H   0  0  0  0  0  0  0  0  0  0  0  0
   20.2284   18.3669   20.3772 H   0  0  0  0  0  0  0  0  0  0  0  0
   21.5968   18.9789   22.6393 O   0  0  0  0  0  0  0  0  0  0  0  0
   21.3270   18.0494   22.7895 H   0  0  0  0  0  0  0  0  0  0  0  0
  1  2  1  0  0  0  0
  1  3  1  0  0  0  0
  1  4  1  0  0  0  0
  4  5  1  0  0  0  0
  4  6  1  0  0  0  0
  4  7  1  0  0  0  0
  7  8  1  0  0  0  0
  1  9  1  0  0  0  0
  7  9  1  0  0  0  0
  9 10  1  0  0  0  0
  9 11  1  0  0  0  0
  7 12  1  0  0  0  0
 12 13  1  0  0  0  0
M  END
> <VConfSearch Rank>
905

> <Conf_Id>
44

> <Delta U+W>
0.823

> <U+W>
-2.308

> <U>
0.039

> <W>
-2.348

> <W(PB)>
-3.918

> <W(SA)>
1.571

> <Valence>
7.320

> <Coulomb>
-8.530

> <VdW>
1.249

> <VdW6>
-2.615

> <VdW12>
3.864

> <Bond>
0.056

> <Angle>
0.694

> <Pdih>
6.570

> <Idih>
0.000

> <Tether>
0.000

$$$$
VeraChem MOL file


 13 13  0  0  0  0  0  0  0  0999 V2000     
   20.5916   18.1683   22.5972 C   0  0  0  0  0  0  0  0  0  0  0  0
   21.6164   18.5404   22.4665 H   0  0  0  0  0  0  0  0  0  0  0  0
   20.6365   17.1664   23.0405 H   0  0  0  0  0  0  0  0  0  0  0  0
   19.6740   18.3226   21.3396 C   0  0  0  0  0  0  0  0  0  0  0  0
   20.1696   18.2395   20.3662 H   0  0  0  0  0  0  0  0  0  0  0  0
   18.7840   17.6812   21.3384 H   0  0  0  0  0  0  0  0  0  0  0  0
   19.4236   19.7734   21.8508 C   0  0  0  0  0  0  0  0  0  0  0  0
   20.2065   20.4869   21.5592 H   0  0  0  0  0  0  0  0  0  0  0  0
   19.6105   19.1781   23.2791 C   0  0  0  0  0  0  0  0  0  0  0  0
   20.0511   19.8507   24.0233 H   0  0  0  0  0  0  0  0  0  0  0  0
   18.7076   18.7230   23.7049 H   0  0  0  0  0  0  0  0  0  0  0  0
   18.1440   20.2956   21.5781 O   0  0  0  0  0  0  0  0  0  0  0  0
   18.0574   21.1318   22.0845 H   0  0  0  0  0  0  0  0  0  0  0  0
  1  2  1  0  0  0  0
  1  3  1  0  0  0  0
  1  4  1  0  0  0  0
  4  5  1  0  0  0  0
  4  6  1  0  0  0  0
  4  7  1  0  0  0  0
  7  8  1  0  0  0  0
  1  9  1  0  0  0  0
  7  9  1  0  0  0  0
  9 10  1  0  0  0  0
  9 11  1  0  0  0  0
  7 12  1  0  0  0  0
 12 13  1  0  0  0  0
M  END
> <VConfSearch Rank>
906

> <Conf_Id>
22

> <Delta U+W>
0.000

> <U+W>
-3.131

> <U>
-0.154

> <W>
-2.978

> <W(PB)>
-4.579

> <W(SA)>
1.601

> <Valence>
6.333

> <Coulomb>
-7.439

> <VdW>
0.952

> <VdW6>
-2.120

> <VdW12>
3.072

> <Bond>
0.065

> <Angle>
0.931

> <Pdih>
5.338

> <Idih>
0.000

> <Tether>
0.000

$$$$
VeraChem MOL file


 13 13  0  0  0  0  0  0  0  0999 V2000     
   19.5821   18.8125   23.5598 C   0  0  0  0  0  0  0  0  0  0  0  0
   18.9763   17.9637   23.9035 H   0  0  0  0  0  0  0  0  0  0  0  0
   19.9406   19.3650   24.4365 H   0  0  0  0  0  0  0  0  0  0  0  0
   18.9249   19.6703   22.4286 C   0  0  0  0  0  0  0  0  0  0  0  0
   19.3486   20.6755   22.3112 H   0  0  0  0  0  0  0  0  0  0  0  0
   17.8326   19.7489   22.4560 H   0  0  0  0  0  0  0  0  0  0  0  0
   19.5056   18.6046   21.4507 C   0  0  0  0  0  0  0  0  0  0  0  0
   18.8820   17.7058   21.3492 H   0  0  0  0  0  0  0  0  0  0  0  0
   20.6612   18.4537   22.4854 C   0  0  0  0  0  0  0  0  0  0  0  0
   21.4663   19.1913   22.3783 H   0  0  0  0  0  0  0  0  0  0  0  0
   21.1056   17.4554   22.5609 H   0  0  0  0  0  0  0  0  0  0  0  0
   19.8894   19.0926   20.1861 O   0  0  0  0  0  0  0  0  0  0  0  0
   19.0667   19.2952   19.6908 H   0  0  0  0  0  0  0  0  0  0  0  0
  1  2  1  0  0  0  0
  1  3  1  0  0  0  0
  1  4  1  0  0  0  0
  4  5  1  0  0  0  0
  4  6  1  0  0  0  0
  4  7  1  0  0  0  0
  7  8  1  0  0  0  0
  1  9  1  0  0  0  0
  7  9  1  0  0  0  0
  9 10  1  0  0  0  0
  9 11  1  0  0  0  0
  7 12  1  0  0  0  0
 12 13  1  0  0  0  0
M  END
> <VConfSearch Rank>
907

> <Conf_Id>
19

> <Delta U+W>
-0.011

> <U+W>
-3.142

> <U>
-0.154

> <W>
-2.989

> <W(PB)>
-4.588

> <W(SA)>
1.599

> <Valence>
6.334

> <Coulomb>
-7.439

> <VdW>
0.951

> <VdW6>
-2.120

> <VdW12>
3.072

> <Bond>
0.065

> <Angle>
0.930

> <Pdih>
5.339

> <Idih>
0.000

> <Tether>
0.000

$$$$
VeraChem MOL file


 13 13  0  0  0  0  0  0  0  0999 V2000     
   19.1630   18.6070   23.3280 C   0  0  0  0  0  0  0  0  0  0  0  0
   19.0056   17.7047   23.9304 H   0  0  0  0  0  0  0  0  0  0  0  0
   18.8155   19.4767   23.9008 H   0  0  0  0  0  0  0  0  0  0  0  0
   18.6419   18.5501   21.8535 C   0  0  0  0  0  0  0  0  0  0  0  0
   18.6687   17.5521   21.3996 H   0  0  0  0  0  0  0  0  0  0  0  0
   17.6545   18.9900   21.6748 H   0  0  0  0  0  0  0  0  0  0  0  0
   19.8620   19.4518   21.4878 C   0  0  0  0  0  0  0  0  0  0  0  0
   20.3078   19.2419   20.5070 H   0  0  0  0  0  0  0  0  0  0  0  0
   20.5838   18.7719   22.6931 C   0  0  0  0  0  0  0  0  0  0  0  0
   21.2878   19.4016   23.2482 H   0  0  0  0  0  0  0  0  0  0  0  0
   21.0817   17.8271   22.4433 H   0  0  0  0  0  0  0  0  0  0  0  0
   19.6395   20.8404   21.6309 O   0  0  0  0  0  0  0  0  0  0  0  0
   20.5100   21.2844   21.5466 H   0  0  0  0  0  0  0  0  0  0  0  0
  1  2  1  0  0  0  0
  1  3  1  0  0  0  0
  1  4  1  0  0  0  0
  4  5  1  0  0  0  0
  4  6  1  0  0  0  0
  4  7  1  0  0  0  0
  7  8  1  0  0  0  0
  1  9  1  0  0  0  0
  7  9  1  0  0  0  0
  9 10  1  0  0  0  0
  9 11  1  0  0  0  0
  7 12  1  0  0  0  0
 12 13  1  0  0  0  0
M  END
> <VConfSearch Rank>
908

> <Conf_Id>
20

> <Delta U+W>
1.030

> <U+W>
-2.101

> <U>
0.841

> <W>
-2.942

> <W(PB)>
-4.530

> <W(SA)>
1.587

> <Valence>
6.736

> <Coulomb>
-7.246

> <VdW>
1.352

> <VdW6>
-2.500

> <VdW12>
3.851

> <Bond>
0.063

> <Angle>
0.687

> <Pdih>
5.986

> <Idih>
0.000

> <Tether>
0.000

$$$$
VeraChem MOL file


 13 13  0  0  0  0  0  0  0  0999 V2000     
   18.8574   18.3342   22.8966 C   0  0  0  0  0  0  0  0  0  0  0  0
   18.7581   18.5863   23.9607 H   0  0  0  0  0  0  0  0  0  0  0  0
   18.1224   17.5585   22.6507 H   0  0  0  0  0  0  0  0  0  0  0  0
   20.3239   18.0665   22.4220 C   0  0  0  0  0  0  0  0  0  0  0  0
   20.9956   17.6170   23.1617 H   0  0  0  0  0  0  0  0  0  0  0  0
   20.4056   17.5033   21.4842 H   0  0  0  0  0  0  0  0  0  0  0  0
   20.4259   19.6140   22.2674 C   0  0  0  0  0  0  0  0  0  0  0  0
   20.6594   20.1394   23.2034 H   0  0  0  0  0  0  0  0  0  0  0  0
   18.9042   19.5665   21.9341 C   0  0  0  0  0  0  0  0  0  0  0  0
   18.6686   19.3386   20.8872 H   0  0  0  0  0  0  0  0  0  0  0  0
   18.3220   20.4418   22.2428 H   0  0  0  0  0  0  0  0  0  0  0  0
   21.2591   20.0637   21.2256 O   0  0  0  0  0  0  0  0  0  0  0  0
   21.0064   19.5630   20.4218 H   0  0  0  0  0  0  0  0  0  0  0  0
  1  2  1  0  0  0  0
  1  3  1  0  0  0  0
  1  4  1  0  0  0  0
  4  5  1  0  0  0  0
  4  6  1  0  0  0  0
  4  7  1  0  0  0  0
  7  8  1  0  0  0  0
  1  9  1  0  0  0  0
  7  9  1  0  0  0  0
  9 10  1  0  0  0  0
  9 11  1  0  0  0  0
  7 12  1  0  0  0  0
 12 13  1  0  0  0  0
M  END
> <VConfSearch Rank>
909

> <Conf_Id>
24

> <Delta U+W>
0.356

> <U+W>
-2.775

> <U>
-0.184

> <W>
-2.591

> <W(PB)>
-4.184

> <W(SA)>
1.593

> <Valence>
6.840

> <Coulomb>
-7.916

> <VdW>
0.893

> <VdW6>
-2.167

> <VdW12>
3.060

> <Bond>
0.059

> <Angle>
0.918

> <Pdih>
5.862

> <Idih>
0.000

> <Tether>
0.000

$$$$
VeraChem MOL file


 13 13  0  0  0  0  0  0  0  0999 V2000     
   20.3434   18.1216   21.8592 C   0  0  0  0  0  0  0  0  0  0  0  0
   20.5619   17.0505   21.9449 H   0  0  0  0  0  0  0  0  0  0  0  0
   21.0407   18.5606   21.1344 H   0  0  0  0  0  0  0  0  0  0  0  0
   20.2172   18.9043   23.2088 C   0  0  0  0  0  0  0  0  0  0  0  0
   19.8412   18.3051   24.0470 H   0  0  0  0  0  0  0  0  0  0  0  0
   21.1117   19.4436   23.5402 H   0  0  0  0  0  0  0  0  0  0  0  0
   19.1251   19.7651   22.5015 C   0  0  0  0  0  0  0  0  0  0  0  0
   18.2952   20.0782   23.1478 H   0  0  0  0  0  0  0  0  0  0  0  0
   18.8402   18.4977   21.6376 C   0  0  0  0  0  0  0  0  0  0  0  0
   18.1265   17.7987   22.0905 H   0  0  0  0  0  0  0  0  0  0  0  0
   18.5361   18.6829   20.6013 H   0  0  0  0  0  0  0  0  0  0  0  0
   19.6199   20.8732   21.7811 O   0  0  0  0  0  0  0  0  0  0  0  0
   20.3530   20.5364   21.2257 H   0  0  0  0  0  0  0  0  0  0  0  0
  1  2  1  0  0  0  0
  1  3  1  0  0  0  0
  1  4  1  0  0  0  0
  4  5  1  0  0  0  0
  4  6  1  0  0  0  0
  4  7  1  0  0  0  0
  7  8  1  0  0  0  0
  1  9  1  0  0  0  0
  7  9  1  0  0  0  0
  9 10  1  0  0  0  0
  9 11  1  0  0  0  0
  7 12  1  0  0  0  0
 12 13  1  0  0  0  0
M  END
> <VConfSearch Rank>
910

> <Conf_Id>
44

> <Delta U+W>
0.823

> <U+W>
-2.308

> <U>
0.039

> <W>
-2.348

> <W(PB)>
-3.918

> <W(SA)>
1.571

> <Valence>
7.320

> <Coulomb>
-8.530

> <VdW>
1.249

> <VdW6>
-2.615

> <VdW12>
3.864

> <Bond>
0.056

> <Angle>
0.694

> <Pdih>
6.570

> <Idih>
0.000

> <Tether>
0.000

$$$$
VeraChem MOL file


 13 13  0  0  0  0  0  0  0  0999 V2000     
   20.7152   19.8233   22.4321 C   0  0  0  0  0  0  0  0  0  0  0  0
   21.2312   20.0884   21.4999 H   0  0  0  0  0  0  0  0  0  0  0  0
   21.2067   20.3414   23.2642 H   0  0  0  0  0  0  0  0  0  0  0  0
   20.4645   18.2917   22.6286 C   0  0  0  0  0  0  0  0  0  0  0  0
   21.2208   17.6199   22.2082 H   0  0  0  0  0  0  0  0  0  0  0  0
   20.2587   17.9884   23.6626 H   0  0  0  0  0  0  0  0  0  0  0  0
   19.1927   18.5115   21.7550 C   0  0  0  0  0  0  0  0  0  0  0  0
   19.3901   18.4982   20.6743 H   0  0  0  0  0  0  0  0  0  0  0  0
   19.1564   19.9414   22.3739 C   0  0  0  0  0  0  0  0  0  0  0  0
   18.7564   20.7314   21.7288 H   0  0  0  0  0  0  0  0  0  0  0  0
   18.6647   20.0021   23.3529 H   0  0  0  0  0  0  0  0  0  0  0  0
   18.0941   17.6890   22.0730 O   0  0  0  0  0  0  0  0  0  0  0  0
   17.3209   18.0313   21.5748 H   0  0  0  0  0  0  0  0  0  0  0  0
  1  2  1  0  0  0  0
  1  3  1  0  0  0  0
  1  4  1  0  0  0  0
  4  5  1  0  0  0  0
  4  6  1  0  0  0  0
  4  7  1  0  0  0  0
  7  8  1  0  0  0  0
  1  9  1  0  0  0  0
  7  9  1  0  0  0  0
  9 10  1  0  0  0  0
  9 11  1  0  0  0  0
  7 12  1  0  0  0  0
 12 13  1  0  0  0  0
M  END
> <VConfSearch Rank>
911

> <Conf_Id>
22

> <Delta U+W>
0.000

> <U+W>
-3.131

> <U>
-0.154

> <W>
-2.978

> <W(PB)>
-4.579

> <W(SA)>
1.601

> <Valence>
6.333

> <Coulomb>
-7.439

> <VdW>
0.952

> <VdW6>
-2.120

> <VdW12>
3.072

> <Bond>
0.065

> <Angle>
0.931

> <Pdih>
5.338

> <Idih>
0.000

> <Tether>
0.000

$$$$
VeraChem MOL file


 13 13  0  0  0  0  0  0  0  0999 V2000     
   18.3429   18.6344   22.2822 C   0  0  0  0  0  0  0  0  0  0  0  0
   17.8571   18.6787   21.2985 H   0  0  0  0  0  0  0  0  0  0  0  0
   17.5830   18.4032   23.0381 H   0  0  0  0  0  0  0  0  0  0  0  0
   19.2851   19.8415   22.6019 C   0  0  0  0  0  0  0  0  0  0  0  0
   19.5080   19.9791   23.6674 H   0  0  0  0  0  0  0  0  0  0  0  0
   18.9933   20.8074   22.1751 H   0  0  0  0  0  0  0  0  0  0  0  0
   20.3687   19.0482   21.8109 C   0  0  0  0  0  0  0  0  0  0  0  0
   20.3102   19.1784   20.7216 H   0  0  0  0  0  0  0  0  0  0  0  0
   19.6454   17.7693   22.3305 C   0  0  0  0  0  0  0  0  0  0  0  0
   19.9495   17.4518   23.3356 H   0  0  0  0  0  0  0  0  0  0  0  0
   19.6745   16.9013   21.6629 H   0  0  0  0  0  0  0  0  0  0  0  0
   21.6915   19.2183   22.2647 O   0  0  0  0  0  0  0  0  0  0  0  0
   21.9729   20.1228   22.0078 H   0  0  0  0  0  0  0  0  0  0  0  0
  1  2  1  0  0  0  0
  1  3  1  0  0  0  0
  1  4  1  0  0  0  0
  4  5  1  0  0  0  0
  4  6  1  0  0  0  0
  4  7  1  0  0  0  0
  7  8  1  0  0  0  0
  1  9  1  0  0  0  0
  7  9  1  0  0  0  0
  9 10  1  0  0  0  0
  9 11  1  0  0  0  0
  7 12  1  0  0  0  0
 12 13  1  0  0  0  0
M  END
> <VConfSearch Rank>
912

> <Conf_Id>
19

> <Delta U+W>
-0.011

> <U+W>
-3.142

> <U>
-0.154

> <W>
-2.989

> <W(PB)>
-4.588

> <W(SA)>
1.599

> <Valence>
6.334

> <Coulomb>
-7.439

> <VdW>
0.951

> <VdW6>
-2.120

> <VdW12>
3.072

> <Bond>
0.065

> <Angle>
0.930

> <Pdih>
5.339

> <Idih>
0.000

> <Tether>
0.000

$$$$
VeraChem MOL file


 13 13  0  0  0  0  0  0  0  0999 V2000     
   19.8598   20.2332   22.0065 C   0  0  0  0  0  0  0  0  0  0  0  0
   20.3914   20.9135   21.3309 H   0  0  0  0  0  0  0  0  0  0  0  0
   19.2312   20.8288   22.6813 H   0  0  0  0  0  0  0  0  0  0  0  0
   20.7342   19.1496   22.7207 C   0  0  0  0  0  0  0  0  0  0  0  0
   21.6028   18.8122   22.1423 H   0  0  0  0  0  0  0  0  0  0  0  0
   21.0626   19.3902   23.7379 H   0  0  0  0  0  0  0  0  0  0  0  0
   19.4912   18.2122   22.6134 C   0  0  0  0  0  0  0  0  0  0  0  0
   19.7294   17.1557   22.4351 H   0  0  0  0  0  0  0  0  0  0  0  0
   19.1276   19.0258   21.3320 C   0  0  0  0  0  0  0  0  0  0  0  0
   18.0580   19.1610   21.1367 H   0  0  0  0  0  0  0  0  0  0  0  0
   19.6067   18.6587   20.4162 H   0  0  0  0  0  0  0  0  0  0  0  0
   18.5662   18.3269   23.6761 O   0  0  0  0  0  0  0  0  0  0  0  0
   17.7606   17.8320   23.4150 H   0  0  0  0  0  0  0  0  0  0  0  0
  1  2  1  0  0  0  0
  1  3  1  0  0  0  0
  1  4  1  0  0  0  0
  4  5  1  0  0  0  0
  4  6  1  0  0  0  0
  4  7  1  0  0  0  0
  7  8  1  0  0  0  0
  1  9  1  0  0  0  0
  7  9  1  0  0  0  0
  9 10  1  0  0  0  0
  9 11  1  0  0  0  0
  7 12  1  0  0  0  0
 12 13  1  0  0  0  0
M  END
> <VConfSearch Rank>
913

> <Conf_Id>
20

> <Delta U+W>
1.030

> <U+W>
-2.101

> <U>
0.841

> <W>
-2.942

> <W(PB)>
-4.530

> <W(SA)>
1.587

> <Valence>
6.736

> <Coulomb>
-7.246

> <VdW>
1.352

> <VdW6>
-2.500

> <VdW12>
3.851

> <Bond>
0.063

> <Angle>
0.687

> <Pdih>
5.986

> <Idih>
0.000

> <Tether>
0.000

$$$$
VeraChem MOL file


 13 13  0  0  0  0  0  0  0  0999 V2000     
   21.0094   18.9540   22.4326 C   0  0  0  0  0  0  0  0  0  0  0  0
   21.6322   18.2505   21.8644 H   0  0  0  0  0  0  0  0  0  0  0  0
   21.6570   19.5328   23.1020 H   0  0  0  0  0  0  0  0  0  0  0  0
   19.7368   18.3207   23.0857 C   0  0  0  0  0  0  0  0  0  0  0  0
   19.8291   17.2781   23.4095 H   0  0  0  0  0  0  0  0  0  0  0  0
   19.3035   18.9068   23.9056 H   0  0  0  0  0  0  0  0  0  0  0  0
   19.0646   18.5411   21.6969 C   0  0  0  0  0  0  0  0  0  0  0  0
   19.2774   17.7460   20.9694 H   0  0  0  0  0  0  0  0  0  0  0  0
   20.0009   19.7803   21.5680 C   0  0  0  0  0  0  0  0  0  0  0  0
   19.6267   20.6927   22.0487 H   0  0  0  0  0  0  0  0  0  0  0  0
   20.3265   20.0269   20.5514 H   0  0  0  0  0  0  0  0  0  0  0  0
   17.6863   18.8258   21.7309 O   0  0  0  0  0  0  0  0  0  0  0  0
   17.5582   19.5372   22.3928 H   0  0  0  0  0  0  0  0  0  0  0  0
  1  2  1  0  0  0  0
  1  3  1  0  0  0  0
  1  4  1  0  0  0  0
  4  5  1  0  0  0  0
  4  6  1  0  0  0  0
  4  7  1  0  0  0  0
  7  8  1  0  0  0  0
  1  9  1  0  0  0  0
  7  9  1  0  0  0  0
  9 10  1  0  0  0  0
  9 11  1  0  0  0  0
  7 12  1  0  0  0  0
 12 13  1  0  0  0  0
M  END
> <VConfSearch Rank>
914

> <Conf_Id>
24

> <Delta U+W>
0.356

> <U+W>
-2.775

> <U>
-0.184

> <W>
-2.591

> <W(PB)>
-4.184

> <W(SA)>
1.593

> <Valence>
6.840

> <Coulomb>
-7.916

> <VdW>
0.893

> <VdW6>
-2.167

> <VdW12>
3.060

> <Bond>
0.059

> <Angle>
0.918

> <Pdih>
5.862

> <Idih>
0.000

> <Tether>
0.000

$$$$
VeraChem MOL file


 13 13  0  0  0  0  0  0  0  0999 V2000     
   19.9135   19.9690   21.7393 C   0  0  0  0  0  0  0  0  0  0  0  0
   19.6594   21.0353   21.7120 H   0  0  0  0  0  0  0  0  0  0  0  0
   20.7135   19.7846   21.0111 H   0  0  0  0  0  0  0  0  0  0  0  0
   18.7066   18.9757   21.6573 C   0  0  0  0  0  0  0  0  0  0  0  0
   17.7751   19.3571   22.0929 H   0  0  0  0  0  0  0  0  0  0  0  0
   18.4848   18.5656   20.6656 H   0  0  0  0  0  0  0  0  0  0  0  0
   19.5226   18.0493   22.6111 C   0  0  0  0  0  0  0  0  0  0  0  0
   18.9196   17.4916   23.3390 H   0  0  0  0  0  0  0  0  0  0  0  0
   20.1637   19.3614   23.1601 C   0  0  0  0  0  0  0  0  0  0  0  0
   19.5894   19.8375   23.9642 H   0  0  0  0  0  0  0  0  0  0  0  0
   21.2101   19.2872   23.4765 H   0  0  0  0  0  0  0  0  0  0  0  0
   20.4229   17.1776   21.9619 O   0  0  0  0  0  0  0  0  0  0  0  0
   20.9306   17.7262   21.3289 H   0  0  0  0  0  0  0  0  0  0  0  0
  1  2  1  0  0  0  0
  1  3  1  0  0  0  0
  1  4  1  0  0  0  0
  4  5  1  0  0  0  0
  4  6  1  0  0  0  0
  4  7  1  0  0  0  0
  7  8  1  0  0  0  0
  1  9  1  0  0  0  0
  7  9  1  0  0  0  0
  9 10  1  0  0  0  0
  9 11  1  0  0  0  0
  7 12  1  0  0  0  0
 12 13  1  0  0  0  0
M  END
> <VConfSearch Rank>
915

> <Conf_Id>
44

> <Delta U+W>
0.823

> <U+W>
-2.308

> <U>
0.039

> <W>
-2.348

> <W(PB)>
-3.918

> <W(SA)>
1.571

> <Valence>
7.320

> <Coulomb>
-8.530

> <VdW>
1.249

> <VdW6>
-2.615

> <VdW12>
3.864

> <Bond>
0.056

> <Angle>
0.694

> <Pdih>
6.570

> <Idih>
0.000

> <Tether>
0.000

$$$$
VeraChem MOL file


 13 13  0  0  0  0  0  0  0  0999 V2000     
   20.7749   18.8288   21.5640 C   0  0  0  0  0  0  0  0  0  0  0  0
   21.6536   18.6542   22.1988 H   0  0  0  0  0  0  0  0  0  0  0  0
   21.0738   18.7210   20.5145 H   0  0  0  0  0  0  0  0  0  0  0  0
   19.9580   20.1155   21.9169 C   0  0  0  0  0  0  0  0  0  0  0  0
   20.5338   20.9628   22.3046 H   0  0  0  0  0  0  0  0  0  0  0  0
   19.2969   20.4739   21.1181 H   0  0  0  0  0  0  0  0  0  0  0  0
   19.2544   19.2279   22.9874 C   0  0  0  0  0  0  0  0  0  0  0  0
   19.8160   19.1389   23.9275 H   0  0  0  0  0  0  0  0  0  0  0  0
   19.4897   18.0485   21.9960 C   0  0  0  0  0  0  0  0  0  0  0  0
   19.6526   17.0659   22.4522 H   0  0  0  0  0  0  0  0  0  0  0  0
   18.7273   17.9524   21.2129 H   0  0  0  0  0  0  0  0  0  0  0  0
   17.9047   19.5437   23.2390 O   0  0  0  0  0  0  0  0  0  0  0  0
   17.5369   18.8244   23.7963 H   0  0  0  0  0  0  0  0  0  0  0  0
  1  2  1  0  0  0  0
  1  3  1  0  0  0  0
  1  4  1  0  0  0  0
  4  5  1  0  0  0  0
  4  6  1  0  0  0  0
  4  7  1  0  0  0  0
  7  8  1  0  0  0  0
  1  9  1  0  0  0  0
  7  9  1  0  0  0  0
  9 10  1  0  0  0  0
  9 11  1  0  0  0  0
  7 12  1  0  0  0  0
 12 13  1  0  0  0  0
M  END
> <VConfSearch Rank>
916

> <Conf_Id>
22

> <Delta U+W>
0.000

> <U+W>
-3.131

> <U>
-0.154

> <W>
-2.978

> <W(PB)>
-4.579

> <W(SA)>
1.601

> <Valence>
6.333

> <Coulomb>
-7.439

> <VdW>
0.952

> <VdW6>
-2.120

> <VdW12>
3.072

> <Bond>
0.065

> <Angle>
0.931

> <Pdih>
5.338

> <Idih>
0.000

> <Tether>
0.000

$$$$
VeraChem MOL file


 13 13  0  0  0  0  0  0  0  0999 V2000     
   20.1158   19.0219   21.0230 C   0  0  0  0  0  0  0  0  0  0  0  0
   20.7530   18.1742   20.7385 H   0  0  0  0  0  0  0  0  0  0  0  0
   20.1103   19.7476   20.2010 H   0  0  0  0  0  0  0  0  0  0  0  0
   20.3952   19.6012   22.4491 C   0  0  0  0  0  0  0  0  0  0  0  0
   20.0151   20.6172   22.6134 H   0  0  0  0  0  0  0  0  0  0  0  0
   21.4339   19.5531   22.7941 H   0  0  0  0  0  0  0  0  0  0  0  0
   19.4557   18.4677   22.9607 C   0  0  0  0  0  0  0  0  0  0  0  0
   19.9548   17.4968   23.0845 H   0  0  0  0  0  0  0  0  0  0  0  0
   18.7162   18.6245   21.5978 C   0  0  0  0  0  0  0  0  0  0  0  0
   17.9664   19.4251   21.5772 H   0  0  0  0  0  0  0  0  0  0  0  0
   18.2679   17.7114   21.1914 H   0  0  0  0  0  0  0  0  0  0  0  0
   18.6918   18.7865   24.1006 O   0  0  0  0  0  0  0  0  0  0  0  0
   19.3061   18.8073   24.8657 H   0  0  0  0  0  0  0  0  0  0  0  0
  1  2  1  0  0  0  0
  1  3  1  0  0  0  0
  1  4  1  0  0  0  0
  4  5  1  0  0  0  0
  4  6  1  0  0  0  0
  4  7  1  0  0  0  0
  7  8  1  0  0  0  0
  1  9  1  0  0  0  0
  7  9  1  0  0  0  0
  9 10  1  0  0  0  0
  9 11  1  0  0  0  0
  7 12  1  0  0  0  0
 12 13  1  0  0  0  0
M  END
> <VConfSearch Rank>
917

> <Conf_Id>
19

> <Delta U+W>
-0.011

> <U+W>
-3.142

> <U>
-0.154

> <W>
-2.989

> <W(PB)>
-4.588

> <W(SA)>
1.599

> <Valence>
6.334

> <Coulomb>
-7.439

> <VdW>
0.951

> <VdW6>
-2.120

> <VdW12>
3.072

> <Bond>
0.065

> <Angle>
0.930

> <Pdih>
5.339

> <Idih>
0.000

> <Tether>
0.000

$$$$
VeraChem MOL file


 13 13  0  0  0  0  0  0  0  0999 V2000     
   19.4569   18.4108   23.3163 C   0  0  0  0  0  0  0  0  0  0  0  0
   19.5254   18.4311   24.4103 H   0  0  0  0  0  0  0  0  0  0  0  0
   18.9986   17.4611   23.0109 H   0  0  0  0  0  0  0  0  0  0  0  0
   20.7625   18.7820   22.5375 C   0  0  0  0  0  0  0  0  0  0  0  0
   21.4109   19.5009   23.0529 H   0  0  0  0  0  0  0  0  0  0  0  0
   21.3748   17.9402   22.1958 H   0  0  0  0  0  0  0  0  0  0  0  0
   19.8272   19.4202   21.4636 C   0  0  0  0  0  0  0  0  0  0  0  0
   20.2262   20.3267   20.9906 H   0  0  0  0  0  0  0  0  0  0  0  0
   18.8364   19.6790   22.6415 C   0  0  0  0  0  0  0  0  0  0  0  0
   17.7708   19.6189   22.3943 H   0  0  0  0  0  0  0  0  0  0  0  0
   19.0176   20.6156   23.1828 H   0  0  0  0  0  0  0  0  0  0  0  0
   19.3589   18.5248   20.4751 O   0  0  0  0  0  0  0  0  0  0  0  0
   18.6556   18.9885   19.9726 H   0  0  0  0  0  0  0  0  0  0  0  0
  1  2  1  0  0  0  0
  1  3  1  0  0  0  0
  1  4  1  0  0  0  0
  4  5  1  0  0  0  0
  4  6  1  0  0  0  0
  4  7  1  0  0  0  0
  7  8  1  0  0  0  0
  1  9  1  0  0  0  0
  7  9  1  0  0  0  0
  9 10  1  0  0  0  0
  9 11  1  0  0  0  0
  7 12  1  0  0  0  0
 12 13  1  0  0  0  0
M  END
> <VConfSearch Rank>
918

> <Conf_Id>
20

> <Delta U+W>
1.030

> <U+W>
-2.101

> <U>
0.841

> <W>
-2.942

> <W(PB)>
-4.530

> <W(SA)>
1.587

> <Valence>
6.736

> <Coulomb>
-7.246

> <VdW>
1.352

> <VdW6>
-2.500

> <VdW12>
3.851

> <Bond>
0.063

> <Angle>
0.687

> <Pdih>
5.986

> <Idih>
0.000

> <Tether>
0.000

$$$$
VeraChem MOL file


 13 13  0  0  0  0  0  0  0  0999 V2000     
   19.5411   19.3283   23.4204 C   0  0  0  0  0  0  0  0  0  0  0  0
   19.3654   20.3962   23.6057 H   0  0  0  0  0  0  0  0  0  0  0  0
   19.4967   18.7950   24.3775 H   0  0  0  0  0  0  0  0  0  0  0  0
   20.7796   19.0165   22.5169 C   0  0  0  0  0  0  0  0  0  0  0  0
   21.6241   19.7094   22.6005 H   0  0  0  0  0  0  0  0  0  0  0  0
   21.1575   17.9897   22.5970 H   0  0  0  0  0  0  0  0  0  0  0  0
   19.8145   19.2673   21.3190 C   0  0  0  0  0  0  0  0  0  0  0  0
   19.6958   20.3279   21.0589 H   0  0  0  0  0  0  0  0  0  0  0  0
   18.6948   18.7189   22.2543 C   0  0  0  0  0  0  0  0  0  0  0  0
   18.6067   17.6257   22.2758 H   0  0  0  0  0  0  0  0  0  0  0  0
   17.6981   19.1490   22.1061 H   0  0  0  0  0  0  0  0  0  0  0  0
   20.0691   18.4998   20.1667 O   0  0  0  0  0  0  0  0  0  0  0  0
   20.1651   17.5692   20.4591 H   0  0  0  0  0  0  0  0  0  0  0  0
  1  2  1  0  0  0  0
  1  3  1  0  0  0  0
  1  4  1  0  0  0  0
  4  5  1  0  0  0  0
  4  6  1  0  0  0  0
  4  7  1  0  0  0  0
  7  8  1  0  0  0  0
  1  9  1  0  0  0  0
  7  9  1  0  0  0  0
  9 10  1  0  0  0  0
  9 11  1  0  0  0  0
  7 12  1  0  0  0  0
 12 13  1  0  0  0  0
M  END
> <VConfSearch Rank>
919

> <Conf_Id>
24

> <Delta U+W>
0.356

> <U+W>
-2.775

> <U>
-0.184

> <W>
-2.591

> <W(PB)>
-4.184

> <W(SA)>
1.593

> <Valence>
6.840

> <Coulomb>
-7.916

> <VdW>
0.893

> <VdW6>
-2.167

> <VdW12>
3.060

> <Bond>
0.059

> <Angle>
0.918

> <Pdih>
5.862

> <Idih>
0.000

> <Tether>
0.000

$$$$
VeraChem MOL file


 13 13  0  0  0  0  0  0  0  0999 V2000     
   20.2828   18.3281   21.4982 C   0  0  0  0  0  0  0  0  0  0  0  0
   20.3279   17.8922   20.4930 H   0  0  0  0  0  0  0  0  0  0  0  0
   21.1781   18.0170   22.0514 H   0  0  0  0  0  0  0  0  0  0  0  0
   18.9333   18.1356   22.2675 C   0  0  0  0  0  0  0  0  0  0  0  0
   18.0476   18.0816   21.6228 H   0  0  0  0  0  0  0  0  0  0  0  0
   18.8972   17.3030   22.9790 H   0  0  0  0  0  0  0  0  0  0  0  0
   19.1882   19.5468   22.8819 C   0  0  0  0  0  0  0  0  0  0  0  0
   18.2855   20.1511   23.0382 H   0  0  0  0  0  0  0  0  0  0  0  0
   19.9660   19.8595   21.5661 C   0  0  0  0  0  0  0  0  0  0  0  0
   19.3335   20.2283   20.7494 H   0  0  0  0  0  0  0  0  0  0  0  0
   20.8288   20.5275   21.6671 H   0  0  0  0  0  0  0  0  0  0  0  0
   19.9786   19.5490   24.0511 O   0  0  0  0  0  0  0  0  0  0  0  0
   20.7643   18.9983   23.8544 H   0  0  0  0  0  0  0  0  0  0  0  0
  1  2  1  0  0  0  0
  1  3  1  0  0  0  0
  1  4  1  0  0  0  0
  4  5  1  0  0  0  0
  4  6  1  0  0  0  0
  4  7  1  0  0  0  0
  7  8  1  0  0  0  0
  1  9  1  0  0  0  0
  7  9  1  0  0  0  0
  9 10  1  0  0  0  0
  9 11  1  0  0  0  0
  7 12  1  0  0  0  0
 12 13  1  0  0  0  0
M  END
> <VConfSearch Rank>
920

> <Conf_Id>
44

> <Delta U+W>
0.823

> <U+W>
-2.308

> <U>
0.039

> <W>
-2.348

> <W(PB)>
-3.918

> <W(SA)>
1.571

> <Valence>
7.320

> <Coulomb>
-8.530

> <VdW>
1.249

> <VdW6>
-2.615

> <VdW12>
3.864

> <Bond>
0.056

> <Angle>
0.694

> <Pdih>
6.570

> <Idih>
0.000

> <Tether>
0.000

$$$$
VeraChem MOL file


 13 13  0  0  0  0  0  0  0  0999 V2000     
   20.0894   19.0337   23.4985 C   0  0  0  0  0  0  0  0  0  0  0  0
   19.3345   19.3792   24.2170 H   0  0  0  0  0  0  0  0  0  0  0  0
   20.9842   18.7246   24.0517 H   0  0  0  0  0  0  0  0  0  0  0  0
   20.3284   19.9947   22.2875 C   0  0  0  0  0  0  0  0  0  0  0  0
   20.2094   21.0650   22.4885 H   0  0  0  0  0  0  0  0  0  0  0  0
   21.2756   19.8386   21.7565 H   0  0  0  0  0  0  0  0  0  0  0  0
   19.1007   19.2864   21.6395 C   0  0  0  0  0  0  0  0  0  0  0  0
   18.1328   19.6894   21.9677 H   0  0  0  0  0  0  0  0  0  0  0  0
   19.5601   18.0230   22.4281 C   0  0  0  0  0  0  0  0  0  0  0  0
   18.7621   17.3477   22.7556 H   0  0  0  0  0  0  0  0  0  0  0  0
   20.3397   17.4332   21.9300 H   0  0  0  0  0  0  0  0  0  0  0  0
   19.1441   19.1698   20.2362 O   0  0  0  0  0  0  0  0  0  0  0  0
   18.4117   18.5726   19.9714 H   0  0  0  0  0  0  0  0  0  0  0  0
  1  2  1  0  0  0  0
  1  3  1  0  0  0  0
  1  4  1  0  0  0  0
  4  5  1  0  0  0  0
  4  6  1  0  0  0  0
  4  7  1  0  0  0  0
  7  8  1  0  0  0  0
  1  9  1  0  0  0  0
  7  9  1  0  0  0  0
  9 10  1  0  0  0  0
  9 11  1  0  0  0  0
  7 12  1  0  0  0  0
 12 13  1  0  0  0  0
M  END
> <VConfSearch Rank>
921

> <Conf_Id>
22

> <Delta U+W>
0.000

> <U+W>
-3.131

> <U>
-0.154

> <W>
-2.978

> <W(PB)>
-4.579

> <W(SA)>
1.601

> <Valence>
6.333

> <Coulomb>
-7.439

> <VdW>
0.952

> <VdW6>
-2.120

> <VdW12>
3.072

> <Bond>
0.065

> <Angle>
0.931

> <Pdih>
5.338

> <Idih>
0.000

> <Tether>
0.000

$$$$
VeraChem MOL file


 13 13  0  0  0  0  0  0  0  0999 V2000     
   19.1839   20.1296   22.5516 C   0  0  0  0  0  0  0  0  0  0  0  0
   18.6683   20.1717   23.5201 H   0  0  0  0  0  0  0  0  0  0  0  0
   19.1323   21.1200   22.0838 H   0  0  0  0  0  0  0  0  0  0  0  0
   18.7784   18.9201   21.6461 C   0  0  0  0  0  0  0  0  0  0  0  0
   19.0232   19.0411   20.5834 H   0  0  0  0  0  0  0  0  0  0  0  0
   17.7408   18.5796   21.7325 H   0  0  0  0  0  0  0  0  0  0  0  0
   19.8298   18.1116   22.4646 C   0  0  0  0  0  0  0  0  0  0  0  0
   19.4501   17.7265   23.4210 H   0  0  0  0  0  0  0  0  0  0  0  0
   20.5979   19.4616   22.5915 C   0  0  0  0  0  0  0  0  0  0  0  0
   21.2431   19.6995   21.7367 H   0  0  0  0  0  0  0  0  0  0  0  0
   21.1715   19.5983   23.5147 H   0  0  0  0  0  0  0  0  0  0  0  0
   20.5024   17.1008   21.7500 O   0  0  0  0  0  0  0  0  0  0  0  0
   19.8603   16.3738   21.6009 H   0  0  0  0  0  0  0  0  0  0  0  0
  1  2  1  0  0  0  0
  1  3  1  0  0  0  0
  1  4  1  0  0  0  0
  4  5  1  0  0  0  0
  4  6  1  0  0  0  0
  4  7  1  0  0  0  0
  7  8  1  0  0  0  0
  1  9  1  0  0  0  0
  7  9  1  0  0  0  0
  9 10  1  0  0  0  0
  9 11  1  0  0  0  0
  7 12  1  0  0  0  0
 12 13  1  0  0  0  0
M  END
> <VConfSearch Rank>
922

> <Conf_Id>
19

> <Delta U+W>
-0.011

> <U+W>
-3.142

> <U>
-0.154

> <W>
-2.989

> <W(PB)>
-4.588

> <W(SA)>
1.599

> <Valence>
6.334

> <Coulomb>
-7.439

> <VdW>
0.951

> <VdW6>
-2.120

> <VdW12>
3.072

> <Bond>
0.065

> <Angle>
0.930

> <Pdih>
5.339

> <Idih>
0.000

> <Tether>
0.000

$$$$
VeraChem MOL file


 13 13  0  0  0  0  0  0  0  0999 V2000     
   19.5147   19.2756   23.4864 C   0  0  0  0  0  0  0  0  0  0  0  0
   19.0025   18.9801   24.4096 H   0  0  0  0  0  0  0  0  0  0  0  0
   20.2660   20.0380   23.7302 H   0  0  0  0  0  0  0  0  0  0  0  0
   18.5940   19.6357   22.2733 C   0  0  0  0  0  0  0  0  0  0  0  0
   17.6432   19.0898   22.2459 H   0  0  0  0  0  0  0  0  0  0  0  0
   18.3904   20.7018   22.1235 H   0  0  0  0  0  0  0  0  0  0  0  0
   19.7085   19.0246   21.3679 C   0  0  0  0  0  0  0  0  0  0  0  0
   19.3376   18.4941   20.4814 H   0  0  0  0  0  0  0  0  0  0  0  0
   20.0408   18.1082   22.5869 C   0  0  0  0  0  0  0  0  0  0  0  0
   21.0961   17.8422   22.7137 H   0  0  0  0  0  0  0  0  0  0  0  0
   19.4407   17.1915   22.6360 H   0  0  0  0  0  0  0  0  0  0  0  0
   20.7350   19.9238   20.9993 O   0  0  0  0  0  0  0  0  0  0  0  0
   21.4522   19.3943   20.5901 H   0  0  0  0  0  0  0  0  0  0  0  0
  1  2  1  0  0  0  0
  1  3  1  0  0  0  0
  1  4  1  0  0  0  0
  4  5  1  0  0  0  0
  4  6  1  0  0  0  0
  4  7  1  0  0  0  0
  7  8  1  0  0  0  0
  1  9  1  0  0  0  0
  7  9  1  0  0  0  0
  9 10  1  0  0  0  0
  9 11  1  0  0  0  0
  7 12  1  0  0  0  0
 12 13  1  0  0  0  0
M  END
> <VConfSearch Rank>
923

> <Conf_Id>
20

> <Delta U+W>
1.030

> <U+W>
-2.101

> <U>
0.841

> <W>
-2.942

> <W(PB)>
-4.530

> <W(SA)>
1.587

> <Valence>
6.736

> <Coulomb>
-7.246

> <VdW>
1.352

> <VdW6>
-2.500

> <VdW12>
3.851

> <Bond>
0.063

> <Angle>
0.687

> <Pdih>
5.986

> <Idih>
0.000

> <Tether>
0.000

$$$$
VeraChem MOL file


 13 13  0  0  0  0  0  0  0  0999 V2000     
   21.0211   18.8897   22.0899 C   0  0  0  0  0  0  0  0  0  0  0  0
   21.5210   19.6649   21.4943 H   0  0  0  0  0  0  0  0  0  0  0  0
   21.7804   18.1942   22.4671 H   0  0  0  0  0  0  0  0  0  0  0  0
   19.7744   18.2399   21.4036 C   0  0  0  0  0  0  0  0  0  0  0  0
   19.8125   18.1594   20.3116 H   0  0  0  0  0  0  0  0  0  0  0  0
   19.4786   17.2683   21.8180 H   0  0  0  0  0  0  0  0  0  0  0  0
   18.9830   19.4596   21.9650 C   0  0  0  0  0  0  0  0  0  0  0  0
   19.0525   20.3601   21.3397 H   0  0  0  0  0  0  0  0  0  0  0  0
   20.0010   19.4317   23.1449 C   0  0  0  0  0  0  0  0  0  0  0  0
   19.7558   18.7264   23.9485 H   0  0  0  0  0  0  0  0  0  0  0  0
   20.2392   20.4037   23.5908 H   0  0  0  0  0  0  0  0  0  0  0  0
   17.6442   19.2019   22.3156 O   0  0  0  0  0  0  0  0  0  0  0  0
   17.6449   18.3930   22.8692 H   0  0  0  0  0  0  0  0  0  0  0  0
  1  2  1  0  0  0  0
  1  3  1  0  0  0  0
  1  4  1  0  0  0  0
  4  5  1  0  0  0  0
  4  6  1  0  0  0  0
  4  7  1  0  0  0  0
  7  8  1  0  0  0  0
  1  9  1  0  0  0  0
  7  9  1  0  0  0  0
  9 10  1  0  0  0  0
  9 11  1  0  0  0  0
  7 12  1  0  0  0  0
 12 13  1  0  0  0  0
M  END
> <VConfSearch Rank>
924

> <Conf_Id>
24

> <Delta U+W>
0.356

> <U+W>
-2.775

> <U>
-0.184

> <W>
-2.591

> <W(PB)>
-4.184

> <W(SA)>
1.593

> <Valence>
6.840

> <Coulomb>
-7.916

> <VdW>
0.893

> <VdW6>
-2.167

> <VdW12>
3.060

> <Bond>
0.059

> <Angle>
0.918

> <Pdih>
5.862

> <Idih>
0.000

> <Tether>
0.000

$$$$
VeraChem MOL file


 13 13  0  0  0  0  0  0  0  0999 V2000     
   19.1228   19.9291   22.0611 C   0  0  0  0  0  0  0  0  0  0  0  0
   19.1520   20.9507   21.6638 H   0  0  0  0  0  0  0  0  0  0  0  0
   18.1316   19.7557   22.4989 H   0  0  0  0  0  0  0  0  0  0  0  0
   20.3265   19.5144   22.9717 C   0  0  0  0  0  0  0  0  0  0  0  0
   21.2736   20.0094   22.7245 H   0  0  0  0  0  0  0  0  0  0  0  0
   20.1643   19.5931   24.0525 H   0  0  0  0  0  0  0  0  0  0  0  0
   20.1769   18.0862   22.3619 C   0  0  0  0  0  0  0  0  0  0  0  0
   21.1217   17.5487   22.2103 H   0  0  0  0  0  0  0  0  0  0  0  0
   19.6210   18.8042   21.0933 C   0  0  0  0  0  0  0  0  0  0  0  0
   20.3951   19.1251   20.3856 H   0  0  0  0  0  0  0  0  0  0  0  0
   18.8448   18.2647   20.5392 H   0  0  0  0  0  0  0  0  0  0  0  0
   19.2496   17.2541   23.0248 O   0  0  0  0  0  0  0  0  0  0  0  0
   18.4319   17.7825   23.1322 H   0  0  0  0  0  0  0  0  0  0  0  0
  1  2  1  0  0  0  0
  1  3  1  0  0  0  0
  1  4  1  0  0  0  0
  4  5  1  0  0  0  0
  4  6  1  0  0  0  0
  4  7  1  0  0  0  0
  7  8  1  0  0  0  0
  1  9  1  0  0  0  0
  7  9  1  0  0  0  0
  9 10  1  0  0  0  0
  9 11  1  0  0  0  0
  7 12  1  0  0  0  0
 12 13  1  0  0  0  0
M  END
> <VConfSearch Rank>
925

> <Conf_Id>
44

> <Delta U+W>
0.823

> <U+W>
-2.308

> <U>
0.039

> <W>
-2.348

> <W(PB)>
-3.918

> <W(SA)>
1.571

> <Valence>
7.320

> <Coulomb>
-8.530

> <VdW>
1.249

> <VdW6>
-2.615

> <VdW12>
3.864

> <Bond>
0.056

> <Angle>
0.694

> <Pdih>
6.570

> <Idih>
0.000

> <Tether>
0.000

$$$$
VeraChem MOL file


 13 13  0  0  0  0  0  0  0  0999 V2000     
   20.8706   19.4439   22.6119 C   0  0  0  0  0  0  0  0  0  0  0  0
   20.8726   20.4207   23.1132 H   0  0  0  0  0  0  0  0  0  0  0  0
   21.8945   19.0517   22.6046 H   0  0  0  0  0  0  0  0  0  0  0  0
   20.1131   19.4121   21.2435 C   0  0  0  0  0  0  0  0  0  0  0  0
   20.1434   20.3339   20.6524 H   0  0  0  0  0  0  0  0  0  0  0  0
   20.3729   18.5673   20.5936 H   0  0  0  0  0  0  0  0  0  0  0  0
   18.8278   19.1975   22.0985 C   0  0  0  0  0  0  0  0  0  0  0  0
   18.3970   20.1285   22.4919 H   0  0  0  0  0  0  0  0  0  0  0  0
   19.7606   18.4576   23.1043 C   0  0  0  0  0  0  0  0  0  0  0  0
   19.4811   18.5347   24.1608 H   0  0  0  0  0  0  0  0  0  0  0  0
   19.9451   17.4032   22.8638 H   0  0  0  0  0  0  0  0  0  0  0  0
   17.8328   18.3996   21.5002 O   0  0  0  0  0  0  0  0  0  0  0  0
   17.1612   18.2071   22.1895 H   0  0  0  0  0  0  0  0  0  0  0  0
  1  2  1  0  0  0  0
  1  3  1  0  0  0  0
  1  4  1  0  0  0  0
  4  5  1  0  0  0  0
  4  6  1  0  0  0  0
  4  7  1  0  0  0  0
  7  8  1  0  0  0  0
  1  9  1  0  0  0  0
  7  9  1  0  0  0  0
  9 10  1  0  0  0  0
  9 11  1  0  0  0  0
  7 12  1  0  0  0  0
 12 13  1  0  0  0  0
M  END
> <VConfSearch Rank>
926

> <Conf_Id>
22

> <Delta U+W>
0.000

> <U+W>
-3.131

> <U>
-0.154

> <W>
-2.978

> <W(PB)>
-4.579

> <W(SA)>
1.601

> <Valence>
6.333

> <Coulomb>
-7.439

> <VdW>
0.952

> <VdW6>
-2.120

> <VdW12>
3.072

> <Bond>
0.065

> <Angle>
0.931

> <Pdih>
5.338

> <Idih>
0.000

> <Tether>
0.000

$$$$
VeraChem MOL file


 13 13  0  0  0  0  0  0  0  0999 V2000     
   20.2101   19.0572   21.0683 C   0  0  0  0  0  0  0  0  0  0  0  0
   20.6720   18.1304   20.7032 H   0  0  0  0  0  0  0  0  0  0  0  0
   20.4162   19.8586   20.3488 H   0  0  0  0  0  0  0  0  0  0  0  0
   20.5045   19.3884   22.5686 C   0  0  0  0  0  0  0  0  0  0  0  0
   20.3372   20.4362   22.8478 H   0  0  0  0  0  0  0  0  0  0  0  0
   21.4825   19.0739   22.9489 H   0  0  0  0  0  0  0  0  0  0  0  0
   19.3128   18.4355   22.8865 C   0  0  0  0  0  0  0  0  0  0  0  0
   19.5853   17.3713   22.9038 H   0  0  0  0  0  0  0  0  0  0  0  0
   18.7211   18.9103   21.5251 C   0  0  0  0  0  0  0  0  0  0  0  0
   18.1610   19.8523   21.5769 H   0  0  0  0  0  0  0  0  0  0  0  0
   18.1196   18.1720   20.9838 H   0  0  0  0  0  0  0  0  0  0  0  0
   18.5552   18.7765   24.0242 O   0  0  0  0  0  0  0  0  0  0  0  0
   19.1046   18.5718   24.8113 H   0  0  0  0  0  0  0  0  0  0  0  0
  1  2  1  0  0  0  0
  1  3  1  0  0  0  0
  1  4  1  0  0  0  0
  4  5  1  0  0  0  0
  4  6  1  0  0  0  0
  4  7  1  0  0  0  0
  7  8  1  0  0  0  0
  1  9  1  0  0  0  0
  7  9  1  0  0  0  0
  9 10  1  0  0  0  0
  9 11  1  0  0  0  0
  7 12  1  0  0  0  0
 12 13  1  0  0  0  0
M  END
> <VConfSearch Rank>
927

> <Conf_Id>
19

> <Delta U+W>
-0.011

> <U+W>
-3.142

> <U>
-0.154

> <W>
-2.989

> <W(PB)>
-4.588

> <W(SA)>
1.599

> <Valence>
6.334

> <Coulomb>
-7.439

> <VdW>
0.951

> <VdW6>
-2.120

> <VdW12>
3.072

> <Bond>
0.065

> <Angle>
0.930

> <Pdih>
5.339

> <Idih>
0.000

> <Tether>
0.000

$$$$
VeraChem MOL file


 13 13  0  0  0  0  0  0  0  0999 V2000     
   20.2918   18.1297   21.8020 C   0  0  0  0  0  0  0  0  0  0  0  0
   20.4739   17.5239   20.9066 H   0  0  0  0  0  0  0  0  0  0  0  0
   21.0198   17.8447   22.5727 H   0  0  0  0  0  0  0  0  0  0  0  0
   18.8098   18.1937   22.3003 C   0  0  0  0  0  0  0  0  0  0  0  0
   18.0586   18.1149   21.5052 H   0  0  0  0  0  0  0  0  0  0  0  0
   18.5423   17.5000   23.1051 H   0  0  0  0  0  0  0  0  0  0  0  0
   19.1215   19.6574   22.7426 C   0  0  0  0  0  0  0  0  0  0  0  0
   18.2850   20.3584   22.6250 H   0  0  0  0  0  0  0  0  0  0  0  0
   20.1561   19.6719   21.5741 C   0  0  0  0  0  0  0  0  0  0  0  0
   21.0623   20.2640   21.7428 H   0  0  0  0  0  0  0  0  0  0  0  0
   19.7315   19.9514   20.6022 H   0  0  0  0  0  0  0  0  0  0  0  0
   19.6790   19.7821   24.0356 O   0  0  0  0  0  0  0  0  0  0  0  0
   19.9900   20.7076   24.1300 H   0  0  0  0  0  0  0  0  0  0  0  0
  1  2  1  0  0  0  0
  1  3  1  0  0  0  0
  1  4  1  0  0  0  0
  4  5  1  0  0  0  0
  4  6  1  0  0  0  0
  4  7  1  0  0  0  0
  7  8  1  0  0  0  0
  1  9  1  0  0  0  0
  7  9  1  0  0  0  0
  9 10  1  0  0  0  0
  9 11  1  0  0  0  0
  7 12  1  0  0  0  0
 12 13  1  0  0  0  0
M  END
> <VConfSearch Rank>
928

> <Conf_Id>
20

> <Delta U+W>
1.030

> <U+W>
-2.101

> <U>
0.841

> <W>
-2.942

> <W(PB)>
-4.530

> <W(SA)>
1.587

> <Valence>
6.736

> <Coulomb>
-7.246

> <VdW>
1.352

> <VdW6>
-2.500

> <VdW12>
3.851

> <Bond>
0.063

> <Angle>
0.687

> <Pdih>
5.986

> <Idih>
0.000

> <Tether>
0.000

$$$$
VeraChem MOL file


 13 13  0  0  0  0  0  0  0  0999 V2000     
   20.1831   18.5329   23.3416 C   0  0  0  0  0  0  0  0  0  0  0  0
   19.6097   18.7877   24.2427 H   0  0  0  0  0  0  0  0  0  0  0  0
   21.0549   17.9376   23.6382 H   0  0  0  0  0  0  0  0  0  0  0  0
   20.4669   19.7376   22.3847 C   0  0  0  0  0  0  0  0  0  0  0  0
   20.5957   20.7142   22.8642 H   0  0  0  0  0  0  0  0  0  0  0  0
   21.2942   19.5786   21.6821 H   0  0  0  0  0  0  0  0  0  0  0  0
   19.0497   19.4508   21.8031 C   0  0  0  0  0  0  0  0  0  0  0  0
   18.2324   19.9019   22.3822 H   0  0  0  0  0  0  0  0  0  0  0  0
   19.3287   17.9602   22.1629 C   0  0  0  0  0  0  0  0  0  0  0  0
   19.9016   17.4040   21.4107 H   0  0  0  0  0  0  0  0  0  0  0  0
   18.4522   17.3672   22.4465 H   0  0  0  0  0  0  0  0  0  0  0  0
   18.8933   19.7223   20.4307 O   0  0  0  0  0  0  0  0  0  0  0  0
   19.6461   19.2978   19.9683 H   0  0  0  0  0  0  0  0  0  0  0  0
  1  2  1  0  0  0  0
  1  3  1  0  0  0  0
  1  4  1  0  0  0  0
  4  5  1  0  0  0  0
  4  6  1  0  0  0  0
  4  7  1  0  0  0  0
  7  8  1  0  0  0  0
  1  9  1  0  0  0  0
  7  9  1  0  0  0  0
  9 10  1  0  0  0  0
  9 11  1  0  0  0  0
  7 12  1  0  0  0  0
 12 13  1  0  0  0  0
M  END
> <VConfSearch Rank>
929

> <Conf_Id>
24

> <Delta U+W>
0.356

> <U+W>
-2.775

> <U>
-0.184

> <W>
-2.591

> <W(PB)>
-4.184

> <W(SA)>
1.593

> <Valence>
6.840

> <Coulomb>
-7.916

> <VdW>
0.893

> <VdW6>
-2.167

> <VdW12>
3.060

> <Bond>
0.059

> <Angle>
0.918

> <Pdih>
5.862

> <Idih>
0.000

> <Tether>
0.000

$$$$
VeraChem MOL file


 13 13  0  0  0  0  0  0  0  0999 V2000     
   20.3140   18.0664   21.9583 C   0  0  0  0  0  0  0  0  0  0  0  0
   21.2150   17.6948   21.4557 H   0  0  0  0  0  0  0  0  0  0  0  0
   19.7909   17.2127   22.4076 H   0  0  0  0  0  0  0  0  0  0  0  0
   19.4075   19.0256   21.1168 C   0  0  0  0  0  0  0  0  0  0  0  0
   19.9497   19.6338   20.3826 H   0  0  0  0  0  0  0  0  0  0  0  0
   18.5470   18.5643   20.6192 H   0  0  0  0  0  0  0  0  0  0  0  0
   19.1044   19.7653   22.4565 C   0  0  0  0  0  0  0  0  0  0  0  0
   18.9909   20.8532   22.3666 H   0  0  0  0  0  0  0  0  0  0  0  0
   20.5185   19.2899   22.9129 C   0  0  0  0  0  0  0  0  0  0  0  0
   21.3331   19.9630   22.6192 H   0  0  0  0  0  0  0  0  0  0  0  0
   20.6251   19.0588   23.9787 H   0  0  0  0  0  0  0  0  0  0  0  0
   18.0313   19.2282   23.1993 O   0  0  0  0  0  0  0  0  0  0  0  0
   18.1846   18.2619   23.2467 H   0  0  0  0  0  0  0  0  0  0  0  0
  1  2  1  0  0  0  0
  1  3  1  0  0  0  0
  1  4  1  0  0  0  0
  4  5  1  0  0  0  0
  4  6  1  0  0  0  0
  4  7  1  0  0  0  0
  7  8  1  0  0  0  0
  1  9  1  0  0  0  0
  7  9  1  0  0  0  0
  9 10  1  0  0  0  0
  9 11  1  0  0  0  0
  7 12  1  0  0  0  0
 12 13  1  0  0  0  0
M  END
> <VConfSearch Rank>
930

> <Conf_Id>
44

> <Delta U+W>
0.823

> <U+W>
-2.308

> <U>
0.039

> <W>
-2.348

> <W(PB)>
-3.918

> <W(SA)>
1.571

> <Valence>
7.320

> <Coulomb>
-8.530

> <VdW>
1.249

> <VdW6>
-2.615

> <VdW12>
3.864

> <Bond>
0.056

> <Angle>
0.694

> <Pdih>
6.570

> <Idih>
0.000

> <Tether>
0.000

$$$$
VeraChem MOL file


 13 13  0  0  0  0  0  0  0  0999 V2000     
   18.8865   18.0067   22.4898 C   0  0  0  0  0  0  0  0  0  0  0  0
   18.1469   17.8234   21.6993 H   0  0  0  0  0  0  0  0  0  0  0  0
   18.7908   17.2207   23.2484 H   0  0  0  0  0  0  0  0  0  0  0  0
   18.9225   19.4765   23.0243 C   0  0  0  0  0  0  0  0  0  0  0  0
   17.9673   20.0128   23.0295 H   0  0  0  0  0  0  0  0  0  0  0  0
   19.4007   19.5979   24.0042 H   0  0  0  0  0  0  0  0  0  0  0  0
   19.8557   19.7664   21.8103 C   0  0  0  0  0  0  0  0  0  0  0  0
   19.3160   19.9563   20.8723 H   0  0  0  0  0  0  0  0  0  0  0  0
   20.3363   18.2931   21.9763 C   0  0  0  0  0  0  0  0  0  0  0  0
   20.6315   17.7799   21.0545 H   0  0  0  0  0  0  0  0  0  0  0  0
   21.1242   18.1525   22.7268 H   0  0  0  0  0  0  0  0  0  0  0  0
   20.8404   20.7498   22.0289 O   0  0  0  0  0  0  0  0  0  0  0  0
   21.4541   20.7218   21.2635 H   0  0  0  0  0  0  0  0  0  0  0  0
  1  2  1  0  0  0  0
  1  3  1  0  0  0  0
  1  4  1  0  0  0  0
  4  5  1  0  0  0  0
  4  6  1  0  0  0  0
  4  7  1  0  0  0  0
  7  8  1  0  0  0  0
  1  9  1  0  0  0  0
  7  9  1  0  0  0  0
  9 10  1  0  0  0  0
  9 11  1  0  0  0  0
  7 12  1  0  0  0  0
 12 13  1  0  0  0  0
M  END
> <VConfSearch Rank>
931

> <Conf_Id>
22

> <Delta U+W>
0.000

> <U+W>
-3.131

> <U>
-0.154

> <W>
-2.978

> <W(PB)>
-4.579

> <W(SA)>
1.601

> <Valence>
6.333

> <Coulomb>
-7.439

> <VdW>
0.952

> <VdW6>
-2.120

> <VdW12>
3.072

> <Bond>
0.065

> <Angle>
0.931

> <Pdih>
5.338

> <Idih>
0.000

> <Tether>
0.000

$$$$
VeraChem MOL file


 13 13  0  0  0  0  0  0  0  0999 V2000     
   19.9816   19.6632   21.2098 C   0  0  0  0  0  0  0  0  0  0  0  0
   19.1986   19.7430   20.4442 H   0  0  0  0  0  0  0  0  0  0  0  0
   20.8732   20.1943   20.8559 H   0  0  0  0  0  0  0  0  0  0  0  0
   20.2158   18.2169   21.7584 C   0  0  0  0  0  0  0  0  0  0  0  0
   21.1811   18.0673   22.2580 H   0  0  0  0  0  0  0  0  0  0  0  0
   20.0566   17.3996   21.0465 H   0  0  0  0  0  0  0  0  0  0  0  0
   19.0285   18.5209   22.7213 C   0  0  0  0  0  0  0  0  0  0  0  0
   18.0385   18.3607   22.2728 H   0  0  0  0  0  0  0  0  0  0  0  0
   19.5123   20.0013   22.6634 C   0  0  0  0  0  0  0  0  0  0  0  0
   20.3218   20.2425   23.3635 H   0  0  0  0  0  0  0  0  0  0  0  0
   18.7295   20.7621   22.7543 H   0  0  0  0  0  0  0  0  0  0  0  0
   19.1085   17.9103   23.9883 O   0  0  0  0  0  0  0  0  0  0  0  0
   18.9362   16.9525   23.8607 H   0  0  0  0  0  0  0  0  0  0  0  0
  1  2  1  0  0  0  0
  1  3  1  0  0  0  0
  1  4  1  0  0  0  0
  4  5  1  0  0  0  0
  4  6  1  0  0  0  0
  4  7  1  0  0  0  0
  7  8  1  0  0  0  0
  1  9  1  0  0  0  0
  7  9  1  0  0  0  0
  9 10  1  0  0  0  0
  9 11  1  0  0  0  0
  7 12  1  0  0  0  0
 12 13  1  0  0  0  0
M  END
> <VConfSearch Rank>
932

> <Conf_Id>
19

> <Delta U+W>
-0.011

> <U+W>
-3.142

> <U>
-0.154

> <W>
-2.989

> <W(PB)>
-4.588

> <W(SA)>
1.599

> <Valence>
6.334

> <Coulomb>
-7.439

> <VdW>
0.951

> <VdW6>
-2.120

> <VdW12>
3.072

> <Bond>
0.065

> <Angle>
0.930

> <Pdih>
5.339

> <Idih>
0.000

> <Tether>
0.000

$$$$
VeraChem MOL file


 13 13  0  0  0  0  0  0  0  0999 V2000     
   18.9567   20.0834   22.3100 C   0  0  0  0  0  0  0  0  0  0  0  0
   18.0809   20.5722   22.7528 H   0  0  0  0  0  0  0  0  0  0  0  0
   19.4827   20.8109   21.6781 H   0  0  0  0  0  0  0  0  0  0  0  0
   18.7013   18.6973   21.6300 C   0  0  0  0  0  0  0  0  0  0  0  0
   17.8911   18.1116   22.0811 H   0  0  0  0  0  0  0  0  0  0  0  0
   18.5595   18.7131   20.5437 H   0  0  0  0  0  0  0  0  0  0  0  0
   20.1280   18.2998   22.1219 C   0  0  0  0  0  0  0  0  0  0  0  0
   20.2318   17.2491   22.4219 H   0  0  0  0  0  0  0  0  0  0  0  0
   19.8780   19.2943   23.2986 C   0  0  0  0  0  0  0  0  0  0  0  0
   20.7583   19.8320   23.6677 H   0  0  0  0  0  0  0  0  0  0  0  0
   19.3528   18.8536   24.1547 H   0  0  0  0  0  0  0  0  0  0  0  0
   21.1798   18.6599   21.2488 O   0  0  0  0  0  0  0  0  0  0  0  0
   22.0208   18.5224   21.7347 H   0  0  0  0  0  0  0  0  0  0  0  0
  1  2  1  0  0  0  0
  1  3  1  0  0  0  0
  1  4  1  0  0  0  0
  4  5  1  0  0  0  0
  4  6  1  0  0  0  0
  4  7  1  0  0  0  0
  7  8  1  0  0  0  0
  1  9  1  0  0  0  0
  7  9  1  0  0  0  0
  9 10  1  0  0  0  0
  9 11  1  0  0  0  0
  7 12  1  0  0  0  0
 12 13  1  0  0  0  0
M  END
> <VConfSearch Rank>
933

> <Conf_Id>
20

> <Delta U+W>
1.030

> <U+W>
-2.101

> <U>
0.841

> <W>
-2.942

> <W(PB)>
-4.530

> <W(SA)>
1.587

> <Valence>
6.736

> <Coulomb>
-7.246

> <VdW>
1.352

> <VdW6>
-2.500

> <VdW12>
3.851

> <Bond>
0.063

> <Angle>
0.687

> <Pdih>
5.986

> <Idih>
0.000

> <Tether>
0.000

$$$$
VeraChem MOL file


 13 13  0  0  0  0  0  0  0  0999 V2000     
   20.4927   18.0902   22.7966 C   0  0  0  0  0  0  0  0  0  0  0  0
   21.5566   18.0615   22.5266 H   0  0  0  0  0  0  0  0  0  0  0  0
   20.3033   17.3213   23.5551 H   0  0  0  0  0  0  0  0  0  0  0  0
   19.5096   18.1122   21.5799 C   0  0  0  0  0  0  0  0  0  0  0  0
   19.8384   17.5732   20.6846 H   0  0  0  0  0  0  0  0  0  0  0  0
   18.4823   17.8084   21.8163 H   0  0  0  0  0  0  0  0  0  0  0  0
   19.7511   19.6519   21.5697 C   0  0  0  0  0  0  0  0  0  0  0  0
   20.6631   19.9549   21.0376 H   0  0  0  0  0  0  0  0  0  0  0  0
   19.9361   19.5180   23.1115 C   0  0  0  0  0  0  0  0  0  0  0  0
   19.0042   19.5284   23.6901 H   0  0  0  0  0  0  0  0  0  0  0  0
   20.6416   20.2205   23.5687 H   0  0  0  0  0  0  0  0  0  0  0  0
   18.6545   20.4330   21.1582 O   0  0  0  0  0  0  0  0  0  0  0  0
   17.8752   20.1193   21.6632 H   0  0  0  0  0  0  0  0  0  0  0  0
  1  2  1  0  0  0  0
  1  3  1  0  0  0  0
  1  4  1  0  0  0  0
  4  5  1  0  0  0  0
  4  6  1  0  0  0  0
  4  7  1  0  0  0  0
  7  8  1  0  0  0  0
  1  9  1  0  0  0  0
  7  9  1  0  0  0  0
  9 10  1  0  0  0  0
  9 11  1  0  0  0  0
  7 12  1  0  0  0  0
 12 13  1  0  0  0  0
M  END
> <VConfSearch Rank>
934

> <Conf_Id>
24

> <Delta U+W>
0.356

> <U+W>
-2.775

> <U>
-0.184

> <W>
-2.591

> <W(PB)>
-4.184

> <W(SA)>
1.593

> <Valence>
6.840

> <Coulomb>
-7.916

> <VdW>
0.893

> <VdW6>
-2.167

> <VdW12>
3.060

> <Bond>
0.059

> <Angle>
0.918

> <Pdih>
5.862

> <Idih>
0.000

> <Tether>
0.000

$$$$
VeraChem MOL file


 13 13  0  0  0  0  0  0  0  0999 V2000     
   20.4206   19.6683   22.7094 C   0  0  0  0  0  0  0  0  0  0  0  0
   20.8637   20.6713   22.7079 H   0  0  0  0  0  0  0  0  0  0  0  0
   20.8594   19.0968   23.5371 H   0  0  0  0  0  0  0  0  0  0  0  0
   20.4047   18.9253   21.3318 C   0  0  0  0  0  0  0  0  0  0  0  0
   20.3288   19.5873   20.4605 H   0  0  0  0  0  0  0  0  0  0  0  0
   21.2187   18.2127   21.1577 H   0  0  0  0  0  0  0  0  0  0  0  0
   19.0443   18.3095   21.7835 C   0  0  0  0  0  0  0  0  0  0  0  0
   18.3107   18.1725   20.9787 H   0  0  0  0  0  0  0  0  0  0  0  0
   18.8587   19.6104   22.6244 C   0  0  0  0  0  0  0  0  0  0  0  0
   18.4037   20.4403   22.0701 H   0  0  0  0  0  0  0  0  0  0  0  0
   18.3270   19.4940   23.5755 H   0  0  0  0  0  0  0  0  0  0  0  0
   19.1542   17.1249   22.5427 O   0  0  0  0  0  0  0  0  0  0  0  0
   19.8175   17.3047   23.2406 H   0  0  0  0  0  0  0  0  0  0  0  0
  1  2  1  0  0  0  0
  1  3  1  0  0  0  0
  1  4  1  0  0  0  0
  4  5  1  0  0  0  0
  4  6  1  0  0  0  0
  4  7  1  0  0  0  0
  7  8  1  0  0  0  0
  1  9  1  0  0  0  0
  7  9  1  0  0  0  0
  9 10  1  0  0  0  0
  9 11  1  0  0  0  0
  7 12  1  0  0  0  0
 12 13  1  0  0  0  0
M  END
> <VConfSearch Rank>
935

> <Conf_Id>
44

> <Delta U+W>
0.823

> <U+W>
-2.308

> <U>
0.039

> <W>
-2.348

> <W(PB)>
-3.918

> <W(SA)>
1.571

> <Valence>
7.320

> <Coulomb>
-8.530

> <VdW>
1.249

> <VdW6>
-2.615

> <VdW12>
3.864

> <Bond>
0.056

> <Angle>
0.694

> <Pdih>
6.570

> <Idih>
0.000

> <Tether>
0.000

$$$$
VeraChem MOL file


 13 13  0  0  0  0  0  0  0  0999 V2000     
   20.7364   19.8105   22.1543 C   0  0  0  0  0  0  0  0  0  0  0  0
   21.6650   19.2478   21.9914 H   0  0  0  0  0  0  0  0  0  0  0  0
   20.9689   20.8820   22.1405 H   0  0  0  0  0  0  0  0  0  0  0  0
   19.8711   19.3108   23.3580 C   0  0  0  0  0  0  0  0  0  0  0  0
   20.4211   18.8980   24.2107 H   0  0  0  0  0  0  0  0  0  0  0  0
   19.1372   20.0368   23.7294 H   0  0  0  0  0  0  0  0  0  0  0  0
   19.2955   18.2673   22.3537 C   0  0  0  0  0  0  0  0  0  0  0  0
   19.9242   17.3742   22.2342 H   0  0  0  0  0  0  0  0  0  0  0  0
   19.5317   19.3573   21.2651 C   0  0  0  0  0  0  0  0  0  0  0  0
   19.7829   18.9875   20.2649 H   0  0  0  0  0  0  0  0  0  0  0  0
   18.7247   20.0953   21.1764 H   0  0  0  0  0  0  0  0  0  0  0  0
   17.9499   17.9073   22.5643 O   0  0  0  0  0  0  0  0  0  0  0  0
   17.6639   17.3833   21.7853 H   0  0  0  0  0  0  0  0  0  0  0  0
  1  2  1  0  0  0  0
  1  3  1  0  0  0  0
  1  4  1  0  0  0  0
  4  5  1  0  0  0  0
  4  6  1  0  0  0  0
  4  7  1  0  0  0  0
  7  8  1  0  0  0  0
  1  9  1  0  0  0  0
  7  9  1  0  0  0  0
  9 10  1  0  0  0  0
  9 11  1  0  0  0  0
  7 12  1  0  0  0  0
 12 13  1  0  0  0  0
M  END
> <VConfSearch Rank>
936

> <Conf_Id>
22

> <Delta U+W>
0.000

> <U+W>
-3.131

> <U>
-0.154

> <W>
-2.978

> <W(PB)>
-4.579

> <W(SA)>
1.601

> <Valence>
6.333

> <Coulomb>
-7.439

> <VdW>
0.952

> <VdW6>
-2.120

> <VdW12>
3.072

> <Bond>
0.065

> <Angle>
0.931

> <Pdih>
5.338

> <Idih>
0.000

> <Tether>
0.000

$$$$
VeraChem MOL file


 13 13  0  0  0  0  0  0  0  0999 V2000     
   18.9813   19.2911   23.3358 C   0  0  0  0  0  0  0  0  0  0  0  0
   17.9915   18.8257   23.4320 H   0  0  0  0  0  0  0  0  0  0  0  0
   19.1259   19.9836   24.1735 H   0  0  0  0  0  0  0  0  0  0  0  0
   19.3032   19.8568   21.9132 C   0  0  0  0  0  0  0  0  0  0  0  0
   20.1168   20.5924   21.8861 H   0  0  0  0  0  0  0  0  0  0  0  0
   18.4521   20.2511   21.3472 H   0  0  0  0  0  0  0  0  0  0  0  0
   19.7352   18.4003   21.5650 C   0  0  0  0  0  0  0  0  0  0  0  0
   18.9006   17.7419   21.2875 H   0  0  0  0  0  0  0  0  0  0  0  0
   20.1516   18.2894   23.0628 C   0  0  0  0  0  0  0  0  0  0  0  0
   21.1523   18.6796   23.2863 H   0  0  0  0  0  0  0  0  0  0  0  0
   20.0523   17.2955   23.5124 H   0  0  0  0  0  0  0  0  0  0  0  0
   20.7894   18.2899   20.6371 O   0  0  0  0  0  0  0  0  0  0  0  0
   20.4300   18.5371   19.7580 H   0  0  0  0  0  0  0  0  0  0  0  0
  1  2  1  0  0  0  0
  1  3  1  0  0  0  0
  1  4  1  0  0  0  0
  4  5  1  0  0  0  0
  4  6  1  0  0  0  0
  4  7  1  0  0  0  0
  7  8  1  0  0  0  0
  1  9  1  0  0  0  0
  7  9  1  0  0  0  0
  9 10  1  0  0  0  0
  9 11  1  0  0  0  0
  7 12  1  0  0  0  0
 12 13  1  0  0  0  0
M  END
> <VConfSearch Rank>
937

> <Conf_Id>
19

> <Delta U+W>
-0.011

> <U+W>
-3.142

> <U>
-0.154

> <W>
-2.989

> <W(PB)>
-4.588

> <W(SA)>
1.599

> <Valence>
6.334

> <Coulomb>
-7.439

> <VdW>
0.951

> <VdW6>
-2.120

> <VdW12>
3.072

> <Bond>
0.065

> <Angle>
0.930

> <Pdih>
5.339

> <Idih>
0.000

> <Tether>
0.000

$$$$
VeraChem MOL file


 13 13  0  0  0  0  0  0  0  0999 V2000     
   18.4689   18.6990   22.0856 C   0  0  0  0  0  0  0  0  0  0  0  0
   17.6035   18.1790   22.5129 H   0  0  0  0  0  0  0  0  0  0  0  0
   18.1784   19.1271   21.1173 H   0  0  0  0  0  0  0  0  0  0  0  0
   19.8126   17.8971   22.0643 C   0  0  0  0  0  0  0  0  0  0  0  0
   19.9289   17.1823   22.8879 H   0  0  0  0  0  0  0  0  0  0  0  0
   20.0559   17.3907   21.1237 H   0  0  0  0  0  0  0  0  0  0  0  0
   20.5233   19.2662   22.3007 C   0  0  0  0  0  0  0  0  0  0  0  0
   21.4147   19.2143   22.9391 H   0  0  0  0  0  0  0  0  0  0  0  0
   19.2150   19.6916   23.0379 C   0  0  0  0  0  0  0  0  0  0  0  0
   18.9344   20.7468   22.9472 H   0  0  0  0  0  0  0  0  0  0  0  0
   19.1859   19.4118   24.0980 H   0  0  0  0  0  0  0  0  0  0  0  0
   20.8116   19.9974   21.1258 O   0  0  0  0  0  0  0  0  0  0  0  0
   21.0885   20.8965   21.4036 H   0  0  0  0  0  0  0  0  0  0  0  0
  1  2  1  0  0  0  0
  1  3  1  0  0  0  0
  1  4  1  0  0  0  0
  4  5  1  0  0  0  0
  4  6  1  0  0  0  0
  4  7  1  0  0  0  0
  7  8  1  0  0  0  0
  1  9  1  0  0  0  0
  7  9  1  0  0  0  0
  9 10  1  0  0  0  0
  9 11  1  0  0  0  0
  7 12  1  0  0  0  0
 12 13  1  0  0  0  0
M  END
> <VConfSearch Rank>
938

> <Conf_Id>
20

> <Delta U+W>
1.030

> <U+W>
-2.101

> <U>
0.841

> <W>
-2.942

> <W(PB)>
-4.530

> <W(SA)>
1.587

> <Valence>
6.736

> <Coulomb>
-7.246

> <VdW>
1.352

> <VdW6>
-2.500

> <VdW12>
3.851

> <Bond>
0.063

> <Angle>
0.687

> <Pdih>
5.986

> <Idih>
0.000

> <Tether>
0.000

$$$$
VeraChem MOL file


 13 13  0  0  0  0  0  0  0  0999 V2000     
   18.8595   19.4575   22.9876 C   0  0  0  0  0  0  0  0  0  0  0  0
   18.1213   18.7794   23.4357 H   0  0  0  0  0  0  0  0  0  0  0  0
   18.6514   20.4778   23.3313 H   0  0  0  0  0  0  0  0  0  0  0  0
   19.0606   19.2792   21.4464 C   0  0  0  0  0  0  0  0  0  0  0  0
   18.1768   18.9702   20.8774 H   0  0  0  0  0  0  0  0  0  0  0  0
   19.5209   20.1382   20.9427 H   0  0  0  0  0  0  0  0  0  0  0  0
   20.0504   18.1385   21.8316 C   0  0  0  0  0  0  0  0  0  0  0  0
   19.5613   17.1765   22.0365 H   0  0  0  0  0  0  0  0  0  0  0  0
   20.3445   18.9807   23.1096 C   0  0  0  0  0  0  0  0  0  0  0  0
   21.0917   19.7729   22.9777 H   0  0  0  0  0  0  0  0  0  0  0  0
   20.5946   18.4081   24.0095 H   0  0  0  0  0  0  0  0  0  0  0  0
   21.1409   17.9641   20.9585 O   0  0  0  0  0  0  0  0  0  0  0  0
   21.5348   18.8498   20.8135 H   0  0  0  0  0  0  0  0  0  0  0  0
  1  2  1  0  0  0  0
  1  3  1  0  0  0  0
  1  4  1  0  0  0  0
  4  5  1  0  0  0  0
  4  6  1  0  0  0  0
  4  7  1  0  0  0  0
  7  8  1  0  0  0  0
  1  9  1  0  0  0  0
  7  9  1  0  0  0  0
  9 10  1  0  0  0  0
  9 11  1  0  0  0  0
  7 12  1  0  0  0  0
 12 13  1  0  0  0  0
M  END
> <VConfSearch Rank>
939

> <Conf_Id>
24

> <Delta U+W>
0.356

> <U+W>
-2.775

> <U>
-0.184

> <W>
-2.591

> <W(PB)>
-4.184

> <W(SA)>
1.593

> <Valence>
6.840

> <Coulomb>
-7.916

> <VdW>
0.893

> <VdW6>
-2.167

> <VdW12>
3.060

> <Bond>
0.059

> <Angle>
0.918

> <Pdih>
5.862

> <Idih>
0.000

> <Tether>
0.000

$$$$
VeraChem MOL file


 13 13  0  0  0  0  0  0  0  0999 V2000     
   19.8917   20.0400   21.9211 C   0  0  0  0  0  0  0  0  0  0  0  0
   19.8697   21.0869   22.2466 H   0  0  0  0  0  0  0  0  0  0  0  0
   20.2569   20.0063   20.8868 H   0  0  0  0  0  0  0  0  0  0  0  0
   18.5893   19.2134   22.1868 C   0  0  0  0  0  0  0  0  0  0  0  0
   18.0244   19.5296   23.0723 H   0  0  0  0  0  0  0  0  0  0  0  0
   17.8942   19.1228   21.3446 H   0  0  0  0  0  0  0  0  0  0  0  0
   19.5257   17.9901   22.4328 C   0  0  0  0  0  0  0  0  0  0  0  0
   19.1854   17.2992   23.2147 H   0  0  0  0  0  0  0  0  0  0  0  0
   20.5874   19.0342   22.8982 C   0  0  0  0  0  0  0  0  0  0  0  0
   20.5124   19.3065   23.9580 H   0  0  0  0  0  0  0  0  0  0  0  0
   21.6314   18.7876   22.6751 H   0  0  0  0  0  0  0  0  0  0  0  0
   19.8747   17.2692   21.2707 O   0  0  0  0  0  0  0  0  0  0  0  0
   20.1686   17.9322   20.6123 H   0  0  0  0  0  0  0  0  0  0  0  0
  1  2  1  0  0  0  0
  1  3  1  0  0  0  0
  1  4  1  0  0  0  0
  4  5  1  0  0  0  0
  4  6  1  0  0  0  0
  4  7  1  0  0  0  0
  7  8  1  0  0  0  0
  1  9  1  0  0  0  0
  7  9  1  0  0  0  0
  9 10  1  0  0  0  0
  9 11  1  0  0  0  0
  7 12  1  0  0  0  0
 12 13  1  0  0  0  0
M  END
> <VConfSearch Rank>
940

> <Conf_Id>
44

> <Delta U+W>
0.823

> <U+W>
-2.308

> <U>
0.039

> <W>
-2.348

> <W(PB)>
-3.918

> <W(SA)>
1.571

> <Valence>
7.320

> <Coulomb>
-8.530

> <VdW>
1.249

> <VdW6>
-2.615

> <VdW12>
3.864

> <Bond>
0.056

> <Angle>
0.694

> <Pdih>
6.570

> <Idih>
0.000

> <Tether>
0.000

$$$$
VeraChem MOL file


 13 13  0  0  0  0  0  0  0  0999 V2000     
   19.0729   18.8261   21.0902 C   0  0  0  0  0  0  0  0  0  0  0  0
   18.2313   19.5044   20.8974 H   0  0  0  0  0  0  0  0  0  0  0  0
   19.2097   18.1799   20.2150 H   0  0  0  0  0  0  0  0  0  0  0  0
   19.0266   18.1037   22.4770 C   0  0  0  0  0  0  0  0  0  0  0  0
   18.0303   17.8690   22.8671 H   0  0  0  0  0  0  0  0  0  0  0  0
   19.6543   17.2068   22.5494 H   0  0  0  0  0  0  0  0  0  0  0  0
   19.6858   19.3998   23.0377 C   0  0  0  0  0  0  0  0  0  0  0  0
   18.9681   20.2021   23.2575 H   0  0  0  0  0  0  0  0  0  0  0  0
   20.3621   19.5220   21.6388 C   0  0  0  0  0  0  0  0  0  0  0  0
   20.5473   20.5421   21.2849 H   0  0  0  0  0  0  0  0  0  0  0  0
   21.2827   18.9360   21.5249 H   0  0  0  0  0  0  0  0  0  0  0  0
   20.5680   19.2076   24.1190 O   0  0  0  0  0  0  0  0  0  0  0  0
   21.0337   20.0584   24.2689 H   0  0  0  0  0  0  0  0  0  0  0  0
  1  2  1  0  0  0  0
  1  3  1  0  0  0  0
  1  4  1  0  0  0  0
  4  5  1  0  0  0  0
  4  6  1  0  0  0  0
  4  7  1  0  0  0  0
  7  8  1  0  0  0  0
  1  9  1  0  0  0  0
  7  9  1  0  0  0  0
  9 10  1  0  0  0  0
  9 11  1  0  0  0  0
  7 12  1  0  0  0  0
 12 13  1  0  0  0  0
M  END
> <VConfSearch Rank>
941

> <Conf_Id>
22

> <Delta U+W>
0.000

> <U+W>
-3.131

> <U>
-0.154

> <W>
-2.978

> <W(PB)>
-4.579

> <W(SA)>
1.601

> <Valence>
6.333

> <Coulomb>
-7.439

> <VdW>
0.952

> <VdW6>
-2.120

> <VdW12>
3.072

> <Bond>
0.065

> <Angle>
0.931

> <Pdih>
5.338

> <Idih>
0.000

> <Tether>
0.000

$$$$
VeraChem MOL file


 13 13  0  0  0  0  0  0  0  0999 V2000     
   18.9270   19.7969   21.5466 C   0  0  0  0  0  0  0  0  0  0  0  0
   18.8909   19.5678   20.4733 H   0  0  0  0  0  0  0  0  0  0  0  0
   18.3947   20.7394   21.7218 H   0  0  0  0  0  0  0  0  0  0  0  0
   20.3464   19.6788   22.1937 C   0  0  0  0  0  0  0  0  0  0  0  0
   20.4596   20.2063   23.1491 H   0  0  0  0  0  0  0  0  0  0  0  0
   21.1937   19.9336   21.5477 H   0  0  0  0  0  0  0  0  0  0  0  0
   20.0257   18.1594   22.3270 C   0  0  0  0  0  0  0  0  0  0  0  0
   20.2205   17.5808   21.4136 H   0  0  0  0  0  0  0  0  0  0  0  0
   18.5405   18.6052   22.4834 C   0  0  0  0  0  0  0  0  0  0  0  0
   18.2581   18.8949   23.5032 H   0  0  0  0  0  0  0  0  0  0  0  0
   17.7905   17.9078   22.0946 H   0  0  0  0  0  0  0  0  0  0  0  0
   20.5848   17.5218   23.4519 O   0  0  0  0  0  0  0  0  0  0  0  0
   21.5496   17.4418   23.2910 H   0  0  0  0  0  0  0  0  0  0  0  0
  1  2  1  0  0  0  0
  1  3  1  0  0  0  0
  1  4  1  0  0  0  0
  4  5  1  0  0  0  0
  4  6  1  0  0  0  0
  4  7  1  0  0  0  0
  7  8  1  0  0  0  0
  1  9  1  0  0  0  0
  7  9  1  0  0  0  0
  9 10  1  0  0  0  0
  9 11  1  0  0  0  0
  7 12  1  0  0  0  0
 12 13  1  0  0  0  0
M  END
> <VConfSearch Rank>
942

> <Conf_Id>
19

> <Delta U+W>
-0.011

> <U+W>
-3.142

> <U>
-0.154

> <W>
-2.989

> <W(PB)>
-4.588

> <W(SA)>
1.599

> <Valence>
6.334

> <Coulomb>
-7.439

> <VdW>
0.951

> <VdW6>
-2.120

> <VdW12>
3.072

> <Bond>
0.065

> <Angle>
0.930

> <Pdih>
5.339

> <Idih>
0.000

> <Tether>
0.000

$$$$
VeraChem MOL file


 13 13  0  0  0  0  0  0  0  0999 V2000     
   18.6507   19.2250   21.5561 C   0  0  0  0  0  0  0  0  0  0  0  0
   18.2649   19.1550   20.5323 H   0  0  0  0  0  0  0  0  0  0  0  0
   17.8265   19.5093   22.2232 H   0  0  0  0  0  0  0  0  0  0  0  0
   19.9574   20.0654   21.7435 C   0  0  0  0  0  0  0  0  0  0  0  0
   20.6345   20.0524   20.8809 H   0  0  0  0  0  0  0  0  0  0  0  0
   19.8198   21.1036   22.0654 H   0  0  0  0  0  0  0  0  0  0  0  0
   20.3351   19.0514   22.8681 C   0  0  0  0  0  0  0  0  0  0  0  0
   21.4071   18.8271   22.9402 H   0  0  0  0  0  0  0  0  0  0  0  0
   19.5024   18.0110   22.0555 C   0  0  0  0  0  0  0  0  0  0  0  0
   18.9670   17.2588   22.6454 H   0  0  0  0  0  0  0  0  0  0  0  0
   20.0690   17.4994   21.2679 H   0  0  0  0  0  0  0  0  0  0  0  0
   19.8187   19.3619   24.1468 O   0  0  0  0  0  0  0  0  0  0  0  0
   19.9686   18.5792   24.7187 H   0  0  0  0  0  0  0  0  0  0  0  0
  1  2  1  0  0  0  0
  1  3  1  0  0  0  0
  1  4  1  0  0  0  0
  4  5  1  0  0  0  0
  4  6  1  0  0  0  0
  4  7  1  0  0  0  0
  7  8  1  0  0  0  0
  1  9  1  0  0  0  0
  7  9  1  0  0  0  0
  9 10  1  0  0  0  0
  9 11  1  0  0  0  0
  7 12  1  0  0  0  0
 12 13  1  0  0  0  0
M  END
> <VConfSearch Rank>
943

> <Conf_Id>
20

> <Delta U+W>
1.030

> <U+W>
-2.101

> <U>
0.841

> <W>
-2.942

> <W(PB)>
-4.530

> <W(SA)>
1.587

> <Valence>
6.736

> <Coulomb>
-7.246

> <VdW>
1.352

> <VdW6>
-2.500

> <VdW12>
3.851

> <Bond>
0.063

> <Angle>
0.687

> <Pdih>
5.986

> <Idih>
0.000

> <Tether>
0.000

$$$$
VeraChem MOL file


 13 13  0  0  0  0  0  0  0  0999 V2000     
   19.7306   19.5087   23.3672 C   0  0  0  0  0  0  0  0  0  0  0  0
   19.4568   18.8906   24.2324 H   0  0  0  0  0  0  0  0  0  0  0  0
   19.9408   20.5266   23.7167 H   0  0  0  0  0  0  0  0  0  0  0  0
   18.7621   19.3882   22.1446 C   0  0  0  0  0  0  0  0  0  0  0  0
   17.7083   19.2035   22.3807 H   0  0  0  0  0  0  0  0  0  0  0  0
   18.8223   20.2180   21.4297 H   0  0  0  0  0  0  0  0  0  0  0  0
   19.6000   18.1313   21.7610 C   0  0  0  0  0  0  0  0  0  0  0  0
   19.2970   17.2172   22.2895 H   0  0  0  0  0  0  0  0  0  0  0  0
   20.8018   18.8720   22.4214 C   0  0  0  0  0  0  0  0  0  0  0  0
   21.3180   19.5864   21.7683 H   0  0  0  0  0  0  0  0  0  0  0  0
   21.5495   18.2314   22.9019 H   0  0  0  0  0  0  0  0  0  0  0  0
   19.7255   17.8868   20.3803 O   0  0  0  0  0  0  0  0  0  0  0  0
   19.9959   18.7322   19.9643 H   0  0  0  0  0  0  0  0  0  0  0  0
  1  2  1  0  0  0  0
  1  3  1  0  0  0  0
  1  4  1  0  0  0  0
  4  5  1  0  0  0  0
  4  6  1  0  0  0  0
  4  7  1  0  0  0  0
  7  8  1  0  0  0  0
  1  9  1  0  0  0  0
  7  9  1  0  0  0  0
  9 10  1  0  0  0  0
  9 11  1  0  0  0  0
  7 12  1  0  0  0  0
 12 13  1  0  0  0  0
M  END
> <VConfSearch Rank>
944

> <Conf_Id>
24

> <Delta U+W>
0.356

> <U+W>
-2.775

> <U>
-0.184

> <W>
-2.591

> <W(PB)>
-4.184

> <W(SA)>
1.593

> <Valence>
6.840

> <Coulomb>
-7.916

> <VdW>
0.893

> <VdW6>
-2.167

> <VdW12>
3.060

> <Bond>
0.059

> <Angle>
0.918

> <Pdih>
5.862

> <Idih>
0.000

> <Tether>
0.000

$$$$
VeraChem MOL file


 13 13  0  0  0  0  0  0  0  0999 V2000     
   19.6137   19.2764   23.2891 C   0  0  0  0  0  0  0  0  0  0  0  0
   19.2916   20.0551   23.9907 H   0  0  0  0  0  0  0  0  0  0  0  0
   20.0359   18.4436   23.8657 H   0  0  0  0  0  0  0  0  0  0  0  0
   20.4943   19.7592   22.0884 C   0  0  0  0  0  0  0  0  0  0  0  0
   20.2855   20.7833   21.7560 H   0  0  0  0  0  0  0  0  0  0  0  0
   21.5777   19.6459   22.2074 H   0  0  0  0  0  0  0  0  0  0  0  0
   19.7825   18.6581   21.2429 C   0  0  0  0  0  0  0  0  0  0  0  0
   19.5942   18.9306   20.1965 H   0  0  0  0  0  0  0  0  0  0  0  0
   18.5680   18.8607   22.2011 C   0  0  0  0  0  0  0  0  0  0  0  0
   17.8869   19.6646   21.8963 H   0  0  0  0  0  0  0  0  0  0  0  0
   17.9748   17.9654   22.4181 H   0  0  0  0  0  0  0  0  0  0  0  0
   20.3815   17.3820   21.3087 O   0  0  0  0  0  0  0  0  0  0  0  0
   20.5252   17.1930   22.2590 H   0  0  0  0  0  0  0  0  0  0  0  0
  1  2  1  0  0  0  0
  1  3  1  0  0  0  0
  1  4  1  0  0  0  0
  4  5  1  0  0  0  0
  4  6  1  0  0  0  0
  4  7  1  0  0  0  0
  7  8  1  0  0  0  0
  1  9  1  0  0  0  0
  7  9  1  0  0  0  0
  9 10  1  0  0  0  0
  9 11  1  0  0  0  0
  7 12  1  0  0  0  0
 12 13  1  0  0  0  0
M  END
> <VConfSearch Rank>
945

> <Conf_Id>
44

> <Delta U+W>
0.823

> <U+W>
-2.308

> <U>
0.039

> <W>
-2.348

> <W(PB)>
-3.918

> <W(SA)>
1.571

> <Valence>
7.320

> <Coulomb>
-8.530

> <VdW>
1.249

> <VdW6>
-2.615

> <VdW12>
3.864

> <Bond>
0.056

> <Angle>
0.694

> <Pdih>
6.570

> <Idih>
0.000

> <Tether>
0.000

$$$$
VeraChem MOL file


 13 13  0  0  0  0  0  0  0  0999 V2000     
   20.7437   18.3189   22.4894 C   0  0  0  0  0  0  0  0  0  0  0  0
   20.6085   17.2505   22.2753 H   0  0  0  0  0  0  0  0  0  0  0  0
   21.7813   18.4849   22.8027 H   0  0  0  0  0  0  0  0  0  0  0  0
   19.6410   18.9477   23.4037 C   0  0  0  0  0  0  0  0  0  0  0  0
   19.2043   18.2861   24.1597 H   0  0  0  0  0  0  0  0  0  0  0  0
   19.9253   19.8925   23.8835 H   0  0  0  0  0  0  0  0  0  0  0  0
   18.8179   19.1125   22.0907 C   0  0  0  0  0  0  0  0  0  0  0  0
   18.2731   18.2061   21.7928 H   0  0  0  0  0  0  0  0  0  0  0  0
   20.1970   19.2822   21.3847 C   0  0  0  0  0  0  0  0  0  0  0  0
   20.2546   18.9158   20.3538 H   0  0  0  0  0  0  0  0  0  0  0  0
   20.6056   20.2998   21.4212 H   0  0  0  0  0  0  0  0  0  0  0  0
   17.9750   20.2403   22.0458 O   0  0  0  0  0  0  0  0  0  0  0  0
   17.6454   20.3204   21.1248 H   0  0  0  0  0  0  0  0  0  0  0  0
  1  2  1  0  0  0  0
  1  3  1  0  0  0  0
  1  4  1  0  0  0  0
  4  5  1  0  0  0  0
  4  6  1  0  0  0  0
  4  7  1  0  0  0  0
  7  8  1  0  0  0  0
  1  9  1  0  0  0  0
  7  9  1  0  0  0  0
  9 10  1  0  0  0  0
  9 11  1  0  0  0  0
  7 12  1  0  0  0  0
 12 13  1  0  0  0  0
M  END
> <VConfSearch Rank>
946

> <Conf_Id>
22

> <Delta U+W>
0.000

> <U+W>
-3.131

> <U>
-0.154

> <W>
-2.978

> <W(PB)>
-4.579

> <W(SA)>
1.601

> <Valence>
6.333

> <Coulomb>
-7.439

> <VdW>
0.952

> <VdW6>
-2.120

> <VdW12>
3.072

> <Bond>
0.065

> <Angle>
0.931

> <Pdih>
5.338

> <Idih>
0.000

> <Tether>
0.000

$$$$
VeraChem MOL file


 13 13  0  0  0  0  0  0  0  0999 V2000     
   19.7117   20.1069   22.8284 C   0  0  0  0  0  0  0  0  0  0  0  0
   20.7300   20.3674   23.1459 H   0  0  0  0  0  0  0  0  0  0  0  0
   19.0312   20.9071   23.1430 H   0  0  0  0  0  0  0  0  0  0  0  0
   19.2683   18.6490   23.1824 C   0  0  0  0  0  0  0  0  0  0  0  0
   18.1835   18.4852   23.1733 H   0  0  0  0  0  0  0  0  0  0  0  0
   19.6804   18.2308   24.1073 H   0  0  0  0  0  0  0  0  0  0  0  0
   19.9963   18.2382   21.8669 C   0  0  0  0  0  0  0  0  0  0  0  0
   21.0809   18.1049   21.9805 H   0  0  0  0  0  0  0  0  0  0  0  0
   19.5884   19.6465   21.3384 C   0  0  0  0  0  0  0  0  0  0  0  0
   18.5744   19.6998   20.9231 H   0  0  0  0  0  0  0  0  0  0  0  0
   20.2842   20.1092   20.6300 H   0  0  0  0  0  0  0  0  0  0  0  0
   19.4276   17.1487   21.1784 O   0  0  0  0  0  0  0  0  0  0  0  0
   19.6252   16.3406   21.6992 H   0  0  0  0  0  0  0  0  0  0  0  0
  1  2  1  0  0  0  0
  1  3  1  0  0  0  0
  1  4  1  0  0  0  0
  4  5  1  0  0  0  0
  4  6  1  0  0  0  0
  4  7  1  0  0  0  0
  7  8  1  0  0  0  0
  1  9  1  0  0  0  0
  7  9  1  0  0  0  0
  9 10  1  0  0  0  0
  9 11  1  0  0  0  0
  7 12  1  0  0  0  0
 12 13  1  0  0  0  0
M  END
> <VConfSearch Rank>
947

> <Conf_Id>
19

> <Delta U+W>
-0.011

> <U+W>
-3.142

> <U>
-0.154

> <W>
-2.989

> <W(PB)>
-4.588

> <W(SA)>
1.599

> <Valence>
6.334

> <Coulomb>
-7.439

> <VdW>
0.951

> <VdW6>
-2.120

> <VdW12>
3.072

> <Bond>
0.065

> <Angle>
0.930

> <Pdih>
5.339

> <Idih>
0.000

> <Tether>
0.000

$$$$
VeraChem MOL file


 13 13  0  0  0  0  0  0  0  0999 V2000     
   19.9889   19.4998   23.3719 C   0  0  0  0  0  0  0  0  0  0  0  0
   19.7057   20.1329   24.2210 H   0  0  0  0  0  0  0  0  0  0  0  0
   20.9521   19.0229   23.5955 H   0  0  0  0  0  0  0  0  0  0  0  0
   19.9070   20.1665   21.9585 C   0  0  0  0  0  0  0  0  0  0  0  0
   19.1282   20.9326   21.8612 H   0  0  0  0  0  0  0  0  0  0  0  0
   20.8455   20.5684   21.5608 H   0  0  0  0  0  0  0  0  0  0  0  0
   19.4911   18.7605   21.4241 C   0  0  0  0  0  0  0  0  0  0  0  0
   18.7565   18.7803   20.6087 H   0  0  0  0  0  0  0  0  0  0  0  0
   18.8866   18.5231   22.8433 C   0  0  0  0  0  0  0  0  0  0  0  0
   18.9349   17.4953   23.2197 H   0  0  0  0  0  0  0  0  0  0  0  0
   17.8600   18.8908   22.9611 H   0  0  0  0  0  0  0  0  0  0  0  0
   20.5685   17.9110   21.0840 O   0  0  0  0  0  0  0  0  0  0  0  0
   20.1967   17.0157   20.9343 H   0  0  0  0  0  0  0  0  0  0  0  0
  1  2  1  0  0  0  0
  1  3  1  0  0  0  0
  1  4  1  0  0  0  0
  4  5  1  0  0  0  0
  4  6  1  0  0  0  0
  4  7  1  0  0  0  0
  7  8  1  0  0  0  0
  1  9  1  0  0  0  0
  7  9  1  0  0  0  0
  9 10  1  0  0  0  0
  9 11  1  0  0  0  0
  7 12  1  0  0  0  0
 12 13  1  0  0  0  0
M  END
> <VConfSearch Rank>
948

> <Conf_Id>
20

> <Delta U+W>
1.030

> <U+W>
-2.101

> <U>
0.841

> <W>
-2.942

> <W(PB)>
-4.530

> <W(SA)>
1.587

> <Valence>
6.736

> <Coulomb>
-7.246

> <VdW>
1.352

> <VdW6>
-2.500

> <VdW12>
3.851

> <Bond>
0.063

> <Angle>
0.687

> <Pdih>
5.986

> <Idih>
0.000

> <Tether>
0.000

$$$$
VeraChem MOL file


 13 13  0  0  0  0  0  0  0  0999 V2000     
   20.7355   19.2618   22.9671 C   0  0  0  0  0  0  0  0  0  0  0  0
   21.5106   19.9226   22.5569 H   0  0  0  0  0  0  0  0  0  0  0  0
   21.0065   19.0021   23.9975 H   0  0  0  0  0  0  0  0  0  0  0  0
   20.3368   18.0670   22.0394 C   0  0  0  0  0  0  0  0  0  0  0  0
   21.1346   17.6586   21.4094 H   0  0  0  0  0  0  0  0  0  0  0  0
   19.8340   17.2377   22.5522 H   0  0  0  0  0  0  0  0  0  0  0  0
   19.3807   19.0842   21.3463 C   0  0  0  0  0  0  0  0  0  0  0  0
   19.8721   19.7108   20.5896 H   0  0  0  0  0  0  0  0  0  0  0  0
   19.2687   19.7589   22.7468 C   0  0  0  0  0  0  0  0  0  0  0  0
   18.5271   19.3078   23.4177 H   0  0  0  0  0  0  0  0  0  0  0  0
   19.1232   20.8447   22.7415 H   0  0  0  0  0  0  0  0  0  0  0  0
   18.1849   18.5411   20.8396 O   0  0  0  0  0  0  0  0  0  0  0  0
   17.7940   17.9956   21.5541 H   0  0  0  0  0  0  0  0  0  0  0  0
  1  2  1  0  0  0  0
  1  3  1  0  0  0  0
  1  4  1  0  0  0  0
  4  5  1  0  0  0  0
  4  6  1  0  0  0  0
  4  7  1  0  0  0  0
  7  8  1  0  0  0  0
  1  9  1  0  0  0  0
  7  9  1  0  0  0  0
  9 10  1  0  0  0  0
  9 11  1  0  0  0  0
  7 12  1  0  0  0  0
 12 13  1  0  0  0  0
M  END
> <VConfSearch Rank>
949

> <Conf_Id>
24

> <Delta U+W>
0.356

> <U+W>
-2.775

> <U>
-0.184

> <W>
-2.591

> <W(PB)>
-4.184

> <W(SA)>
1.593

> <Valence>
6.840

> <Coulomb>
-7.916

> <VdW>
0.893

> <VdW6>
-2.167

> <VdW12>
3.060

> <Bond>
0.059

> <Angle>
0.918

> <Pdih>
5.862

> <Idih>
0.000

> <Tether>
0.000

$$$$
VeraChem MOL file


 13 13  0  0  0  0  0  0  0  0999 V2000     
   20.4174   18.1119   22.1445 C   0  0  0  0  0  0  0  0  0  0  0  0
   21.3926   17.7727   21.7754 H   0  0  0  0  0  0  0  0  0  0  0  0
   19.9371   17.2777   22.6716 H   0  0  0  0  0  0  0  0  0  0  0  0
   19.5075   18.8428   21.1014 C   0  0  0  0  0  0  0  0  0  0  0  0
   20.0567   19.3979   20.3311 H   0  0  0  0  0  0  0  0  0  0  0  0
   18.7451   18.2278   20.6104 H   0  0  0  0  0  0  0  0  0  0  0  0
   19.0114   19.7244   22.2891 C   0  0  0  0  0  0  0  0  0  0  0  0
   18.8048   20.7710   22.0311 H   0  0  0  0  0  0  0  0  0  0  0  0
   20.4148   19.4707   22.9215 C   0  0  0  0  0  0  0  0  0  0  0  0
   21.1864   20.1797   22.5975 H   0  0  0  0  0  0  0  0  0  0  0  0
   20.4421   19.4022   24.0148 H   0  0  0  0  0  0  0  0  0  0  0  0
   17.9287   19.1838   23.0152 O   0  0  0  0  0  0  0  0  0  0  0  0
   18.1673   18.2554   23.2165 H   0  0  0  0  0  0  0  0  0  0  0  0
  1  2  1  0  0  0  0
  1  3  1  0  0  0  0
  1  4  1  0  0  0  0
  4  5  1  0  0  0  0
  4  6  1  0  0  0  0
  4  7  1  0  0  0  0
  7  8  1  0  0  0  0
  1  9  1  0  0  0  0
  7  9  1  0  0  0  0
  9 10  1  0  0  0  0
  9 11  1  0  0  0  0
  7 12  1  0  0  0  0
 12 13  1  0  0  0  0
M  END
> <VConfSearch Rank>
950

> <Conf_Id>
44

> <Delta U+W>
0.823

> <U+W>
-2.308

> <U>
0.039

> <W>
-2.348

> <W(PB)>
-3.918

> <W(SA)>
1.571

> <Valence>
7.320

> <Coulomb>
-8.530

> <VdW>
1.249

> <VdW6>
-2.615

> <VdW12>
3.864

> <Bond>
0.056

> <Angle>
0.694

> <Pdih>
6.570

> <Idih>
0.000

> <Tether>
0.000

$$$$
VeraChem MOL file


 13 13  0  0  0  0  0  0  0  0999 V2000     
   19.7103   19.6147   21.0598 C   0  0  0  0  0  0  0  0  0  0  0  0
   18.7803   19.5022   20.4870 H   0  0  0  0  0  0  0  0  0  0  0  0
   20.4068   20.2314   20.4795 H   0  0  0  0  0  0  0  0  0  0  0  0
   20.2897   18.2804   21.6354 C   0  0  0  0  0  0  0  0  0  0  0  0
   20.1187   17.3801   21.0352 H   0  0  0  0  0  0  0  0  0  0  0  0
   21.3498   18.3222   21.9147 H   0  0  0  0  0  0  0  0  0  0  0  0
   19.3009   18.5036   22.8192 C   0  0  0  0  0  0  0  0  0  0  0  0
   18.2798   18.1532   22.6153 H   0  0  0  0  0  0  0  0  0  0  0  0
   19.5118   20.0253   22.5562 C   0  0  0  0  0  0  0  0  0  0  0  0
   18.6526   20.6707   22.7693 H   0  0  0  0  0  0  0  0  0  0  0  0
   20.4016   20.4518   23.0361 H   0  0  0  0  0  0  0  0  0  0  0  0
   19.7477   18.0408   24.0725 O   0  0  0  0  0  0  0  0  0  0  0  0
   19.1225   18.3817   24.7479 H   0  0  0  0  0  0  0  0  0  0  0  0
  1  2  1  0  0  0  0
  1  3  1  0  0  0  0
  1  4  1  0  0  0  0
  4  5  1  0  0  0  0
  4  6  1  0  0  0  0
  4  7  1  0  0  0  0
  7  8  1  0  0  0  0
  1  9  1  0  0  0  0
  7  9  1  0  0  0  0
  9 10  1  0  0  0  0
  9 11  1  0  0  0  0
  7 12  1  0  0  0  0
 12 13  1  0  0  0  0
M  END
> <VConfSearch Rank>
951

> <Conf_Id>
22

> <Delta U+W>
0.000

> <U+W>
-3.131

> <U>
-0.154

> <W>
-2.978

> <W(PB)>
-4.579

> <W(SA)>
1.601

> <Valence>
6.333

> <Coulomb>
-7.439

> <VdW>
0.952

> <VdW6>
-2.120

> <VdW12>
3.072

> <Bond>
0.065

> <Angle>
0.931

> <Pdih>
5.338

> <Idih>
0.000

> <Tether>
0.000

$$$$
VeraChem MOL file


 13 13  0  0  0  0  0  0  0  0999 V2000     
   19.4210   17.6272   22.1374 C   0  0  0  0  0  0  0  0  0  0  0  0
   20.3280   17.0580   21.8948 H   0  0  0  0  0  0  0  0  0  0  0  0
   18.5711   16.9351   22.1700 H   0  0  0  0  0  0  0  0  0  0  0  0
   19.2170   18.9262   21.2899 C   0  0  0  0  0  0  0  0  0  0  0  0
   18.1904   19.3133   21.2847 H   0  0  0  0  0  0  0  0  0  0  0  0
   19.5865   18.8925   20.2591 H   0  0  0  0  0  0  0  0  0  0  0  0
   20.1600   19.6058   22.3283 C   0  0  0  0  0  0  0  0  0  0  0  0
   21.2291   19.4527   22.1269 H   0  0  0  0  0  0  0  0  0  0  0  0
   19.5637   18.5976   23.3562 C   0  0  0  0  0  0  0  0  0  0  0  0
   18.6142   18.9145   23.8052 H   0  0  0  0  0  0  0  0  0  0  0  0
   20.2408   18.2749   24.1546 H   0  0  0  0  0  0  0  0  0  0  0  0
   19.8897   20.9634   22.5900 O   0  0  0  0  0  0  0  0  0  0  0  0
   20.1704   21.4732   21.7998 H   0  0  0  0  0  0  0  0  0  0  0  0
  1  2  1  0  0  0  0
  1  3  1  0  0  0  0
  1  4  1  0  0  0  0
  4  5  1  0  0  0  0
  4  6  1  0  0  0  0
  4  7  1  0  0  0  0
  7  8  1  0  0  0  0
  1  9  1  0  0  0  0
  7  9  1  0  0  0  0
  9 10  1  0  0  0  0
  9 11  1  0  0  0  0
  7 12  1  0  0  0  0
 12 13  1  0  0  0  0
M  END
> <VConfSearch Rank>
952

> <Conf_Id>
19

> <Delta U+W>
-0.011

> <U+W>
-3.142

> <U>
-0.154

> <W>
-2.989

> <W(PB)>
-4.588

> <W(SA)>
1.599

> <Valence>
6.334

> <Coulomb>
-7.439

> <VdW>
0.951

> <VdW6>
-2.120

> <VdW12>
3.072

> <Bond>
0.065

> <Angle>
0.930

> <Pdih>
5.339

> <Idih>
0.000

> <Tether>
0.000

$$$$
VeraChem MOL file


 13 13  0  0  0  0  0  0  0  0999 V2000     
   18.4414   18.8232   22.4941 C   0  0  0  0  0  0  0  0  0  0  0  0
   17.5962   18.1653   22.2598 H   0  0  0  0  0  0  0  0  0  0  0  0
   18.1286   19.5333   23.2708 H   0  0  0  0  0  0  0  0  0  0  0  0
   19.1654   19.4765   21.2702 C   0  0  0  0  0  0  0  0  0  0  0  0
   19.1547   18.8685   20.3576 H   0  0  0  0  0  0  0  0  0  0  0  0
   18.8553   20.4961   21.0158 H   0  0  0  0  0  0  0  0  0  0  0  0
   20.4792   19.3555   22.1037 C   0  0  0  0  0  0  0  0  0  0  0  0
   21.3764   19.1305   21.5128 H   0  0  0  0  0  0  0  0  0  0  0  0
   19.8087   18.1150   22.7728 C   0  0  0  0  0  0  0  0  0  0  0  0
   20.0560   17.9458   23.8266 H   0  0  0  0  0  0  0  0  0  0  0  0
   19.9536   17.1762   22.2244 H   0  0  0  0  0  0  0  0  0  0  0  0
   20.7329   20.4396   22.9747 O   0  0  0  0  0  0  0  0  0  0  0  0
   21.4733   20.1743   23.5609 H   0  0  0  0  0  0  0  0  0  0  0  0
  1  2  1  0  0  0  0
  1  3  1  0  0  0  0
  1  4  1  0  0  0  0
  4  5  1  0  0  0  0
  4  6  1  0  0  0  0
  4  7  1  0  0  0  0
  7  8  1  0  0  0  0
  1  9  1  0  0  0  0
  7  9  1  0  0  0  0
  9 10  1  0  0  0  0
  9 11  1  0  0  0  0
  7 12  1  0  0  0  0
 12 13  1  0  0  0  0
M  END
> <VConfSearch Rank>
953

> <Conf_Id>
20

> <Delta U+W>
1.030

> <U+W>
-2.101

> <U>
0.841

> <W>
-2.942

> <W(PB)>
-4.530

> <W(SA)>
1.587

> <Valence>
6.736

> <Coulomb>
-7.246

> <VdW>
1.352

> <VdW6>
-2.500

> <VdW12>
3.851

> <Bond>
0.063

> <Angle>
0.687

> <Pdih>
5.986

> <Idih>
0.000

> <Tether>
0.000

$$$$
VeraChem MOL file


 13 13  0  0  0  0  0  0  0  0999 V2000     
   20.4998   18.7525   21.1945 C   0  0  0  0  0  0  0  0  0  0  0  0
   21.1626   19.5676   20.8751 H   0  0  0  0  0  0  0  0  0  0  0  0
   20.6464   17.8985   20.5226 H   0  0  0  0  0  0  0  0  0  0  0  0
   19.0164   19.1783   21.4510 C   0  0  0  0  0  0  0  0  0  0  0  0
   18.6321   19.9894   20.8227 H   0  0  0  0  0  0  0  0  0  0  0  0
   18.2948   18.3522   21.4396 H   0  0  0  0  0  0  0  0  0  0  0  0
   19.5105   19.5966   22.8688 C   0  0  0  0  0  0  0  0  0  0  0  0
   19.9667   20.5953   22.9034 H   0  0  0  0  0  0  0  0  0  0  0  0
   20.5423   18.4371   22.7262 C   0  0  0  0  0  0  0  0  0  0  0  0
   20.1617   17.4453   22.9998 H   0  0  0  0  0  0  0  0  0  0  0  0
   21.5055   18.5937   23.2242 H   0  0  0  0  0  0  0  0  0  0  0  0
   18.5704   19.4450   23.9056 O   0  0  0  0  0  0  0  0  0  0  0  0
   18.1993   18.5414   23.8244 H   0  0  0  0  0  0  0  0  0  0  0  0
  1  2  1  0  0  0  0
  1  3  1  0  0  0  0
  1  4  1  0  0  0  0
  4  5  1  0  0  0  0
  4  6  1  0  0  0  0
  4  7  1  0  0  0  0
  7  8  1  0  0  0  0
  1  9  1  0  0  0  0
  7  9  1  0  0  0  0
  9 10  1  0  0  0  0
  9 11  1  0  0  0  0
  7 12  1  0  0  0  0
 12 13  1  0  0  0  0
M  END
> <VConfSearch Rank>
954

> <Conf_Id>
24

> <Delta U+W>
0.356

> <U+W>
-2.775

> <U>
-0.184

> <W>
-2.591

> <W(PB)>
-4.184

> <W(SA)>
1.593

> <Valence>
6.840

> <Coulomb>
-7.916

> <VdW>
0.893

> <VdW6>
-2.167

> <VdW12>
3.060

> <Bond>
0.059

> <Angle>
0.918

> <Pdih>
5.862

> <Idih>
0.000

> <Tether>
0.000

$$$$
VeraChem MOL file


 13 13  0  0  0  0  0  0  0  0999 V2000     
   19.1876   18.4980   23.0963 C   0  0  0  0  0  0  0  0  0  0  0  0
   19.0399   17.5771   23.6729 H   0  0  0  0  0  0  0  0  0  0  0  0
   18.6070   19.3000   23.5696 H   0  0  0  0  0  0  0  0  0  0  0  0
   18.9976   18.3735   21.5476 C   0  0  0  0  0  0  0  0  0  0  0  0
   19.2547   17.3894   21.1371 H   0  0  0  0  0  0  0  0  0  0  0  0
   18.0181   18.6692   21.1556 H   0  0  0  0  0  0  0  0  0  0  0  0
   20.1336   19.4346   21.4154 C   0  0  0  0  0  0  0  0  0  0  0  0
   20.8009   19.2905   20.5560 H   0  0  0  0  0  0  0  0  0  0  0  0
   20.6722   18.8672   22.7652 C   0  0  0  0  0  0  0  0  0  0  0  0
   21.3398   18.0042   22.6531 H   0  0  0  0  0  0  0  0  0  0  0  0
   21.1502   19.5928   23.4329 H   0  0  0  0  0  0  0  0  0  0  0  0
   19.6990   20.7763   21.4689 O   0  0  0  0  0  0  0  0  0  0  0  0
   19.1112   20.8452   22.2493 H   0  0  0  0  0  0  0  0  0  0  0  0
  1  2  1  0  0  0  0
  1  3  1  0  0  0  0
  1  4  1  0  0  0  0
  4  5  1  0  0  0  0
  4  6  1  0  0  0  0
  4  7  1  0  0  0  0
  7  8  1  0  0  0  0
  1  9  1  0  0  0  0
  7  9  1  0  0  0  0
  9 10  1  0  0  0  0
  9 11  1  0  0  0  0
  7 12  1  0  0  0  0
 12 13  1  0  0  0  0
M  END
> <VConfSearch Rank>
955

> <Conf_Id>
44

> <Delta U+W>
0.823

> <U+W>
-2.308

> <U>
0.039

> <W>
-2.348

> <W(PB)>
-3.918

> <W(SA)>
1.571

> <Valence>
7.320

> <Coulomb>
-8.530

> <VdW>
1.249

> <VdW6>
-2.615

> <VdW12>
3.864

> <Bond>
0.056

> <Angle>
0.694

> <Pdih>
6.570

> <Idih>
0.000

> <Tether>
0.000

$$$$
VeraChem MOL file


 13 13  0  0  0  0  0  0  0  0999 V2000     
   20.3701   19.4682   21.2157 C   0  0  0  0  0  0  0  0  0  0  0  0
   21.4197   19.1466   21.2396 H   0  0  0  0  0  0  0  0  0  0  0  0
   20.1949   20.0236   20.2867 H   0  0  0  0  0  0  0  0  0  0  0  0
   19.8646   20.1504   22.5297 C   0  0  0  0  0  0  0  0  0  0  0  0
   20.6057   20.7321   23.0886 H   0  0  0  0  0  0  0  0  0  0  0  0
   18.9561   20.7544   22.4140 H   0  0  0  0  0  0  0  0  0  0  0  0
   19.6147   18.7001   23.0424 C   0  0  0  0  0  0  0  0  0  0  0  0
   20.5105   18.2156   23.4547 H   0  0  0  0  0  0  0  0  0  0  0  0
   19.3336   18.3455   21.5510 C   0  0  0  0  0  0  0  0  0  0  0  0
   19.6054   17.3303   21.2417 H   0  0  0  0  0  0  0  0  0  0  0  0
   18.3090   18.5537   21.2182 H   0  0  0  0  0  0  0  0  0  0  0  0
   18.5186   18.5501   23.9145 O   0  0  0  0  0  0  0  0  0  0  0  0
   18.3697   17.5871   24.0313 H   0  0  0  0  0  0  0  0  0  0  0  0
  1  2  1  0  0  0  0
  1  3  1  0  0  0  0
  1  4  1  0  0  0  0
  4  5  1  0  0  0  0
  4  6  1  0  0  0  0
  4  7  1  0  0  0  0
  7  8  1  0  0  0  0
  1  9  1  0  0  0  0
  7  9  1  0  0  0  0
  9 10  1  0  0  0  0
  9 11  1  0  0  0  0
  7 12  1  0  0  0  0
 12 13  1  0  0  0  0
M  END
> <VConfSearch Rank>
956

> <Conf_Id>
22

> <Delta U+W>
0.000

> <U+W>
-3.131

> <U>
-0.154

> <W>
-2.978

> <W(PB)>
-4.579

> <W(SA)>
1.601

> <Valence>
6.333

> <Coulomb>
-7.439

> <VdW>
0.952

> <VdW6>
-2.120

> <VdW12>
3.072

> <Bond>
0.065

> <Angle>
0.931

> <Pdih>
5.338

> <Idih>
0.000

> <Tether>
0.000

$$$$
VeraChem MOL file


 13 13  0  0  0  0  0  0  0  0999 V2000     
   19.3608   17.6689   22.5454 C   0  0  0  0  0  0  0  0  0  0  0  0
   18.3267   17.3774   22.3191 H   0  0  0  0  0  0  0  0  0  0  0  0
   19.8697   16.8189   23.0154 H   0  0  0  0  0  0  0  0  0  0  0  0
   19.5084   19.0459   23.2730 C   0  0  0  0  0  0  0  0  0  0  0  0
   20.4671   19.1926   23.7860 H   0  0  0  0  0  0  0  0  0  0  0  0
   18.6972   19.3195   23.9565 H   0  0  0  0  0  0  0  0  0  0  0  0
   19.4352   19.6698   21.8466 C   0  0  0  0  0  0  0  0  0  0  0  0
   18.4118   19.8002   21.4690 H   0  0  0  0  0  0  0  0  0  0  0  0
   20.1206   18.3563   21.3632 C   0  0  0  0  0  0  0  0  0  0  0  0
   21.2138   18.3535   21.4557 H   0  0  0  0  0  0  0  0  0  0  0  0
   19.8514   18.0216   20.3555 H   0  0  0  0  0  0  0  0  0  0  0  0
   20.1896   20.8454   21.6635 O   0  0  0  0  0  0  0  0  0  0  0  0
   19.7298   21.5643   22.1483 H   0  0  0  0  0  0  0  0  0  0  0  0
  1  2  1  0  0  0  0
  1  3  1  0  0  0  0
  1  4  1  0  0  0  0
  4  5  1  0  0  0  0
  4  6  1  0  0  0  0
  4  7  1  0  0  0  0
  7  8  1  0  0  0  0
  1  9  1  0  0  0  0
  7  9  1  0  0  0  0
  9 10  1  0  0  0  0
  9 11  1  0  0  0  0
  7 12  1  0  0  0  0
 12 13  1  0  0  0  0
M  END
> <VConfSearch Rank>
957

> <Conf_Id>
19

> <Delta U+W>
-0.011

> <U+W>
-3.142

> <U>
-0.154

> <W>
-2.989

> <W(PB)>
-4.588

> <W(SA)>
1.599

> <Valence>
6.334

> <Coulomb>
-7.439

> <VdW>
0.951

> <VdW6>
-2.120

> <VdW12>
3.072

> <Bond>
0.065

> <Angle>
0.930

> <Pdih>
5.339

> <Idih>
0.000

> <Tether>
0.000

$$$$
VeraChem MOL file


 13 13  0  0  0  0  0  0  0  0999 V2000     
   18.8702   19.6940   23.0061 C   0  0  0  0  0  0  0  0  0  0  0  0
   18.8045   20.3822   23.8571 H   0  0  0  0  0  0  0  0  0  0  0  0
   17.8640   19.5523   22.5907 H   0  0  0  0  0  0  0  0  0  0  0  0
   19.6638   18.3679   23.2528 C   0  0  0  0  0  0  0  0  0  0  0  0
   20.4825   18.4556   23.9771 H   0  0  0  0  0  0  0  0  0  0  0  0
   19.0629   17.4880   23.5078 H   0  0  0  0  0  0  0  0  0  0  0  0
   20.1147   18.4722   21.7624 C   0  0  0  0  0  0  0  0  0  0  0  0
   21.1374   18.1237   21.5688 H   0  0  0  0  0  0  0  0  0  0  0  0
   19.9731   20.0159   21.9437 C   0  0  0  0  0  0  0  0  0  0  0  0
   19.6416   20.5744   21.0613 H   0  0  0  0  0  0  0  0  0  0  0  0
   20.8670   20.5038   22.3510 H   0  0  0  0  0  0  0  0  0  0  0  0
   19.2226   17.8961   20.8294 O   0  0  0  0  0  0  0  0  0  0  0  0
   19.5172   18.1737   19.9359 H   0  0  0  0  0  0  0  0  0  0  0  0
  1  2  1  0  0  0  0
  1  3  1  0  0  0  0
  1  4  1  0  0  0  0
  4  5  1  0  0  0  0
  4  6  1  0  0  0  0
  4  7  1  0  0  0  0
  7  8  1  0  0  0  0
  1  9  1  0  0  0  0
  7  9  1  0  0  0  0
  9 10  1  0  0  0  0
  9 11  1  0  0  0  0
  7 12  1  0  0  0  0
 12 13  1  0  0  0  0
M  END
> <VConfSearch Rank>
958

> <Conf_Id>
20

> <Delta U+W>
1.030

> <U+W>
-2.101

> <U>
0.841

> <W>
-2.942

> <W(PB)>
-4.530

> <W(SA)>
1.587

> <Valence>
6.736

> <Coulomb>
-7.246

> <VdW>
1.352

> <VdW6>
-2.500

> <VdW12>
3.851

> <Bond>
0.063

> <Angle>
0.687

> <Pdih>
5.986

> <Idih>
0.000

> <Tether>
0.000

$$$$
VeraChem MOL file


 13 13  0  0  0  0  0  0  0  0999 V2000     
   20.2814   18.3045   21.2446 C   0  0  0  0  0  0  0  0  0  0  0  0
   21.1938   18.7141   20.7915 H   0  0  0  0  0  0  0  0  0  0  0  0
   20.0223   17.3723   20.7285 H   0  0  0  0  0  0  0  0  0  0  0  0
   19.1196   19.3369   21.4229 C   0  0  0  0  0  0  0  0  0  0  0  0
   19.0546   20.1253   20.6650 H   0  0  0  0  0  0  0  0  0  0  0  0
   18.1261   18.8900   21.5519 H   0  0  0  0  0  0  0  0  0  0  0  0
   19.8376   19.7307   22.7491 C   0  0  0  0  0  0  0  0  0  0  0  0
   20.6607   20.4454   22.6132 H   0  0  0  0  0  0  0  0  0  0  0  0
   20.2983   18.2429   22.8077 C   0  0  0  0  0  0  0  0  0  0  0  0
   19.5683   17.5514   23.2462 H   0  0  0  0  0  0  0  0  0  0  0  0
   21.2742   18.0651   23.2727 H   0  0  0  0  0  0  0  0  0  0  0  0
   18.9909   20.1430   23.7955 O   0  0  0  0  0  0  0  0  0  0  0  0
   18.2808   19.4714   23.8693 H   0  0  0  0  0  0  0  0  0  0  0  0
  1  2  1  0  0  0  0
  1  3  1  0  0  0  0
  1  4  1  0  0  0  0
  4  5  1  0  0  0  0
  4  6  1  0  0  0  0
  4  7  1  0  0  0  0
  7  8  1  0  0  0  0
  1  9  1  0  0  0  0
  7  9  1  0  0  0  0
  9 10  1  0  0  0  0
  9 11  1  0  0  0  0
  7 12  1  0  0  0  0
 12 13  1  0  0  0  0
M  END
> <VConfSearch Rank>
959

> <Conf_Id>
24

> <Delta U+W>
0.356

> <U+W>
-2.775

> <U>
-0.184

> <W>
-2.591

> <W(PB)>
-4.184

> <W(SA)>
1.593

> <Valence>
6.840

> <Coulomb>
-7.916

> <VdW>
0.893

> <VdW6>
-2.167

> <VdW12>
3.060

> <Bond>
0.059

> <Angle>
0.918

> <Pdih>
5.862

> <Idih>
0.000

> <Tether>
0.000

$$$$
VeraChem MOL file


 13 13  0  0  0  0  0  0  0  0999 V2000     
   19.2212   18.5130   21.2961 C   0  0  0  0  0  0  0  0  0  0  0  0
   18.6124   18.6930   20.4021 H   0  0  0  0  0  0  0  0  0  0  0  0
   19.4881   17.4489   21.3252 H   0  0  0  0  0  0  0  0  0  0  0  0
   18.6533   19.0863   22.6374 C   0  0  0  0  0  0  0  0  0  0  0  0
   18.0531   19.9972   22.5230 H   0  0  0  0  0  0  0  0  0  0  0  0
   18.0998   18.3816   23.2681 H   0  0  0  0  0  0  0  0  0  0  0  0
   20.1358   19.3482   23.0465 C   0  0  0  0  0  0  0  0  0  0  0  0
   20.2969   20.2596   23.6363 H   0  0  0  0  0  0  0  0  0  0  0  0
   20.4170   19.4981   21.5193 C   0  0  0  0  0  0  0  0  0  0  0  0
   20.2493   20.5100   21.1307 H   0  0  0  0  0  0  0  0  0  0  0  0
   21.3986   19.1520   21.1768 H   0  0  0  0  0  0  0  0  0  0  0  0
   20.7816   18.2548   23.6623 O   0  0  0  0  0  0  0  0  0  0  0  0
   20.6049   17.4752   23.0964 H   0  0  0  0  0  0  0  0  0  0  0  0
  1  2  1  0  0  0  0
  1  3  1  0  0  0  0
  1  4  1  0  0  0  0
  4  5  1  0  0  0  0
  4  6  1  0  0  0  0
  4  7  1  0  0  0  0
  7  8  1  0  0  0  0
  1  9  1  0  0  0  0
  7  9  1  0  0  0  0
  9 10  1  0  0  0  0
  9 11  1  0  0  0  0
  7 12  1  0  0  0  0
 12 13  1  0  0  0  0
M  END
> <VConfSearch Rank>
960

> <Conf_Id>
44

> <Delta U+W>
0.823

> <U+W>
-2.308

> <U>
0.039

> <W>
-2.348

> <W(PB)>
-3.918

> <W(SA)>
1.571

> <Valence>
7.320

> <Coulomb>
-8.530

> <VdW>
1.249

> <VdW6>
-2.615

> <VdW12>
3.864

> <Bond>
0.056

> <Angle>
0.694

> <Pdih>
6.570

> <Idih>
0.000

> <Tether>
0.000

$$$$
VeraChem MOL file


 13 13  0  0  0  0  0  0  0  0999 V2000     
   18.9544   18.5075   23.2213 C   0  0  0  0  0  0  0  0  0  0  0  0
   18.1593   17.8400   22.8638 H   0  0  0  0  0  0  0  0  0  0  0  0
   18.9564   18.4944   24.3177 H   0  0  0  0  0  0  0  0  0  0  0  0
   18.9727   19.9209   22.5511 C   0  0  0  0  0  0  0  0  0  0  0  0
   17.9995   20.3310   22.2604 H   0  0  0  0  0  0  0  0  0  0  0  0
   19.5262   20.6869   23.1084 H   0  0  0  0  0  0  0  0  0  0  0  0
   19.7872   19.2364   21.4123 C   0  0  0  0  0  0  0  0  0  0  0  0
   19.1628   18.7214   20.6693 H   0  0  0  0  0  0  0  0  0  0  0  0
   20.3422   18.3017   22.5292 C   0  0  0  0  0  0  0  0  0  0  0  0
   20.5803   17.2778   22.2209 H   0  0  0  0  0  0  0  0  0  0  0  0
   21.1958   18.7111   23.0837 H   0  0  0  0  0  0  0  0  0  0  0  0
   20.7441   20.0548   20.7805 O   0  0  0  0  0  0  0  0  0  0  0  0
   21.2918   19.4740   20.2096 H   0  0  0  0  0  0  0  0  0  0  0  0
  1  2  1  0  0  0  0
  1  3  1  0  0  0  0
  1  4  1  0  0  0  0
  4  5  1  0  0  0  0
  4  6  1  0  0  0  0
  4  7  1  0  0  0  0
  7  8  1  0  0  0  0
  1  9  1  0  0  0  0
  7  9  1  0  0  0  0
  9 10  1  0  0  0  0
  9 11  1  0  0  0  0
  7 12  1  0  0  0  0
 12 13  1  0  0  0  0
M  END
> <VConfSearch Rank>
961

> <Conf_Id>
22

> <Delta U+W>
0.000

> <U+W>
-3.131

> <U>
-0.154

> <W>
-2.978

> <W(PB)>
-4.579

> <W(SA)>
1.601

> <Valence>
6.333

> <Coulomb>
-7.439

> <VdW>
0.952

> <VdW6>
-2.120

> <VdW12>
3.072

> <Bond>
0.065

> <Angle>
0.931

> <Pdih>
5.338

> <Idih>
0.000

> <Tether>
0.000

$$$$
VeraChem MOL file


 13 13  0  0  0  0  0  0  0  0999 V2000     
   19.2183   18.9620   20.9925 C   0  0  0  0  0  0  0  0  0  0  0  0
   19.6342   19.8020   20.4206 H   0  0  0  0  0  0  0  0  0  0  0  0
   18.5221   18.4108   20.3493 H   0  0  0  0  0  0  0  0  0  0  0  0
   18.6884   19.3376   22.4157 C   0  0  0  0  0  0  0  0  0  0  0  0
   17.9932   18.6098   22.8525 H   0  0  0  0  0  0  0  0  0  0  0  0
   18.2614   20.3409   22.5220 H   0  0  0  0  0  0  0  0  0  0  0  0
   20.1686   19.1763   22.8763 C   0  0  0  0  0  0  0  0  0  0  0  0
   20.7898   20.0651   22.7000 H   0  0  0  0  0  0  0  0  0  0  0  0
   20.2788   18.1003   21.7542 C   0  0  0  0  0  0  0  0  0  0  0  0
   19.9342   17.1009   22.0476 H   0  0  0  0  0  0  0  0  0  0  0  0
   21.2605   18.0086   21.2771 H   0  0  0  0  0  0  0  0  0  0  0  0
   20.3424   18.6970   24.1895 O   0  0  0  0  0  0  0  0  0  0  0  0
   20.0902   19.4231   24.7997 H   0  0  0  0  0  0  0  0  0  0  0  0
  1  2  1  0  0  0  0
  1  3  1  0  0  0  0
  1  4  1  0  0  0  0
  4  5  1  0  0  0  0
  4  6  1  0  0  0  0
  4  7  1  0  0  0  0
  7  8  1  0  0  0  0
  1  9  1  0  0  0  0
  7  9  1  0  0  0  0
  9 10  1  0  0  0  0
  9 11  1  0  0  0  0
  7 12  1  0  0  0  0
 12 13  1  0  0  0  0
M  END
> <VConfSearch Rank>
962

> <Conf_Id>
19

> <Delta U+W>
-0.011

> <U+W>
-3.142

> <U>
-0.154

> <W>
-2.989

> <W(PB)>
-4.588

> <W(SA)>
1.599

> <Valence>
6.334

> <Coulomb>
-7.439

> <VdW>
0.951

> <VdW6>
-2.120

> <VdW12>
3.072

> <Bond>
0.065

> <Angle>
0.930

> <Pdih>
5.339

> <Idih>
0.000

> <Tether>
0.000

$$$$
VeraChem MOL file


 13 13  0  0  0  0  0  0  0  0999 V2000     
   19.6360   20.2855   22.3017 C   0  0  0  0  0  0  0  0  0  0  0  0
   19.6586   21.1741   22.9435 H   0  0  0  0  0  0  0  0  0  0  0  0
   19.6934   20.6078   21.2538 H   0  0  0  0  0  0  0  0  0  0  0  0
   18.5027   19.2486   22.6011 C   0  0  0  0  0  0  0  0  0  0  0  0
   18.1998   19.1970   23.6539 H   0  0  0  0  0  0  0  0  0  0  0  0
   17.6029   19.3268   21.9809 H   0  0  0  0  0  0  0  0  0  0  0  0
   19.5261   18.1500   22.1756 C   0  0  0  0  0  0  0  0  0  0  0  0
   19.4518   17.2123   22.7414 H   0  0  0  0  0  0  0  0  0  0  0  0
   20.6253   19.1348   22.6835 C   0  0  0  0  0  0  0  0  0  0  0  0
   21.5750   19.1170   22.1375 H   0  0  0  0  0  0  0  0  0  0  0  0
   20.8374   19.0560   23.7567 H   0  0  0  0  0  0  0  0  0  0  0  0
   19.5634   17.8768   20.7892 O   0  0  0  0  0  0  0  0  0  0  0  0
   20.3491   17.3129   20.6251 H   0  0  0  0  0  0  0  0  0  0  0  0
  1  2  1  0  0  0  0
  1  3  1  0  0  0  0
  1  4  1  0  0  0  0
  4  5  1  0  0  0  0
  4  6  1  0  0  0  0
  4  7  1  0  0  0  0
  7  8  1  0  0  0  0
  1  9  1  0  0  0  0
  7  9  1  0  0  0  0
  9 10  1  0  0  0  0
  9 11  1  0  0  0  0
  7 12  1  0  0  0  0
 12 13  1  0  0  0  0
M  END
> <VConfSearch Rank>
963

> <Conf_Id>
20

> <Delta U+W>
1.030

> <U+W>
-2.101

> <U>
0.841

> <W>
-2.942

> <W(PB)>
-4.530

> <W(SA)>
1.587

> <Valence>
6.736

> <Coulomb>
-7.246

> <VdW>
1.352

> <VdW6>
-2.500

> <VdW12>
3.851

> <Bond>
0.063

> <Angle>
0.687

> <Pdih>
5.986

> <Idih>
0.000

> <Tether>
0.000

$$$$
VeraChem MOL file


 13 13  0  0  0  0  0  0  0  0999 V2000     
   20.9096   19.4918   22.1831 C   0  0  0  0  0  0  0  0  0  0  0  0
   21.1036   20.2582   21.4212 H   0  0  0  0  0  0  0  0  0  0  0  0
   21.8177   19.3564   22.7826 H   0  0  0  0  0  0  0  0  0  0  0  0
   20.2429   18.1846   21.6408 C   0  0  0  0  0  0  0  0  0  0  0  0
   20.5133   17.8931   20.6199 H   0  0  0  0  0  0  0  0  0  0  0  0
   20.3491   17.3111   22.2960 H   0  0  0  0  0  0  0  0  0  0  0  0
   18.8966   18.9554   21.7904 C   0  0  0  0  0  0  0  0  0  0  0  0
   18.6639   19.6119   20.9410 H   0  0  0  0  0  0  0  0  0  0  0  0
   19.5802   19.6879   22.9842 C   0  0  0  0  0  0  0  0  0  0  0  0
   19.5383   19.1505   23.9396 H   0  0  0  0  0  0  0  0  0  0  0  0
   19.2654   20.7241   23.1497 H   0  0  0  0  0  0  0  0  0  0  0  0
   17.7812   18.1644   22.1254 O   0  0  0  0  0  0  0  0  0  0  0  0
   18.0467   17.6035   22.8841 H   0  0  0  0  0  0  0  0  0  0  0  0
  1  2  1  0  0  0  0
  1  3  1  0  0  0  0
  1  4  1  0  0  0  0
  4  5  1  0  0  0  0
  4  6  1  0  0  0  0
  4  7  1  0  0  0  0
  7  8  1  0  0  0  0
  1  9  1  0  0  0  0
  7  9  1  0  0  0  0
  9 10  1  0  0  0  0
  9 11  1  0  0  0  0
  7 12  1  0  0  0  0
 12 13  1  0  0  0  0
M  END
> <VConfSearch Rank>
964

> <Conf_Id>
24

> <Delta U+W>
0.356

> <U+W>
-2.775

> <U>
-0.184

> <W>
-2.591

> <W(PB)>
-4.184

> <W(SA)>
1.593

> <Valence>
6.840

> <Coulomb>
-7.916

> <VdW>
0.893

> <VdW6>
-2.167

> <VdW12>
3.060

> <Bond>
0.059

> <Angle>
0.918

> <Pdih>
5.862

> <Idih>
0.000

> <Tether>
0.000

$$$$
VeraChem MOL file


 13 13  0  0  0  0  0  0  0  0999 V2000     
   19.2009   19.8476   22.7138 C   0  0  0  0  0  0  0  0  0  0  0  0
   18.7529   20.2283   23.6394 H   0  0  0  0  0  0  0  0  0  0  0  0
   19.1581   20.6406   21.9564 H   0  0  0  0  0  0  0  0  0  0  0  0
   18.6907   18.4485   22.2317 C   0  0  0  0  0  0  0  0  0  0  0  0
   18.3804   17.7758   23.0406 H   0  0  0  0  0  0  0  0  0  0  0  0
   17.9066   18.4575   21.4664 H   0  0  0  0  0  0  0  0  0  0  0  0
   20.1424   18.1985   21.7177 C   0  0  0  0  0  0  0  0  0  0  0  0
   20.4937   17.1633   21.8151 H   0  0  0  0  0  0  0  0  0  0  0  0
   20.5965   19.1548   22.8636 C   0  0  0  0  0  0  0  0  0  0  0  0
   20.7536   18.6553   23.8274 H   0  0  0  0  0  0  0  0  0  0  0  0
   21.4713   19.7787   22.6483 H   0  0  0  0  0  0  0  0  0  0  0  0
   20.3984   18.6741   20.4139 O   0  0  0  0  0  0  0  0  0  0  0  0
   20.0664   19.5951   20.3857 H   0  0  0  0  0  0  0  0  0  0  0  0
  1  2  1  0  0  0  0
  1  3  1  0  0  0  0
  1  4  1  0  0  0  0
  4  5  1  0  0  0  0
  4  6  1  0  0  0  0
  4  7  1  0  0  0  0
  7  8  1  0  0  0  0
  1  9  1  0  0  0  0
  7  9  1  0  0  0  0
  9 10  1  0  0  0  0
  9 11  1  0  0  0  0
  7 12  1  0  0  0  0
 12 13  1  0  0  0  0
M  END
> <VConfSearch Rank>
965

> <Conf_Id>
44

> <Delta U+W>
0.823

> <U+W>
-2.308

> <U>
0.039

> <W>
-2.348

> <W(PB)>
-3.918

> <W(SA)>
1.571

> <Valence>
7.320

> <Coulomb>
-8.530

> <VdW>
1.249

> <VdW6>
-2.615

> <VdW12>
3.864

> <Bond>
0.056

> <Angle>
0.694

> <Pdih>
6.570

> <Idih>
0.000

> <Tether>
0.000

$$$$
VeraChem MOL file


 13 13  0  0  0  0  0  0  0  0999 V2000     
   19.0009   17.9132   22.1024 C   0  0  0  0  0  0  0  0  0  0  0  0
   18.0325   18.0390   21.6004 H   0  0  0  0  0  0  0  0  0  0  0  0
   19.1589   16.8457   22.2966 H   0  0  0  0  0  0  0  0  0  0  0  0
   19.2401   18.8745   23.3132 C   0  0  0  0  0  0  0  0  0  0  0  0
   18.3527   19.1539   23.8916 H   0  0  0  0  0  0  0  0  0  0  0  0
   20.0268   18.5531   24.0070 H   0  0  0  0  0  0  0  0  0  0  0  0
   19.7052   19.9086   22.2440 C   0  0  0  0  0  0  0  0  0  0  0  0
   18.8797   20.4583   21.7712 H   0  0  0  0  0  0  0  0  0  0  0  0
   20.1911   18.6725   21.4284 C   0  0  0  0  0  0  0  0  0  0  0  0
   20.1448   18.7710   20.3383 H   0  0  0  0  0  0  0  0  0  0  0  0
   21.1862   18.3046   21.7079 H   0  0  0  0  0  0  0  0  0  0  0  0
   20.7199   20.7919   22.6618 O   0  0  0  0  0  0  0  0  0  0  0  0
   21.0338   21.2716   21.8652 H   0  0  0  0  0  0  0  0  0  0  0  0
  1  2  1  0  0  0  0
  1  3  1  0  0  0  0
  1  4  1  0  0  0  0
  4  5  1  0  0  0  0
  4  6  1  0  0  0  0
  4  7  1  0  0  0  0
  7  8  1  0  0  0  0
  1  9  1  0  0  0  0
  7  9  1  0  0  0  0
  9 10  1  0  0  0  0
  9 11  1  0  0  0  0
  7 12  1  0  0  0  0
 12 13  1  0  0  0  0
M  END
> <VConfSearch Rank>
966

> <Conf_Id>
22

> <Delta U+W>
0.000

> <U+W>
-3.131

> <U>
-0.154

> <W>
-2.978

> <W(PB)>
-4.579

> <W(SA)>
1.601

> <Valence>
6.333

> <Coulomb>
-7.439

> <VdW>
0.952

> <VdW6>
-2.120

> <VdW12>
3.072

> <Bond>
0.065

> <Angle>
0.931

> <Pdih>
5.338

> <Idih>
0.000

> <Tether>
0.000

$$$$
VeraChem MOL file


 13 13  0  0  0  0  0  0  0  0999 V2000     
   20.6695   18.4938   22.9336 C   0  0  0  0  0  0  0  0  0  0  0  0
   21.3445   17.8546   22.3493 H   0  0  0  0  0  0  0  0  0  0  0  0
   21.0416   18.5470   23.9636 H   0  0  0  0  0  0  0  0  0  0  0  0
   19.1493   18.1638   22.7684 C   0  0  0  0  0  0  0  0  0  0  0  0
   18.5063   18.5543   23.5671 H   0  0  0  0  0  0  0  0  0  0  0  0
   18.9001   17.1107   22.5982 H   0  0  0  0  0  0  0  0  0  0  0  0
   19.2176   19.0607   21.4955 C   0  0  0  0  0  0  0  0  0  0  0  0
   19.5896   18.5399   20.6026 H   0  0  0  0  0  0  0  0  0  0  0  0
   20.3156   19.8604   22.2595 C   0  0  0  0  0  0  0  0  0  0  0  0
   19.9276   20.6242   22.9447 H   0  0  0  0  0  0  0  0  0  0  0  0
   21.0974   20.3096   21.6373 H   0  0  0  0  0  0  0  0  0  0  0  0
   18.0429   19.7807   21.2017 O   0  0  0  0  0  0  0  0  0  0  0  0
   17.3800   19.1347   20.8754 H   0  0  0  0  0  0  0  0  0  0  0  0
  1  2  1  0  0  0  0
  1  3  1  0  0  0  0
  1  4  1  0  0  0  0
  4  5  1  0  0  0  0
  4  6  1  0  0  0  0
  4  7  1  0  0  0  0
  7  8  1  0  0  0  0
  1  9  1  0  0  0  0
  7  9  1  0  0  0  0
  9 10  1  0  0  0  0
  9 11  1  0  0  0  0
  7 12  1  0  0  0  0
 12 13  1  0  0  0  0
M  END
> <VConfSearch Rank>
967

> <Conf_Id>
19

> <Delta U+W>
-0.011

> <U+W>
-3.142

> <U>
-0.154

> <W>
-2.989

> <W(PB)>
-4.588

> <W(SA)>
1.599

> <Valence>
6.334

> <Coulomb>
-7.439

> <VdW>
0.951

> <VdW6>
-2.120

> <VdW12>
3.072

> <Bond>
0.065

> <Angle>
0.930

> <Pdih>
5.339

> <Idih>
0.000

> <Tether>
0.000

$$$$
VeraChem MOL file


 13 13  0  0  0  0  0  0  0  0999 V2000     
   20.3914   19.6653   23.0338 C   0  0  0  0  0  0  0  0  0  0  0  0
   21.2485   20.3467   23.0883 H   0  0  0  0  0  0  0  0  0  0  0  0
   20.0146   19.4930   24.0504 H   0  0  0  0  0  0  0  0  0  0  0  0
   20.5986   18.3644   22.1888 C   0  0  0  0  0  0  0  0  0  0  0  0
   21.2910   18.4751   21.3456 H   0  0  0  0  0  0  0  0  0  0  0  0
   20.8714   17.4642   22.7505 H   0  0  0  0  0  0  0  0  0  0  0  0
   19.0925   18.4907   21.8002 C   0  0  0  0  0  0  0  0  0  0  0  0
   18.8570   18.1767   20.7751 H   0  0  0  0  0  0  0  0  0  0  0  0
   19.2888   20.0281   21.9843 C   0  0  0  0  0  0  0  0  0  0  0  0
   18.4236   20.5799   22.3679 H   0  0  0  0  0  0  0  0  0  0  0  0
   19.6640   20.5428   21.0913 H   0  0  0  0  0  0  0  0  0  0  0  0
   18.1913   17.8906   22.7091 O   0  0  0  0  0  0  0  0  0  0  0  0
   17.2888   18.1822   22.4588 H   0  0  0  0  0  0  0  0  0  0  0  0
  1  2  1  0  0  0  0
  1  3  1  0  0  0  0
  1  4  1  0  0  0  0
  4  5  1  0  0  0  0
  4  6  1  0  0  0  0
  4  7  1  0  0  0  0
  7  8  1  0  0  0  0
  1  9  1  0  0  0  0
  7  9  1  0  0  0  0
  9 10  1  0  0  0  0
  9 11  1  0  0  0  0
  7 12  1  0  0  0  0
 12 13  1  0  0  0  0
M  END
> <VConfSearch Rank>
968

> <Conf_Id>
20

> <Delta U+W>
1.030

> <U+W>
-2.101

> <U>
0.841

> <W>
-2.942

> <W(PB)>
-4.530

> <W(SA)>
1.587

> <Valence>
6.736

> <Coulomb>
-7.246

> <VdW>
1.352

> <VdW6>
-2.500

> <VdW12>
3.851

> <Bond>
0.063

> <Angle>
0.687

> <Pdih>
5.986

> <Idih>
0.000

> <Tether>
0.000

$$$$
VeraChem MOL file


 13 13  0  0  0  0  0  0  0  0999 V2000     
   20.8936   19.5159   22.3180 C   0  0  0  0  0  0  0  0  0  0  0  0
   21.5023   19.6201   21.4101 H   0  0  0  0  0  0  0  0  0  0  0  0
   21.4463   19.9470   23.1613 H   0  0  0  0  0  0  0  0  0  0  0  0
   20.2973   18.0876   22.5454 C   0  0  0  0  0  0  0  0  0  0  0  0
   20.9049   17.2490   22.1880 H   0  0  0  0  0  0  0  0  0  0  0  0
   19.9843   17.8813   23.5763 H   0  0  0  0  0  0  0  0  0  0  0  0
   19.1524   18.5478   21.5932 C   0  0  0  0  0  0  0  0  0  0  0  0
   19.3944   18.4468   20.5265 H   0  0  0  0  0  0  0  0  0  0  0  0
   19.4061   19.9756   22.1644 C   0  0  0  0  0  0  0  0  0  0  0  0
   18.8939   20.1913   23.1102 H   0  0  0  0  0  0  0  0  0  0  0  0
   19.2268   20.8043   21.4707 H   0  0  0  0  0  0  0  0  0  0  0  0
   17.8832   18.0040   21.8670 O   0  0  0  0  0  0  0  0  0  0  0  0
   17.7232   18.1222   22.8268 H   0  0  0  0  0  0  0  0  0  0  0  0
  1  2  1  0  0  0  0
  1  3  1  0  0  0  0
  1  4  1  0  0  0  0
  4  5  1  0  0  0  0
  4  6  1  0  0  0  0
  4  7  1  0  0  0  0
  7  8  1  0  0  0  0
  1  9  1  0  0  0  0
  7  9  1  0  0  0  0
  9 10  1  0  0  0  0
  9 11  1  0  0  0  0
  7 12  1  0  0  0  0
 12 13  1  0  0  0  0
M  END
> <VConfSearch Rank>
969

> <Conf_Id>
24

> <Delta U+W>
0.356

> <U+W>
-2.775

> <U>
-0.184

> <W>
-2.591

> <W(PB)>
-4.184

> <W(SA)>
1.593

> <Valence>
6.840

> <Coulomb>
-7.916

> <VdW>
0.893

> <VdW6>
-2.167

> <VdW12>
3.060

> <Bond>
0.059

> <Angle>
0.918

> <Pdih>
5.862

> <Idih>
0.000

> <Tether>
0.000

$$$$
VeraChem MOL file


 13 13  0  0  0  0  0  0  0  0999 V2000     
   20.1896   17.9856   21.9870 C   0  0  0  0  0  0  0  0  0  0  0  0
   20.6826   17.3687   21.2262 H   0  0  0  0  0  0  0  0  0  0  0  0
   20.1616   17.4199   22.9270 H   0  0  0  0  0  0  0  0  0  0  0  0
   18.8272   18.6315   21.5664 C   0  0  0  0  0  0  0  0  0  0  0  0
   18.7453   18.8611   20.4970 H   0  0  0  0  0  0  0  0  0  0  0  0
   17.9226   18.0975   21.8781 H   0  0  0  0  0  0  0  0  0  0  0  0
   19.2376   19.8505   22.4493 C   0  0  0  0  0  0  0  0  0  0  0  0
   18.9240   20.8276   22.0602 H   0  0  0  0  0  0  0  0  0  0  0  0
   20.7103   19.4558   22.1185 C   0  0  0  0  0  0  0  0  0  0  0  0
   21.0902   19.8875   21.1845 H   0  0  0  0  0  0  0  0  0  0  0  0
   21.4448   19.6393   22.9108 H   0  0  0  0  0  0  0  0  0  0  0  0
   18.8870   19.7389   23.8118 O   0  0  0  0  0  0  0  0  0  0  0  0
   19.1890   18.8538   24.1031 H   0  0  0  0  0  0  0  0  0  0  0  0
  1  2  1  0  0  0  0
  1  3  1  0  0  0  0
  1  4  1  0  0  0  0
  4  5  1  0  0  0  0
  4  6  1  0  0  0  0
  4  7  1  0  0  0  0
  7  8  1  0  0  0  0
  1  9  1  0  0  0  0
  7  9  1  0  0  0  0
  9 10  1  0  0  0  0
  9 11  1  0  0  0  0
  7 12  1  0  0  0  0
 12 13  1  0  0  0  0
M  END
> <VConfSearch Rank>
970

> <Conf_Id>
44

> <Delta U+W>
0.823

> <U+W>
-2.308

> <U>
0.039

> <W>
-2.348

> <W(PB)>
-3.918

> <W(SA)>
1.571

> <Valence>
7.320

> <Coulomb>
-8.530

> <VdW>
1.249

> <VdW6>
-2.615

> <VdW12>
3.864

> <Bond>
0.056

> <Angle>
0.694

> <Pdih>
6.570

> <Idih>
0.000

> <Tether>
0.000

$$$$
VeraChem MOL file


 13 13  0  0  0  0  0  0  0  0999 V2000     
   20.2089   18.7390   21.0841 C   0  0  0  0  0  0  0  0  0  0  0  0
   20.5909   17.7108   21.0352 H   0  0  0  0  0  0  0  0  0  0  0  0
   20.3479   19.2114   20.1044 H   0  0  0  0  0  0  0  0  0  0  0  0
   20.7016   19.5622   22.3198 C   0  0  0  0  0  0  0  0  0  0  0  0
   21.7085   19.3315   22.6843 H   0  0  0  0  0  0  0  0  0  0  0  0
   20.6044   20.6500   22.2160 H   0  0  0  0  0  0  0  0  0  0  0  0
   19.5299   18.8798   23.0882 C   0  0  0  0  0  0  0  0  0  0  0  0
   19.7720   17.8765   23.4646 H   0  0  0  0  0  0  0  0  0  0  0  0
   18.7859   18.8791   21.7187 C   0  0  0  0  0  0  0  0  0  0  0  0
   18.0978   18.0437   21.5490 H   0  0  0  0  0  0  0  0  0  0  0  0
   18.2684   19.8169   21.4806 H   0  0  0  0  0  0  0  0  0  0  0  0
   18.9347   19.6624   24.0971 O   0  0  0  0  0  0  0  0  0  0  0  0
   18.1218   19.1947   24.3862 H   0  0  0  0  0  0  0  0  0  0  0  0
  1  2  1  0  0  0  0
  1  3  1  0  0  0  0
  1  4  1  0  0  0  0
  4  5  1  0  0  0  0
  4  6  1  0  0  0  0
  4  7  1  0  0  0  0
  7  8  1  0  0  0  0
  1  9  1  0  0  0  0
  7  9  1  0  0  0  0
  9 10  1  0  0  0  0
  9 11  1  0  0  0  0
  7 12  1  0  0  0  0
 12 13  1  0  0  0  0
M  END
> <VConfSearch Rank>
971

> <Conf_Id>
22

> <Delta U+W>
0.000

> <U+W>
-3.131

> <U>
-0.154

> <W>
-2.978

> <W(PB)>
-4.579

> <W(SA)>
1.601

> <Valence>
6.333

> <Coulomb>
-7.439

> <VdW>
0.952

> <VdW6>
-2.120

> <VdW12>
3.072

> <Bond>
0.065

> <Angle>
0.931

> <Pdih>
5.338

> <Idih>
0.000

> <Tether>
0.000

$$$$
VeraChem MOL file


 13 13  0  0  0  0  0  0  0  0999 V2000     
   18.6874   18.5901   21.3849 C   0  0  0  0  0  0  0  0  0  0  0  0
   19.0730   18.0784   20.4932 H   0  0  0  0  0  0  0  0  0  0  0  0
   17.6047   18.7219   21.2726 H   0  0  0  0  0  0  0  0  0  0  0  0
   19.4939   19.8614   21.8100 C   0  0  0  0  0  0  0  0  0  0  0  0
   18.9508   20.5486   22.4709 H   0  0  0  0  0  0  0  0  0  0  0  0
   19.9478   20.4388   20.9971 H   0  0  0  0  0  0  0  0  0  0  0  0
   20.4396   18.8659   22.5473 C   0  0  0  0  0  0  0  0  0  0  0  0
   21.1985   18.4079   21.8981 H   0  0  0  0  0  0  0  0  0  0  0  0
   19.1686   17.9861   22.7454 C   0  0  0  0  0  0  0  0  0  0  0  0
   18.5560   18.2613   23.6129 H   0  0  0  0  0  0  0  0  0  0  0  0
   19.3364   16.9037   22.7616 H   0  0  0  0  0  0  0  0  0  0  0  0
   21.0241   19.3550   23.7321 O   0  0  0  0  0  0  0  0  0  0  0  0
   21.7015   20.0153   23.4710 H   0  0  0  0  0  0  0  0  0  0  0  0
  1  2  1  0  0  0  0
  1  3  1  0  0  0  0
  1  4  1  0  0  0  0
  4  5  1  0  0  0  0
  4  6  1  0  0  0  0
  4  7  1  0  0  0  0
  7  8  1  0  0  0  0
  1  9  1  0  0  0  0
  7  9  1  0  0  0  0
  9 10  1  0  0  0  0
  9 11  1  0  0  0  0
  7 12  1  0  0  0  0
 12 13  1  0  0  0  0
M  END
> <VConfSearch Rank>
972

> <Conf_Id>
19

> <Delta U+W>
-0.011

> <U+W>
-3.142

> <U>
-0.154

> <W>
-2.989

> <W(PB)>
-4.588

> <W(SA)>
1.599

> <Valence>
6.334

> <Coulomb>
-7.439

> <VdW>
0.951

> <VdW6>
-2.120

> <VdW12>
3.072

> <Bond>
0.065

> <Angle>
0.930

> <Pdih>
5.339

> <Idih>
0.000

> <Tether>
0.000

$$$$
VeraChem MOL file


 13 13  0  0  0  0  0  0  0  0999 V2000     
   18.7526   18.7108   21.4892 C   0  0  0  0  0  0  0  0  0  0  0  0
   18.4090   18.7597   20.4493 H   0  0  0  0  0  0  0  0  0  0  0  0
   18.0805   18.0484   22.0503 H   0  0  0  0  0  0  0  0  0  0  0  0
   19.0416   20.0828   22.1842 C   0  0  0  0  0  0  0  0  0  0  0  0
   19.3912   20.8713   21.5068 H   0  0  0  0  0  0  0  0  0  0  0  0
   18.2347   20.4868   22.8055 H   0  0  0  0  0  0  0  0  0  0  0  0
   20.1837   19.3460   22.9511 C   0  0  0  0  0  0  0  0  0  0  0  0
   21.0764   19.9565   23.1384 H   0  0  0  0  0  0  0  0  0  0  0  0
   20.2759   18.4199   21.6981 C   0  0  0  0  0  0  0  0  0  0  0  0
   20.5433   17.3753   21.8920 H   0  0  0  0  0  0  0  0  0  0  0  0
   20.9248   18.8050   20.9021 H   0  0  0  0  0  0  0  0  0  0  0  0
   19.7803   18.7007   24.1423 O   0  0  0  0  0  0  0  0  0  0  0  0
   20.5276   18.1366   24.4347 H   0  0  0  0  0  0  0  0  0  0  0  0
  1  2  1  0  0  0  0
  1  3  1  0  0  0  0
  1  4  1  0  0  0  0
  4  5  1  0  0  0  0
  4  6  1  0  0  0  0
  4  7  1  0  0  0  0
  7  8  1  0  0  0  0
  1  9  1  0  0  0  0
  7  9  1  0  0  0  0
  9 10  1  0  0  0  0
  9 11  1  0  0  0  0
  7 12  1  0  0  0  0
 12 13  1  0  0  0  0
M  END
> <VConfSearch Rank>
973

> <Conf_Id>
20

> <Delta U+W>
1.030

> <U+W>
-2.101

> <U>
0.841

> <W>
-2.942

> <W(PB)>
-4.530

> <W(SA)>
1.587

> <Valence>
6.736

> <Coulomb>
-7.246

> <VdW>
1.352

> <VdW6>
-2.500

> <VdW12>
3.851

> <Bond>
0.063

> <Angle>
0.687

> <Pdih>
5.986

> <Idih>
0.000

> <Tether>
0.000

$$$$
VeraChem MOL file


 13 13  0  0  0  0  0  0  0  0999 V2000     
   19.8018   18.6531   20.9673 C   0  0  0  0  0  0  0  0  0  0  0  0
   19.8906   17.5927   20.6964 H   0  0  0  0  0  0  0  0  0  0  0  0
   19.7792   19.2487   20.0469 H   0  0  0  0  0  0  0  0  0  0  0  0
   20.8012   19.1319   22.0715 C   0  0  0  0  0  0  0  0  0  0  0  0
   21.7793   18.6383   22.0834 H   0  0  0  0  0  0  0  0  0  0  0  0
   20.9543   20.2175   22.1103 H   0  0  0  0  0  0  0  0  0  0  0  0
   19.7532   18.5818   23.0855 C   0  0  0  0  0  0  0  0  0  0  0  0
   19.8322   17.5006   23.2632 H   0  0  0  0  0  0  0  0  0  0  0  0
   18.6860   18.9685   22.0175 C   0  0  0  0  0  0  0  0  0  0  0  0
   18.3663   20.0175   22.0443 H   0  0  0  0  0  0  0  0  0  0  0  0
   17.7960   18.3306   21.9817 H   0  0  0  0  0  0  0  0  0  0  0  0
   19.6682   19.2795   24.3052 O   0  0  0  0  0  0  0  0  0  0  0  0
   19.6002   20.2322   24.0848 H   0  0  0  0  0  0  0  0  0  0  0  0
  1  2  1  0  0  0  0
  1  3  1  0  0  0  0
  1  4  1  0  0  0  0
  4  5  1  0  0  0  0
  4  6  1  0  0  0  0
  4  7  1  0  0  0  0
  7  8  1  0  0  0  0
  1  9  1  0  0  0  0
  7  9  1  0  0  0  0
  9 10  1  0  0  0  0
  9 11  1  0  0  0  0
  7 12  1  0  0  0  0
 12 13  1  0  0  0  0
M  END
> <VConfSearch Rank>
974

> <Conf_Id>
24

> <Delta U+W>
0.356

> <U+W>
-2.775

> <U>
-0.184

> <W>
-2.591

> <W(PB)>
-4.184

> <W(SA)>
1.593

> <Valence>
6.840

> <Coulomb>
-7.916

> <VdW>
0.893

> <VdW6>
-2.167

> <VdW12>
3.060

> <Bond>
0.059

> <Angle>
0.918

> <Pdih>
5.862

> <Idih>
0.000

> <Tether>
0.000

$$$$
VeraChem MOL file


 13 13  0  0  0  0  0  0  0  0999 V2000     
   18.6830   19.4156   22.4269 C   0  0  0  0  0  0  0  0  0  0  0  0
   17.7694   19.3425   23.0289 H   0  0  0  0  0  0  0  0  0  0  0  0
   18.5853   20.2754   21.7519 H   0  0  0  0  0  0  0  0  0  0  0  0
   19.1585   18.0911   21.7415 C   0  0  0  0  0  0  0  0  0  0  0  0
   18.9042   17.1783   22.2937 H   0  0  0  0  0  0  0  0  0  0  0  0
   18.8661   17.9571   20.6940 H   0  0  0  0  0  0  0  0  0  0  0  0
   20.6145   18.5966   21.9836 C   0  0  0  0  0  0  0  0  0  0  0  0
   21.3411   17.8102   22.2245 H   0  0  0  0  0  0  0  0  0  0  0  0
   20.0314   19.3502   23.2190 C   0  0  0  0  0  0  0  0  0  0  0  0
   19.9912   18.7461   24.1335 H   0  0  0  0  0  0  0  0  0  0  0  0
   20.4989   20.3122   23.4576 H   0  0  0  0  0  0  0  0  0  0  0  0
   21.1270   19.4325   20.9686 O   0  0  0  0  0  0  0  0  0  0  0  0
   20.4412   20.1101   20.7962 H   0  0  0  0  0  0  0  0  0  0  0  0
  1  2  1  0  0  0  0
  1  3  1  0  0  0  0
  1  4  1  0  0  0  0
  4  5  1  0  0  0  0
  4  6  1  0  0  0  0
  4  7  1  0  0  0  0
  7  8  1  0  0  0  0
  1  9  1  0  0  0  0
  7  9  1  0  0  0  0
  9 10  1  0  0  0  0
  9 11  1  0  0  0  0
  7 12  1  0  0  0  0
 12 13  1  0  0  0  0
M  END
> <VConfSearch Rank>
975

> <Conf_Id>
44

> <Delta U+W>
0.823

> <U+W>
-2.308

> <U>
0.039

> <W>
-2.348

> <W(PB)>
-3.918

> <W(SA)>
1.571

> <Valence>
7.320

> <Coulomb>
-8.530

> <VdW>
1.249

> <VdW6>
-2.615

> <VdW12>
3.864

> <Bond>
0.056

> <Angle>
0.694

> <Pdih>
6.570

> <Idih>
0.000

> <Tether>
0.000

$$$$
VeraChem MOL file


 13 13  0  0  0  0  0  0  0  0999 V2000     
   19.0690   17.8904   22.0131 C   0  0  0  0  0  0  0  0  0  0  0  0
   18.7211   17.3850   22.9236 H   0  0  0  0  0  0  0  0  0  0  0  0
   18.7637   17.2958   21.1438 H   0  0  0  0  0  0  0  0  0  0  0  0
   20.5670   18.3401   22.0459 C   0  0  0  0  0  0  0  0  0  0  0  0
   21.2510   17.7027   22.6168 H   0  0  0  0  0  0  0  0  0  0  0  0
   21.0090   18.5393   21.0617 H   0  0  0  0  0  0  0  0  0  0  0  0
   20.0440   19.6073   22.7871 C   0  0  0  0  0  0  0  0  0  0  0  0
   19.9027   19.4620   23.8669 H   0  0  0  0  0  0  0  0  0  0  0  0
   18.7440   19.4193   21.9481 C   0  0  0  0  0  0  0  0  0  0  0  0
   17.8132   19.7354   22.4317 H   0  0  0  0  0  0  0  0  0  0  0  0
   18.7843   19.8539   20.9415 H   0  0  0  0  0  0  0  0  0  0  0  0
   20.7602   20.7932   22.5314 O   0  0  0  0  0  0  0  0  0  0  0  0
   20.2436   21.5335   22.9165 H   0  0  0  0  0  0  0  0  0  0  0  0
  1  2  1  0  0  0  0
  1  3  1  0  0  0  0
  1  4  1  0  0  0  0
  4  5  1  0  0  0  0
  4  6  1  0  0  0  0
  4  7  1  0  0  0  0
  7  8  1  0  0  0  0
  1  9  1  0  0  0  0
  7  9  1  0  0  0  0
  9 10  1  0  0  0  0
  9 11  1  0  0  0  0
  7 12  1  0  0  0  0
 12 13  1  0  0  0  0
M  END
> <VConfSearch Rank>
976

> <Conf_Id>
22

> <Delta U+W>
0.000

> <U+W>
-3.131

> <U>
-0.154

> <W>
-2.978

> <W(PB)>
-4.579

> <W(SA)>
1.601

> <Valence>
6.333

> <Coulomb>
-7.439

> <VdW>
0.952

> <VdW6>
-2.120

> <VdW12>
3.072

> <Bond>
0.065

> <Angle>
0.931

> <Pdih>
5.338

> <Idih>
0.000

> <Tether>
0.000

$$$$
VeraChem MOL file


 13 13  0  0  0  0  0  0  0  0999 V2000     
   20.8510   19.2023   21.8306 C   0  0  0  0  0  0  0  0  0  0  0  0
   21.1394   18.6526   20.9249 H   0  0  0  0  0  0  0  0  0  0  0  0
   21.7068   19.8011   22.1645 H   0  0  0  0  0  0  0  0  0  0  0  0
   20.1496   18.3350   22.9274 C   0  0  0  0  0  0  0  0  0  0  0  0
   20.1559   18.7747   23.9326 H   0  0  0  0  0  0  0  0  0  0  0  0
   20.4741   17.2909   22.9971 H   0  0  0  0  0  0  0  0  0  0  0  0
   18.8417   18.5879   22.1182 C   0  0  0  0  0  0  0  0  0  0  0  0
   18.7050   17.9065   21.2673 H   0  0  0  0  0  0  0  0  0  0  0  0
   19.4830   19.9547   21.7316 C   0  0  0  0  0  0  0  0  0  0  0  0
   19.3407   20.7496   22.4742 H   0  0  0  0  0  0  0  0  0  0  0  0
   19.2153   20.3438   20.7432 H   0  0  0  0  0  0  0  0  0  0  0  0
   17.6640   18.6711   22.8867 O   0  0  0  0  0  0  0  0  0  0  0  0
   17.4557   17.7641   23.1986 H   0  0  0  0  0  0  0  0  0  0  0  0
  1  2  1  0  0  0  0
  1  3  1  0  0  0  0
  1  4  1  0  0  0  0
  4  5  1  0  0  0  0
  4  6  1  0  0  0  0
  4  7  1  0  0  0  0
  7  8  1  0  0  0  0
  1  9  1  0  0  0  0
  7  9  1  0  0  0  0
  9 10  1  0  0  0  0
  9 11  1  0  0  0  0
  7 12  1  0  0  0  0
 12 13  1  0  0  0  0
M  END
> <VConfSearch Rank>
977

> <Conf_Id>
19

> <Delta U+W>
-0.011

> <U+W>
-3.142

> <U>
-0.154

> <W>
-2.989

> <W(PB)>
-4.588

> <W(SA)>
1.599

> <Valence>
6.334

> <Coulomb>
-7.439

> <VdW>
0.951

> <VdW6>
-2.120

> <VdW12>
3.072

> <Bond>
0.065

> <Angle>
0.930

> <Pdih>
5.339

> <Idih>
0.000

> <Tether>
0.000

$$$$
VeraChem MOL file


 13 13  0  0  0  0  0  0  0  0999 V2000     
   19.8042   20.0201   21.5357 C   0  0  0  0  0  0  0  0  0  0  0  0
   20.4681   20.8558   21.2850 H   0  0  0  0  0  0  0  0  0  0  0  0
   18.9882   19.9877   20.8021 H   0  0  0  0  0  0  0  0  0  0  0  0
   19.3402   19.9331   23.0277 C   0  0  0  0  0  0  0  0  0  0  0  0
   20.0661   20.3195   23.7533 H   0  0  0  0  0  0  0  0  0  0  0  0
   18.3577   20.3631   23.2519 H   0  0  0  0  0  0  0  0  0  0  0  0
   19.3772   18.3831   22.8497 C   0  0  0  0  0  0  0  0  0  0  0  0
   19.7012   17.8284   23.7397 H   0  0  0  0  0  0  0  0  0  0  0  0
   20.4995   18.6427   21.7965 C   0  0  0  0  0  0  0  0  0  0  0  0
   20.5297   17.9514   20.9470 H   0  0  0  0  0  0  0  0  0  0  0  0
   21.5072   18.7165   22.2233 H   0  0  0  0  0  0  0  0  0  0  0  0
   18.1911   17.8155   22.3310 O   0  0  0  0  0  0  0  0  0  0  0  0
   18.3914   16.8831   22.1011 H   0  0  0  0  0  0  0  0  0  0  0  0
  1  2  1  0  0  0  0
  1  3  1  0  0  0  0
  1  4  1  0  0  0  0
  4  5  1  0  0  0  0
  4  6  1  0  0  0  0
  4  7  1  0  0  0  0
  7  8  1  0  0  0  0
  1  9  1  0  0  0  0
  7  9  1  0  0  0  0
  9 10  1  0  0  0  0
  9 11  1  0  0  0  0
  7 12  1  0  0  0  0
 12 13  1  0  0  0  0
M  END
> <VConfSearch Rank>
978

> <Conf_Id>
20

> <Delta U+W>
1.030

> <U+W>
-2.101

> <U>
0.841

> <W>
-2.942

> <W(PB)>
-4.530

> <W(SA)>
1.587

> <Valence>
6.736

> <Coulomb>
-7.246

> <VdW>
1.352

> <VdW6>
-2.500

> <VdW12>
3.851

> <Bond>
0.063

> <Angle>
0.687

> <Pdih>
5.986

> <Idih>
0.000

> <Tether>
0.000

$$$$
VeraChem MOL file


 13 13  0  0  0  0  0  0  0  0999 V2000     
   18.9461   18.3605   23.0185 C   0  0  0  0  0  0  0  0  0  0  0  0
   17.9687   18.0418   22.6328 H   0  0  0  0  0  0  0  0  0  0  0  0
   19.0141   18.0780   24.0759 H   0  0  0  0  0  0  0  0  0  0  0  0
   19.3352   19.8363   22.6751 C   0  0  0  0  0  0  0  0  0  0  0  0
   18.5070   20.5505   22.6099 H   0  0  0  0  0  0  0  0  0  0  0  0
   20.1187   20.2632   23.3133 H   0  0  0  0  0  0  0  0  0  0  0  0
   19.8387   19.2582   21.3181 C   0  0  0  0  0  0  0  0  0  0  0  0
   19.0457   19.1286   20.5690 H   0  0  0  0  0  0  0  0  0  0  0  0
   20.1645   17.9630   22.1213 C   0  0  0  0  0  0  0  0  0  0  0  0
   21.1333   17.9711   22.6357 H   0  0  0  0  0  0  0  0  0  0  0  0
   20.0687   17.0228   21.5671 H   0  0  0  0  0  0  0  0  0  0  0  0
   20.9490   19.9160   20.7556 O   0  0  0  0  0  0  0  0  0  0  0  0
   21.6191   20.0027   21.4657 H   0  0  0  0  0  0  0  0  0  0  0  0
  1  2  1  0  0  0  0
  1  3  1  0  0  0  0
  1  4  1  0  0  0  0
  4  5  1  0  0  0  0
  4  6  1  0  0  0  0
  4  7  1  0  0  0  0
  7  8  1  0  0  0  0
  1  9  1  0  0  0  0
  7  9  1  0  0  0  0
  9 10  1  0  0  0  0
  9 11  1  0  0  0  0
  7 12  1  0  0  0  0
 12 13  1  0  0  0  0
M  END
> <VConfSearch Rank>
979

> <Conf_Id>
24

> <Delta U+W>
0.356

> <U+W>
-2.775

> <U>
-0.184

> <W>
-2.591

> <W(PB)>
-4.184

> <W(SA)>
1.593

> <Valence>
6.840

> <Coulomb>
-7.916

> <VdW>
0.893

> <VdW6>
-2.167

> <VdW12>
3.060

> <Bond>
0.059

> <Angle>
0.918

> <Pdih>
5.862

> <Idih>
0.000

> <Tether>
0.000

$$$$
VeraChem MOL file


 13 13  0  0  0  0  0  0  0  0999 V2000     
   18.9110   19.7755   22.2885 C   0  0  0  0  0  0  0  0  0  0  0  0
   18.5335   20.7184   21.8753 H   0  0  0  0  0  0  0  0  0  0  0  0
   18.2686   19.4838   23.1292 H   0  0  0  0  0  0  0  0  0  0  0  0
   20.4471   19.7247   22.5851 C   0  0  0  0  0  0  0  0  0  0  0  0
   21.0579   20.3477   21.9205 H   0  0  0  0  0  0  0  0  0  0  0  0
   20.7461   19.9230   23.6204 H   0  0  0  0  0  0  0  0  0  0  0  0
   20.3845   18.2223   22.1694 C   0  0  0  0  0  0  0  0  0  0  0  0
   21.2707   17.8543   21.6367 H   0  0  0  0  0  0  0  0  0  0  0  0
   19.1941   18.6384   21.2508 C   0  0  0  0  0  0  0  0  0  0  0  0
   19.4978   18.9951   20.2590 H   0  0  0  0  0  0  0  0  0  0  0  0
   18.4026   17.8912   21.1247 H   0  0  0  0  0  0  0  0  0  0  0  0
   20.0448   17.3336   23.2118 O   0  0  0  0  0  0  0  0  0  0  0  0
   19.2531   17.7101   23.6487 H   0  0  0  0  0  0  0  0  0  0  0  0
  1  2  1  0  0  0  0
  1  3  1  0  0  0  0
  1  4  1  0  0  0  0
  4  5  1  0  0  0  0
  4  6  1  0  0  0  0
  4  7  1  0  0  0  0
  7  8  1  0  0  0  0
  1  9  1  0  0  0  0
  7  9  1  0  0  0  0
  9 10  1  0  0  0  0
  9 11  1  0  0  0  0
  7 12  1  0  0  0  0
 12 13  1  0  0  0  0
M  END
> <VConfSearch Rank>
980

> <Conf_Id>
44

> <Delta U+W>
0.823

> <U+W>
-2.308

> <U>
0.039

> <W>
-2.348

> <W(PB)>
-3.918

> <W(SA)>
1.571

> <Valence>
7.320

> <Coulomb>
-8.530

> <VdW>
1.249

> <VdW6>
-2.615

> <VdW12>
3.864

> <Bond>
0.056

> <Angle>
0.694

> <Pdih>
6.570

> <Idih>
0.000

> <Tether>
0.000

$$$$
VeraChem MOL file


 13 13  0  0  0  0  0  0  0  0999 V2000     
   19.0885   20.0572   21.6338 C   0  0  0  0  0  0  0  0  0  0  0  0
   19.3106   20.1012   20.5594 H   0  0  0  0  0  0  0  0  0  0  0  0
   18.3887   20.8646   21.8802 H   0  0  0  0  0  0  0  0  0  0  0  0
   20.3451   19.9316   22.5571 C   0  0  0  0  0  0  0  0  0  0  0  0
   21.2565   20.4257   22.2034 H   0  0  0  0  0  0  0  0  0  0  0  0
   20.1759   20.2110   23.6044 H   0  0  0  0  0  0  0  0  0  0  0  0
   20.2499   18.4021   22.2735 C   0  0  0  0  0  0  0  0  0  0  0  0
   20.7210   18.0967   21.3291 H   0  0  0  0  0  0  0  0  0  0  0  0
   18.7125   18.6354   22.1669 C   0  0  0  0  0  0  0  0  0  0  0  0
   18.1776   17.9839   21.4672 H   0  0  0  0  0  0  0  0  0  0  0  0
   18.1832   18.6317   23.1280 H   0  0  0  0  0  0  0  0  0  0  0  0
   20.6609   17.5668   23.3307 O   0  0  0  0  0  0  0  0  0  0  0  0
   20.4021   16.6501   23.0944 H   0  0  0  0  0  0  0  0  0  0  0  0
  1  2  1  0  0  0  0
  1  3  1  0  0  0  0
  1  4  1  0  0  0  0
  4  5  1  0  0  0  0
  4  6  1  0  0  0  0
  4  7  1  0  0  0  0
  7  8  1  0  0  0  0
  1  9  1  0  0  0  0
  7  9  1  0  0  0  0
  9 10  1  0  0  0  0
  9 11  1  0  0  0  0
  7 12  1  0  0  0  0
 12 13  1  0  0  0  0
M  END
> <VConfSearch Rank>
981

> <Conf_Id>
22

> <Delta U+W>
0.000

> <U+W>
-3.131

> <U>
-0.154

> <W>
-2.978

> <W(PB)>
-4.579

> <W(SA)>
1.601

> <Valence>
6.333

> <Coulomb>
-7.439

> <VdW>
0.952

> <VdW6>
-2.120

> <VdW12>
3.072

> <Bond>
0.065

> <Angle>
0.931

> <Pdih>
5.338

> <Idih>
0.000

> <Tether>
0.000

$$$$
VeraChem MOL file


 13 13  0  0  0  0  0  0  0  0999 V2000     
   19.6686   20.0547   21.5639 C   0  0  0  0  0  0  0  0  0  0  0  0
   19.1303   20.8783   22.0512 H   0  0  0  0  0  0  0  0  0  0  0  0
   20.0505   20.4082   20.5987 H   0  0  0  0  0  0  0  0  0  0  0  0
   18.8994   18.6927   21.5412 C   0  0  0  0  0  0  0  0  0  0  0  0
   19.2618   17.9743   20.7953 H   0  0  0  0  0  0  0  0  0  0  0  0
   17.8081   18.7563   21.4685 H   0  0  0  0  0  0  0  0  0  0  0  0
   19.4742   18.4833   22.9746 C   0  0  0  0  0  0  0  0  0  0  0  0
   18.8935   18.9789   23.7647 H   0  0  0  0  0  0  0  0  0  0  0  0
   20.6972   19.3128   22.4797 C   0  0  0  0  0  0  0  0  0  0  0  0
   21.4545   18.7291   21.9417 H   0  0  0  0  0  0  0  0  0  0  0  0
   21.1972   19.9236   23.2392 H   0  0  0  0  0  0  0  0  0  0  0  0
   19.7539   17.1471   23.3227 O   0  0  0  0  0  0  0  0  0  0  0  0
   18.8929   16.6952   23.4559 H   0  0  0  0  0  0  0  0  0  0  0  0
  1  2  1  0  0  0  0
  1  3  1  0  0  0  0
  1  4  1  0  0  0  0
  4  5  1  0  0  0  0
  4  6  1  0  0  0  0
  4  7  1  0  0  0  0
  7  8  1  0  0  0  0
  1  9  1  0  0  0  0
  7  9  1  0  0  0  0
  9 10  1  0  0  0  0
  9 11  1  0  0  0  0
  7 12  1  0  0  0  0
 12 13  1  0  0  0  0
M  END
> <VConfSearch Rank>
982

> <Conf_Id>
19

> <Delta U+W>
-0.011

> <U+W>
-3.142

> <U>
-0.154

> <W>
-2.989

> <W(PB)>
-4.588

> <W(SA)>
1.599

> <Valence>
6.334

> <Coulomb>
-7.439

> <VdW>
0.951

> <VdW6>
-2.120

> <VdW12>
3.072

> <Bond>
0.065

> <Angle>
0.930

> <Pdih>
5.339

> <Idih>
0.000

> <Tether>
0.000

$$$$
VeraChem MOL file


 13 13  0  0  0  0  0  0  0  0999 V2000     
   19.4674   17.8920   21.9055 C   0  0  0  0  0  0  0  0  0  0  0  0
   19.9645   16.9440   21.6684 H   0  0  0  0  0  0  0  0  0  0  0  0
   18.3815   17.7456   21.8375 H   0  0  0  0  0  0  0  0  0  0  0  0
   20.0008   19.1562   21.1530 C   0  0  0  0  0  0  0  0  0  0  0  0
   21.0684   19.1210   20.9044 H   0  0  0  0  0  0  0  0  0  0  0  0
   19.4424   19.4552   20.2590 H   0  0  0  0  0  0  0  0  0  0  0  0
   19.6733   19.9522   22.4547 C   0  0  0  0  0  0  0  0  0  0  0  0
   20.3779   20.7617   22.6849 H   0  0  0  0  0  0  0  0  0  0  0  0
   19.9461   18.6134   23.2090 C   0  0  0  0  0  0  0  0  0  0  0  0
   19.3421   18.4360   24.1057 H   0  0  0  0  0  0  0  0  0  0  0  0
   21.0008   18.4460   23.4592 H   0  0  0  0  0  0  0  0  0  0  0  0
   18.3449   20.4274   22.5429 O   0  0  0  0  0  0  0  0  0  0  0  0
   18.2115   20.7490   23.4599 H   0  0  0  0  0  0  0  0  0  0  0  0
  1  2  1  0  0  0  0
  1  3  1  0  0  0  0
  1  4  1  0  0  0  0
  4  5  1  0  0  0  0
  4  6  1  0  0  0  0
  4  7  1  0  0  0  0
  7  8  1  0  0  0  0
  1  9  1  0  0  0  0
  7  9  1  0  0  0  0
  9 10  1  0  0  0  0
  9 11  1  0  0  0  0
  7 12  1  0  0  0  0
 12 13  1  0  0  0  0
M  END
> <VConfSearch Rank>
983

> <Conf_Id>
20

> <Delta U+W>
1.030

> <U+W>
-2.101

> <U>
0.841

> <W>
-2.942

> <W(PB)>
-4.530

> <W(SA)>
1.587

> <Valence>
6.736

> <Coulomb>
-7.246

> <VdW>
1.352

> <VdW6>
-2.500

> <VdW12>
3.851

> <Bond>
0.063

> <Angle>
0.687

> <Pdih>
5.986

> <Idih>
0.000

> <Tether>
0.000

$$$$
VeraChem MOL file


 13 13  0  0  0  0  0  0  0  0999 V2000     
   19.4310   20.1671   21.9479 C   0  0  0  0  0  0  0  0  0  0  0  0
   19.3374   20.4572   20.8930 H   0  0  0  0  0  0  0  0  0  0  0  0
   19.2180   21.0431   22.5720 H   0  0  0  0  0  0  0  0  0  0  0  0
   20.7355   19.3765   22.2954 C   0  0  0  0  0  0  0  0  0  0  0  0
   21.6260   19.6354   21.7122 H   0  0  0  0  0  0  0  0  0  0  0  0
   21.0000   19.3757   23.3600 H   0  0  0  0  0  0  0  0  0  0  0  0
   19.9538   18.1169   21.8140 C   0  0  0  0  0  0  0  0  0  0  0  0
   19.9708   17.9731   20.7251 H   0  0  0  0  0  0  0  0  0  0  0  0
   18.6800   18.8499   22.3330 C   0  0  0  0  0  0  0  0  0  0  0  0
   18.4851   18.7314   23.4060 H   0  0  0  0  0  0  0  0  0  0  0  0
   17.7552   18.6437   21.7829 H   0  0  0  0  0  0  0  0  0  0  0  0
   20.2733   16.9171   22.4775 O   0  0  0  0  0  0  0  0  0  0  0  0
   20.2425   17.1058   23.4389 H   0  0  0  0  0  0  0  0  0  0  0  0
  1  2  1  0  0  0  0
  1  3  1  0  0  0  0
  1  4  1  0  0  0  0
  4  5  1  0  0  0  0
  4  6  1  0  0  0  0
  4  7  1  0  0  0  0
  7  8  1  0  0  0  0
  1  9  1  0  0  0  0
  7  9  1  0  0  0  0
  9 10  1  0  0  0  0
  9 11  1  0  0  0  0
  7 12  1  0  0  0  0
 12 13  1  0  0  0  0
M  END
> <VConfSearch Rank>
984

> <Conf_Id>
24

> <Delta U+W>
0.356

> <U+W>
-2.775

> <U>
-0.184

> <W>
-2.591

> <W(PB)>
-4.184

> <W(SA)>
1.593

> <Valence>
6.840

> <Coulomb>
-7.916

> <VdW>
0.893

> <VdW6>
-2.167

> <VdW12>
3.060

> <Bond>
0.059

> <Angle>
0.918

> <Pdih>
5.862

> <Idih>
0.000

> <Tether>
0.000

$$$$
VeraChem MOL file


 13 13  0  0  0  0  0  0  0  0999 V2000     
   19.7446   20.0931   22.2681 C   0  0  0  0  0  0  0  0  0  0  0  0
   19.7402   21.0329   21.7032 H   0  0  0  0  0  0  0  0  0  0  0  0
   19.8371   20.3308   23.3354 H   0  0  0  0  0  0  0  0  0  0  0  0
   20.7270   18.9891   21.7519 C   0  0  0  0  0  0  0  0  0  0  0  0
   20.9062   19.0117   20.6700 H   0  0  0  0  0  0  0  0  0  0  0  0
   21.6938   18.9249   22.2637 H   0  0  0  0  0  0  0  0  0  0  0  0
   19.6497   17.9521   22.1969 C   0  0  0  0  0  0  0  0  0  0  0  0
   19.5628   17.0710   21.5484 H   0  0  0  0  0  0  0  0  0  0  0  0
   18.6067   19.0777   21.9158 C   0  0  0  0  0  0  0  0  0  0  0  0
   18.2660   19.1220   20.8742 H   0  0  0  0  0  0  0  0  0  0  0  0
   17.7279   19.0905   22.5703 H   0  0  0  0  0  0  0  0  0  0  0  0
   19.7373   17.5505   23.5470 O   0  0  0  0  0  0  0  0  0  0  0  0
   19.8125   18.3719   24.0752 H   0  0  0  0  0  0  0  0  0  0  0  0
  1  2  1  0  0  0  0
  1  3  1  0  0  0  0
  1  4  1  0  0  0  0
  4  5  1  0  0  0  0
  4  6  1  0  0  0  0
  4  7  1  0  0  0  0
  7  8  1  0  0  0  0
  1  9  1  0  0  0  0
  7  9  1  0  0  0  0
  9 10  1  0  0  0  0
  9 11  1  0  0  0  0
  7 12  1  0  0  0  0
 12 13  1  0  0  0  0
M  END
> <VConfSearch Rank>
985

> <Conf_Id>
44

> <Delta U+W>
0.823

> <U+W>
-2.308

> <U>
0.039

> <W>
-2.348

> <W(PB)>
-3.918

> <W(SA)>
1.571

> <Valence>
7.320

> <Coulomb>
-8.530

> <VdW>
1.249

> <VdW6>
-2.615

> <VdW12>
3.864

> <Bond>
0.056

> <Angle>
0.694

> <Pdih>
6.570

> <Idih>
0.000

> <Tether>
0.000

$$$$
VeraChem MOL file


 13 13  0  0  0  0  0  0  0  0999 V2000     
   20.6718   19.7096   22.7845 C   0  0  0  0  0  0  0  0  0  0  0  0
   21.6012   19.6405   22.2039 H   0  0  0  0  0  0  0  0  0  0  0  0
   20.8417   20.3741   23.6400 H   0  0  0  0  0  0  0  0  0  0  0  0
   19.9972   18.3351   23.1056 C   0  0  0  0  0  0  0  0  0  0  0  0
   20.6741   17.4860   23.2496 H   0  0  0  0  0  0  0  0  0  0  0  0
   19.2785   18.3581   23.9342 H   0  0  0  0  0  0  0  0  0  0  0  0
   19.3552   18.4575   21.6908 C   0  0  0  0  0  0  0  0  0  0  0  0
   20.0111   18.1210   20.8762 H   0  0  0  0  0  0  0  0  0  0  0  0
   19.3894   19.9964   21.9357 C   0  0  0  0  0  0  0  0  0  0  0  0
   19.5297   20.6190   21.0453 H   0  0  0  0  0  0  0  0  0  0  0  0
   18.5385   20.3858   22.5085 H   0  0  0  0  0  0  0  0  0  0  0  0
   18.0696   17.8961   21.5621 O   0  0  0  0  0  0  0  0  0  0  0  0
   17.7148   18.1785   20.6917 H   0  0  0  0  0  0  0  0  0  0  0  0
  1  2  1  0  0  0  0
  1  3  1  0  0  0  0
  1  4  1  0  0  0  0
  4  5  1  0  0  0  0
  4  6  1  0  0  0  0
  4  7  1  0  0  0  0
  7  8  1  0  0  0  0
  1  9  1  0  0  0  0
  7  9  1  0  0  0  0
  9 10  1  0  0  0  0
  9 11  1  0  0  0  0
  7 12  1  0  0  0  0
 12 13  1  0  0  0  0
M  END
> <VConfSearch Rank>
986

> <Conf_Id>
22

> <Delta U+W>
0.000

> <U+W>
-3.131

> <U>
-0.154

> <W>
-2.978

> <W(PB)>
-4.579

> <W(SA)>
1.601

> <Valence>
6.333

> <Coulomb>
-7.439

> <VdW>
0.952

> <VdW6>
-2.120

> <VdW12>
3.072

> <Bond>
0.065

> <Angle>
0.931

> <Pdih>
5.338

> <Idih>
0.000

> <Tether>
0.000

$$$$
VeraChem MOL file


 13 13  0  0  0  0  0  0  0  0999 V2000     
   18.7359   19.7437   22.7693 C   0  0  0  0  0  0  0  0  0  0  0  0
   19.1752   20.6549   23.1963 H   0  0  0  0  0  0  0  0  0  0  0  0
   17.6550   19.7565   22.9531 H   0  0  0  0  0  0  0  0  0  0  0  0
   19.4810   18.4201   23.1439 C   0  0  0  0  0  0  0  0  0  0  0  0
   18.8882   17.5068   23.0089 H   0  0  0  0  0  0  0  0  0  0  0  0
   19.9489   18.3938   24.1341 H   0  0  0  0  0  0  0  0  0  0  0  0
   20.4279   18.7594   21.9533 C   0  0  0  0  0  0  0  0  0  0  0  0
   21.2280   19.4679   22.2078 H   0  0  0  0  0  0  0  0  0  0  0  0
   19.1797   19.4285   21.3027 C   0  0  0  0  0  0  0  0  0  0  0  0
   18.5227   18.7359   20.7622 H   0  0  0  0  0  0  0  0  0  0  0  0
   19.3827   20.2938   20.6622 H   0  0  0  0  0  0  0  0  0  0  0  0
   20.9457   17.6481   21.2594 O   0  0  0  0  0  0  0  0  0  0  0  0
   21.6111   17.2249   21.8437 H   0  0  0  0  0  0  0  0  0  0  0  0
  1  2  1  0  0  0  0
  1  3  1  0  0  0  0
  1  4  1  0  0  0  0
  4  5  1  0  0  0  0
  4  6  1  0  0  0  0
  4  7  1  0  0  0  0
  7  8  1  0  0  0  0
  1  9  1  0  0  0  0
  7  9  1  0  0  0  0
  9 10  1  0  0  0  0
  9 11  1  0  0  0  0
  7 12  1  0  0  0  0
 12 13  1  0  0  0  0
M  END
> <VConfSearch Rank>
987

> <Conf_Id>
19

> <Delta U+W>
-0.011

> <U+W>
-3.142

> <U>
-0.154

> <W>
-2.989

> <W(PB)>
-4.588

> <W(SA)>
1.599

> <Valence>
6.334

> <Coulomb>
-7.439

> <VdW>
0.951

> <VdW6>
-2.120

> <VdW12>
3.072

> <Bond>
0.065

> <Angle>
0.930

> <Pdih>
5.339

> <Idih>
0.000

> <Tether>
0.000

$$$$
VeraChem MOL file


 13 13  0  0  0  0  0  0  0  0999 V2000     
   20.1770   17.9520   22.1958 C   0  0  0  0  0  0  0  0  0  0  0  0
   21.1217   17.4272   22.0111 H   0  0  0  0  0  0  0  0  0  0  0  0
   19.4126   17.2131   22.4695 H   0  0  0  0  0  0  0  0  0  0  0  0
   19.7299   18.9724   21.0967 C   0  0  0  0  0  0  0  0  0  0  0  0
   20.5562   19.4598   20.5652 H   0  0  0  0  0  0  0  0  0  0  0  0
   19.0098   18.6006   20.3594 H   0  0  0  0  0  0  0  0  0  0  0  0
   19.1307   19.8201   22.2620 C   0  0  0  0  0  0  0  0  0  0  0  0
   19.2078   20.9062   22.1236 H   0  0  0  0  0  0  0  0  0  0  0  0
   20.2527   19.1923   23.1469 C   0  0  0  0  0  0  0  0  0  0  0  0
   19.9917   19.0104   24.1953 H   0  0  0  0  0  0  0  0  0  0  0  0
   21.2065   19.7329   23.1128 H   0  0  0  0  0  0  0  0  0  0  0  0
   17.8120   19.4721   22.6336 O   0  0  0  0  0  0  0  0  0  0  0  0
   17.6132   19.9405   23.4722 H   0  0  0  0  0  0  0  0  0  0  0  0
  1  2  1  0  0  0  0
  1  3  1  0  0  0  0
  1  4  1  0  0  0  0
  4  5  1  0  0  0  0
  4  6  1  0  0  0  0
  4  7  1  0  0  0  0
  7  8  1  0  0  0  0
  1  9  1  0  0  0  0
  7  9  1  0  0  0  0
  9 10  1  0  0  0  0
  9 11  1  0  0  0  0
  7 12  1  0  0  0  0
 12 13  1  0  0  0  0
M  END
> <VConfSearch Rank>
988

> <Conf_Id>
20

> <Delta U+W>
1.030

> <U+W>
-2.101

> <U>
0.841

> <W>
-2.942

> <W(PB)>
-4.530

> <W(SA)>
1.587

> <Valence>
6.736

> <Coulomb>
-7.246

> <VdW>
1.352

> <VdW6>
-2.500

> <VdW12>
3.851

> <Bond>
0.063

> <Angle>
0.687

> <Pdih>
5.986

> <Idih>
0.000

> <Tether>
0.000

$$$$
VeraChem MOL file


 13 13  0  0  0  0  0  0  0  0999 V2000     
   19.6170   20.0089   22.9274 C   0  0  0  0  0  0  0  0  0  0  0  0
   18.6913   20.1289   23.5057 H   0  0  0  0  0  0  0  0  0  0  0  0
   20.2584   20.8795   23.1090 H   0  0  0  0  0  0  0  0  0  0  0  0
   19.4052   19.6118   21.4292 C   0  0  0  0  0  0  0  0  0  0  0  0
   18.5008   20.0026   20.9500 H   0  0  0  0  0  0  0  0  0  0  0  0
   20.2640   19.8129   20.7768 H   0  0  0  0  0  0  0  0  0  0  0  0
   19.3128   18.1485   21.9576 C   0  0  0  0  0  0  0  0  0  0  0  0
   18.3176   17.8739   22.3329 H   0  0  0  0  0  0  0  0  0  0  0  0
   20.3011   18.6094   23.0712 C   0  0  0  0  0  0  0  0  0  0  0  0
   21.3601   18.5864   22.7859 H   0  0  0  0  0  0  0  0  0  0  0  0
   20.1879   18.1148   24.0422 H   0  0  0  0  0  0  0  0  0  0  0  0
   19.8040   17.1587   21.0853 O   0  0  0  0  0  0  0  0  0  0  0  0
   20.6882   17.4565   20.7848 H   0  0  0  0  0  0  0  0  0  0  0  0
  1  2  1  0  0  0  0
  1  3  1  0  0  0  0
  1  4  1  0  0  0  0
  4  5  1  0  0  0  0
  4  6  1  0  0  0  0
  4  7  1  0  0  0  0
  7  8  1  0  0  0  0
  1  9  1  0  0  0  0
  7  9  1  0  0  0  0
  9 10  1  0  0  0  0
  9 11  1  0  0  0  0
  7 12  1  0  0  0  0
 12 13  1  0  0  0  0
M  END
> <VConfSearch Rank>
989

> <Conf_Id>
24

> <Delta U+W>
0.356

> <U+W>
-2.775

> <U>
-0.184

> <W>
-2.591

> <W(PB)>
-4.184

> <W(SA)>
1.593

> <Valence>
6.840

> <Coulomb>
-7.916

> <VdW>
0.893

> <VdW6>
-2.167

> <VdW12>
3.060

> <Bond>
0.059

> <Angle>
0.918

> <Pdih>
5.862

> <Idih>
0.000

> <Tether>
0.000

$$$$
VeraChem MOL file


 13 13  0  0  0  0  0  0  0  0999 V2000     
   18.6088   19.2617   22.2823 C   0  0  0  0  0  0  0  0  0  0  0  0
   17.8862   19.9742   22.6978 H   0  0  0  0  0  0  0  0  0  0  0  0
   18.0609   18.5184   21.6894 H   0  0  0  0  0  0  0  0  0  0  0  0
   19.6409   18.6643   23.2962 C   0  0  0  0  0  0  0  0  0  0  0  0
   19.9035   19.3345   24.1238 H   0  0  0  0  0  0  0  0  0  0  0  0
   19.3972   17.6793   23.7099 H   0  0  0  0  0  0  0  0  0  0  0  0
   20.6648   18.6751   22.1192 C   0  0  0  0  0  0  0  0  0  0  0  0
   21.6978   18.9062   22.4092 H   0  0  0  0  0  0  0  0  0  0  0  0
   19.8527   19.8874   21.5672 C   0  0  0  0  0  0  0  0  0  0  0  0
   20.1672   20.8576   21.9709 H   0  0  0  0  0  0  0  0  0  0  0  0
   19.7934   19.9671   20.4760 H   0  0  0  0  0  0  0  0  0  0  0  0
   20.6391   17.5246   21.3022 O   0  0  0  0  0  0  0  0  0  0  0  0
   19.6992   17.3675   21.0759 H   0  0  0  0  0  0  0  0  0  0  0  0
  1  2  1  0  0  0  0
  1  3  1  0  0  0  0
  1  4  1  0  0  0  0
  4  5  1  0  0  0  0
  4  6  1  0  0  0  0
  4  7  1  0  0  0  0
  7  8  1  0  0  0  0
  1  9  1  0  0  0  0
  7  9  1  0  0  0  0
  9 10  1  0  0  0  0
  9 11  1  0  0  0  0
  7 12  1  0  0  0  0
 12 13  1  0  0  0  0
M  END
> <VConfSearch Rank>
990

> <Conf_Id>
44

> <Delta U+W>
0.823

> <U+W>
-2.308

> <U>
0.039

> <W>
-2.348

> <W(PB)>
-3.918

> <W(SA)>
1.571

> <Valence>
7.320

> <Coulomb>
-8.530

> <VdW>
1.249

> <VdW6>
-2.615

> <VdW12>
3.864

> <Bond>
0.056

> <Angle>
0.694

> <Pdih>
6.570

> <Idih>
0.000

> <Tether>
0.000

$$$$
VeraChem MOL file


 13 13  0  0  0  0  0  0  0  0999 V2000     
   19.3884   18.5978   21.0378 C   0  0  0  0  0  0  0  0  0  0  0  0
   20.2800   18.4134   20.4241 H   0  0  0  0  0  0  0  0  0  0  0  0
   18.5015   18.3011   20.4652 H   0  0  0  0  0  0  0  0  0  0  0  0
   19.3340   20.0117   21.7049 C   0  0  0  0  0  0  0  0  0  0  0  0
   19.7922   20.8309   21.1402 H   0  0  0  0  0  0  0  0  0  0  0  0
   18.3363   20.3259   22.0359 H   0  0  0  0  0  0  0  0  0  0  0  0
   20.2174   19.3834   22.8246 C   0  0  0  0  0  0  0  0  0  0  0  0
   21.2896   19.3666   22.5857 H   0  0  0  0  0  0  0  0  0  0  0  0
   19.4762   18.0511   22.5009 C   0  0  0  0  0  0  0  0  0  0  0  0
   20.0594   17.1340   22.6389 H   0  0  0  0  0  0  0  0  0  0  0  0
   18.5087   17.9336   23.0049 H   0  0  0  0  0  0  0  0  0  0  0  0
   20.0015   19.8939   24.1197 O   0  0  0  0  0  0  0  0  0  0  0  0
   20.4874   19.3145   24.7453 H   0  0  0  0  0  0  0  0  0  0  0  0
  1  2  1  0  0  0  0
  1  3  1  0  0  0  0
  1  4  1  0  0  0  0
  4  5  1  0  0  0  0
  4  6  1  0  0  0  0
  4  7  1  0  0  0  0
  7  8  1  0  0  0  0
  1  9  1  0  0  0  0
  7  9  1  0  0  0  0
  9 10  1  0  0  0  0
  9 11  1  0  0  0  0
  7 12  1  0  0  0  0
 12 13  1  0  0  0  0
M  END
> <VConfSearch Rank>
991

> <Conf_Id>
22

> <Delta U+W>
0.000

> <U+W>
-3.131

> <U>
-0.154

> <W>
-2.978

> <W(PB)>
-4.579

> <W(SA)>
1.601

> <Valence>
6.333

> <Coulomb>
-7.439

> <VdW>
0.952

> <VdW6>
-2.120

> <VdW12>
3.072

> <Bond>
0.065

> <Angle>
0.931

> <Pdih>
5.338

> <Idih>
0.000

> <Tether>
0.000

$$$$
VeraChem MOL file


 13 13  0  0  0  0  0  0  0  0999 V2000     
   20.3597   18.9515   23.3447 C   0  0  0  0  0  0  0  0  0  0  0  0
   20.9377   19.8774   23.4634 H   0  0  0  0  0  0  0  0  0  0  0  0
   20.6044   18.2769   24.1738 H   0  0  0  0  0  0  0  0  0  0  0  0
   20.4121   18.3261   21.9117 C   0  0  0  0  0  0  0  0  0  0  0  0
   20.1279   17.2675   21.8632 H   0  0  0  0  0  0  0  0  0  0  0  0
   21.3473   18.4659   21.3585 H   0  0  0  0  0  0  0  0  0  0  0  0
   19.2632   19.3214   21.5675 C   0  0  0  0  0  0  0  0  0  0  0  0
   19.6105   20.3318   21.3112 H   0  0  0  0  0  0  0  0  0  0  0  0
   18.8364   19.1632   23.0580 C   0  0  0  0  0  0  0  0  0  0  0  0
   18.2048   18.2891   23.2595 H   0  0  0  0  0  0  0  0  0  0  0  0
   18.3757   20.0444   23.5176 H   0  0  0  0  0  0  0  0  0  0  0  0
   18.3282   18.8586   20.6209 O   0  0  0  0  0  0  0  0  0  0  0  0
   18.7742   18.8608   19.7467 H   0  0  0  0  0  0  0  0  0  0  0  0
  1  2  1  0  0  0  0
  1  3  1  0  0  0  0
  1  4  1  0  0  0  0
  4  5  1  0  0  0  0
  4  6  1  0  0  0  0
  4  7  1  0  0  0  0
  7  8  1  0  0  0  0
  1  9  1  0  0  0  0
  7  9  1  0  0  0  0
  9 10  1  0  0  0  0
  9 11  1  0  0  0  0
  7 12  1  0  0  0  0
 12 13  1  0  0  0  0
M  END
> <VConfSearch Rank>
992

> <Conf_Id>
19

> <Delta U+W>
-0.011

> <U+W>
-3.142

> <U>
-0.154

> <W>
-2.989

> <W(PB)>
-4.588

> <W(SA)>
1.599

> <Valence>
6.334

> <Coulomb>
-7.439

> <VdW>
0.951

> <VdW6>
-2.120

> <VdW12>
3.072

> <Bond>
0.065

> <Angle>
0.930

> <Pdih>
5.339

> <Idih>
0.000

> <Tether>
0.000

$$$$
VeraChem MOL file


 13 13  0  0  0  0  0  0  0  0999 V2000     
   18.4204   19.2200   22.4250 C   0  0  0  0  0  0  0  0  0  0  0  0
   17.4644   19.3660   21.9086 H   0  0  0  0  0  0  0  0  0  0  0  0
   18.2275   19.1303   23.5020 H   0  0  0  0  0  0  0  0  0  0  0  0
   19.5646   20.2200   22.0512 C   0  0  0  0  0  0  0  0  0  0  0  0
   19.5269   20.5895   21.0193 H   0  0  0  0  0  0  0  0  0  0  0  0
   19.6963   21.0741   22.7247 H   0  0  0  0  0  0  0  0  0  0  0  0
   20.5481   19.0278   22.2679 C   0  0  0  0  0  0  0  0  0  0  0  0
   21.4079   19.0148   21.5858 H   0  0  0  0  0  0  0  0  0  0  0  0
   19.3584   18.1136   21.8379 C   0  0  0  0  0  0  0  0  0  0  0  0
   19.3069   17.1328   22.3235 H   0  0  0  0  0  0  0  0  0  0  0  0
   19.2701   17.9721   20.7538 H   0  0  0  0  0  0  0  0  0  0  0  0
   20.9851   18.8520   23.6006 O   0  0  0  0  0  0  0  0  0  0  0  0
   21.4453   17.9868   23.6438 H   0  0  0  0  0  0  0  0  0  0  0  0
  1  2  1  0  0  0  0
  1  3  1  0  0  0  0
  1  4  1  0  0  0  0
  4  5  1  0  0  0  0
  4  6  1  0  0  0  0
  4  7  1  0  0  0  0
  7  8  1  0  0  0  0
  1  9  1  0  0  0  0
  7  9  1  0  0  0  0
  9 10  1  0  0  0  0
  9 11  1  0  0  0  0
  7 12  1  0  0  0  0
 12 13  1  0  0  0  0
M  END
> <VConfSearch Rank>
993

> <Conf_Id>
20

> <Delta U+W>
1.030

> <U+W>
-2.101

> <U>
0.841

> <W>
-2.942

> <W(PB)>
-4.530

> <W(SA)>
1.587

> <Valence>
6.736

> <Coulomb>
-7.246

> <VdW>
1.352

> <VdW6>
-2.500

> <VdW12>
3.851

> <Bond>
0.063

> <Angle>
0.687

> <Pdih>
5.986

> <Idih>
0.000

> <Tether>
0.000

$$$$
VeraChem MOL file


 13 13  0  0  0  0  0  0  0  0999 V2000     
   20.5948   19.9031   22.3592 C   0  0  0  0  0  0  0  0  0  0  0  0
   20.2973   20.9126   22.0463 H   0  0  0  0  0  0  0  0  0  0  0  0
   21.6180   19.9456   22.7514 H   0  0  0  0  0  0  0  0  0  0  0  0
   20.3081   18.7812   21.3073 C   0  0  0  0  0  0  0  0  0  0  0  0
   20.3796   19.0773   20.2549 H   0  0  0  0  0  0  0  0  0  0  0  0
   20.8841   17.8591   21.4533 H   0  0  0  0  0  0  0  0  0  0  0  0
   18.8698   18.7567   21.9072 C   0  0  0  0  0  0  0  0  0  0  0  0
   18.2042   19.5280   21.4965 H   0  0  0  0  0  0  0  0  0  0  0  0
   19.5470   19.1596   23.2518 C   0  0  0  0  0  0  0  0  0  0  0  0
   19.9529   18.3221   23.8325 H   0  0  0  0  0  0  0  0  0  0  0  0
   18.9464   19.7900   23.9168 H   0  0  0  0  0  0  0  0  0  0  0  0
   18.2345   17.5004   21.9030 O   0  0  0  0  0  0  0  0  0  0  0  0
   18.8720   16.8571   22.2777 H   0  0  0  0  0  0  0  0  0  0  0  0
  1  2  1  0  0  0  0
  1  3  1  0  0  0  0
  1  4  1  0  0  0  0
  4  5  1  0  0  0  0
  4  6  1  0  0  0  0
  4  7  1  0  0  0  0
  7  8  1  0  0  0  0
  1  9  1  0  0  0  0
  7  9  1  0  0  0  0
  9 10  1  0  0  0  0
  9 11  1  0  0  0  0
  7 12  1  0  0  0  0
 12 13  1  0  0  0  0
M  END
> <VConfSearch Rank>
994

> <Conf_Id>
24

> <Delta U+W>
0.356

> <U+W>
-2.775

> <U>
-0.184

> <W>
-2.591

> <W(PB)>
-4.184

> <W(SA)>
1.593

> <Valence>
6.840

> <Coulomb>
-7.916

> <VdW>
0.893

> <VdW6>
-2.167

> <VdW12>
3.060

> <Bond>
0.059

> <Angle>
0.918

> <Pdih>
5.862

> <Idih>
0.000

> <Tether>
0.000

$$$$
VeraChem MOL file


 13 13  0  0  0  0  0  0  0  0999 V2000     
   20.2852   18.0459   21.9633 C   0  0  0  0  0  0  0  0  0  0  0  0
   21.1802   17.4542   22.1894 H   0  0  0  0  0  0  0  0  0  0  0  0
   19.7246   17.5366   21.1691 H   0  0  0  0  0  0  0  0  0  0  0  0
   20.5179   19.5758   21.7278 C   0  0  0  0  0  0  0  0  0  0  0  0
   21.3609   19.9977   22.2886 H   0  0  0  0  0  0  0  0  0  0  0  0
   20.5990   19.8971   20.6833 H   0  0  0  0  0  0  0  0  0  0  0  0
   19.1293   19.7975   22.4035 C   0  0  0  0  0  0  0  0  0  0  0  0
   19.0564   20.7024   23.0203 H   0  0  0  0  0  0  0  0  0  0  0  0
   19.4272   18.4870   23.1959 C   0  0  0  0  0  0  0  0  0  0  0  0
   20.0027   18.6420   24.1167 H   0  0  0  0  0  0  0  0  0  0  0  0
   18.5589   17.8607   23.4293 H   0  0  0  0  0  0  0  0  0  0  0  0
   18.0259   19.7210   21.5270 O   0  0  0  0  0  0  0  0  0  0  0  0
   18.1437   18.9002   21.0057 H   0  0  0  0  0  0  0  0  0  0  0  0
  1  2  1  0  0  0  0
  1  3  1  0  0  0  0
  1  4  1  0  0  0  0
  4  5  1  0  0  0  0
  4  6  1  0  0  0  0
  4  7  1  0  0  0  0
  7  8  1  0  0  0  0
  1  9  1  0  0  0  0
  7  9  1  0  0  0  0
  9 10  1  0  0  0  0
  9 11  1  0  0  0  0
  7 12  1  0  0  0  0
 12 13  1  0  0  0  0
M  END
> <VConfSearch Rank>
995

> <Conf_Id>
44

> <Delta U+W>
0.823

> <U+W>
-2.308

> <U>
0.039

> <W>
-2.348

> <W(PB)>
-3.918

> <W(SA)>
1.571

> <Valence>
7.320

> <Coulomb>
-8.530

> <VdW>
1.249

> <VdW6>
-2.615

> <VdW12>
3.864

> <Bond>
0.056

> <Angle>
0.694

> <Pdih>
6.570

> <Idih>
0.000

> <Tether>
0.000

$$$$
VeraChem MOL file


 13 13  0  0  0  0  0  0  0  0999 V2000     
   18.5983   18.2852   22.4060 C   0  0  0  0  0  0  0  0  0  0  0  0
   17.7447   18.8197   22.8434 H   0  0  0  0  0  0  0  0  0  0  0  0
   18.2880   17.2594   22.1742 H   0  0  0  0  0  0  0  0  0  0  0  0
   19.9394   18.4350   23.1975 C   0  0  0  0  0  0  0  0  0  0  0  0
   19.8508   18.5339   24.2849 H   0  0  0  0  0  0  0  0  0  0  0  0
   20.6936   17.6705   22.9730 H   0  0  0  0  0  0  0  0  0  0  0  0
   20.1154   19.7671   22.4080 C   0  0  0  0  0  0  0  0  0  0  0  0
   19.5793   20.6180   22.8502 H   0  0  0  0  0  0  0  0  0  0  0  0
   19.3360   19.0552   21.2613 C   0  0  0  0  0  0  0  0  0  0  0  0
   18.7117   19.7016   20.6348 H   0  0  0  0  0  0  0  0  0  0  0  0
   19.9561   18.4254   20.6112 H   0  0  0  0  0  0  0  0  0  0  0  0
   21.4462   20.1166   22.1057 O   0  0  0  0  0  0  0  0  0  0  0  0
   21.4133   20.8702   21.4778 H   0  0  0  0  0  0  0  0  0  0  0  0
  1  2  1  0  0  0  0
  1  3  1  0  0  0  0
  1  4  1  0  0  0  0
  4  5  1  0  0  0  0
  4  6  1  0  0  0  0
  4  7  1  0  0  0  0
  7  8  1  0  0  0  0
  1  9  1  0  0  0  0
  7  9  1  0  0  0  0
  9 10  1  0  0  0  0
  9 11  1  0  0  0  0
  7 12  1  0  0  0  0
 12 13  1  0  0  0  0
M  END
> <VConfSearch Rank>
996

> <Conf_Id>
22

> <Delta U+W>
0.000

> <U+W>
-3.131

> <U>
-0.154

> <W>
-2.978

> <W(PB)>
-4.579

> <W(SA)>
1.601

> <Valence>
6.333

> <Coulomb>
-7.439

> <VdW>
0.952

> <VdW6>
-2.120

> <VdW12>
3.072

> <Bond>
0.065

> <Angle>
0.931

> <Pdih>
5.338

> <Idih>
0.000

> <Tether>
0.000

$$$$
VeraChem MOL file


 13 13  0  0  0  0  0  0  0  0999 V2000     
   19.5571   17.6574   22.6030 C   0  0  0  0  0  0  0  0  0  0  0  0
   20.5365   17.1649   22.6660 H   0  0  0  0  0  0  0  0  0  0  0  0
   18.7776   16.9153   22.8127 H   0  0  0  0  0  0  0  0  0  0  0  0
   19.3459   18.5333   21.3242 C   0  0  0  0  0  0  0  0  0  0  0  0
   18.2973   18.7537   21.0880 H   0  0  0  0  0  0  0  0  0  0  0  0
   19.8471   18.1864   20.4139 H   0  0  0  0  0  0  0  0  0  0  0  0
   20.0800   19.6549   22.1193 C   0  0  0  0  0  0  0  0  0  0  0  0
   21.1758   19.5837   22.0821 H   0  0  0  0  0  0  0  0  0  0  0  0
   19.4511   19.0059   23.3890 C   0  0  0  0  0  0  0  0  0  0  0  0
   18.4264   19.3323   23.6060 H   0  0  0  0  0  0  0  0  0  0  0  0
   20.0460   19.0794   24.3058 H   0  0  0  0  0  0  0  0  0  0  0  0
   19.6544   20.9686   21.8407 O   0  0  0  0  0  0  0  0  0  0  0  0
   19.9868   21.1984   20.9464 H   0  0  0  0  0  0  0  0  0  0  0  0
  1  2  1  0  0  0  0
  1  3  1  0  0  0  0
  1  4  1  0  0  0  0
  4  5  1  0  0  0  0
  4  6  1  0  0  0  0
  4  7  1  0  0  0  0
  7  8  1  0  0  0  0
  1  9  1  0  0  0  0
  7  9  1  0  0  0  0
  9 10  1  0  0  0  0
  9 11  1  0  0  0  0
  7 12  1  0  0  0  0
 12 13  1  0  0  0  0
M  END
> <VConfSearch Rank>
997

> <Conf_Id>
19

> <Delta U+W>
-0.011

> <U+W>
-3.142

> <U>
-0.154

> <W>
-2.989

> <W(PB)>
-4.588

> <W(SA)>
1.599

> <Valence>
6.334

> <Coulomb>
-7.439

> <VdW>
0.951

> <VdW6>
-2.120

> <VdW12>
3.072

> <Bond>
0.065

> <Angle>
0.930

> <Pdih>
5.339

> <Idih>
0.000

> <Tether>
0.000

$$$$
VeraChem MOL file


 13 13  0  0  0  0  0  0  0  0999 V2000     
   19.8453   18.8758   21.0801 C   0  0  0  0  0  0  0  0  0  0  0  0
   19.3955   18.6085   20.1166 H   0  0  0  0  0  0  0  0  0  0  0  0
   20.8954   19.1491   20.9135 H   0  0  0  0  0  0  0  0  0  0  0  0
   19.6155   17.8639   22.2515 C   0  0  0  0  0  0  0  0  0  0  0  0
   18.6670   17.3157   22.1997 H   0  0  0  0  0  0  0  0  0  0  0  0
   20.4244   17.1481   22.4347 H   0  0  0  0  0  0  0  0  0  0  0  0
   19.5845   19.1077   23.1935 C   0  0  0  0  0  0  0  0  0  0  0  0
   18.8821   19.0278   24.0332 H   0  0  0  0  0  0  0  0  0  0  0  0
   19.0403   19.8907   21.9579 C   0  0  0  0  0  0  0  0  0  0  0  0
   19.3465   20.9399   21.8818 H   0  0  0  0  0  0  0  0  0  0  0  0
   17.9520   19.8341   21.8344 H   0  0  0  0  0  0  0  0  0  0  0  0
   20.8496   19.5322   23.6599 O   0  0  0  0  0  0  0  0  0  0  0  0
   20.7236   20.4061   24.0872 H   0  0  0  0  0  0  0  0  0  0  0  0
  1  2  1  0  0  0  0
  1  3  1  0  0  0  0
  1  4  1  0  0  0  0
  4  5  1  0  0  0  0
  4  6  1  0  0  0  0
  4  7  1  0  0  0  0
  7  8  1  0  0  0  0
  1  9  1  0  0  0  0
  7  9  1  0  0  0  0
  9 10  1  0  0  0  0
  9 11  1  0  0  0  0
  7 12  1  0  0  0  0
 12 13  1  0  0  0  0
M  END
> <VConfSearch Rank>
998

> <Conf_Id>
20

> <Delta U+W>
1.030

> <U+W>
-2.101

> <U>
0.841

> <W>
-2.942

> <W(PB)>
-4.530

> <W(SA)>
1.587

> <Valence>
6.736

> <Coulomb>
-7.246

> <VdW>
1.352

> <VdW6>
-2.500

> <VdW12>
3.851

> <Bond>
0.063

> <Angle>
0.687

> <Pdih>
5.986

> <Idih>
0.000

> <Tether>
0.000

$$$$
VeraChem MOL file


 13 13  0  0  0  0  0  0  0  0999 V2000     
   19.4981   17.8584   22.8304 C   0  0  0  0  0  0  0  0  0  0  0  0
   19.7439   17.8028   23.8991 H   0  0  0  0  0  0  0  0  0  0  0  0
   19.0678   16.8988   22.5199 H   0  0  0  0  0  0  0  0  0  0  0  0
   20.6416   18.4239   21.9249 C   0  0  0  0  0  0  0  0  0  0  0  0
   21.6653   18.2017   22.2459 H   0  0  0  0  0  0  0  0  0  0  0  0
   20.5456   18.1786   20.8600 H   0  0  0  0  0  0  0  0  0  0  0  0
   20.0968   19.8283   22.3250 C   0  0  0  0  0  0  0  0  0  0  0  0
   20.4711   20.1909   23.2920 H   0  0  0  0  0  0  0  0  0  0  0  0
   18.7022   19.1373   22.4081 C   0  0  0  0  0  0  0  0  0  0  0  0
   18.1727   19.0514   21.4512 H   0  0  0  0  0  0  0  0  0  0  0  0
   18.0131   19.5451   23.1558 H   0  0  0  0  0  0  0  0  0  0  0  0
   20.2188   20.8270   21.3403 O   0  0  0  0  0  0  0  0  0  0  0  0
   19.8716   20.4485   20.5055 H   0  0  0  0  0  0  0  0  0  0  0  0
  1  2  1  0  0  0  0
  1  3  1  0  0  0  0
  1  4  1  0  0  0  0
  4  5  1  0  0  0  0
  4  6  1  0  0  0  0
  4  7  1  0  0  0  0
  7  8  1  0  0  0  0
  1  9  1  0  0  0  0
  7  9  1  0  0  0  0
  9 10  1  0  0  0  0
  9 11  1  0  0  0  0
  7 12  1  0  0  0  0
 12 13  1  0  0  0  0
M  END
> <VConfSearch Rank>
999

> <Conf_Id>
24

> <Delta U+W>
0.356

> <U+W>
-2.775

> <U>
-0.184

> <W>
-2.591

> <W(PB)>
-4.184

> <W(SA)>
1.593

> <Valence>
6.840

> <Coulomb>
-7.916

> <VdW>
0.893

> <VdW6>
-2.167

> <VdW12>
3.060

> <Bond>
0.059

> <Angle>
0.918

> <Pdih>
5.862

> <Idih>
0.000

> <Tether>
0.000

$$$$
VeraChem MOL file


 13 13  0  0  0  0  0  0  0  0999 V2000     
   19.6156   18.9827   23.3317 C   0  0  0  0  0  0  0  0  0  0  0  0
   18.9575   19.1404   24.1944 H   0  0  0  0  0  0  0  0  0  0  0  0
   20.6178   18.7318   23.7016 H   0  0  0  0  0  0  0  0  0  0  0  0
   19.5794   20.0952   22.2311 C   0  0  0  0  0  0  0  0  0  0  0  0
   18.6129   20.6044   22.1328 H   0  0  0  0  0  0  0  0  0  0  0  0
   20.3685   20.8536   22.2845 H   0  0  0  0  0  0  0  0  0  0  0  0
   19.8034   18.9498   21.1959 C   0  0  0  0  0  0  0  0  0  0  0  0
   19.2826   19.0850   20.2393 H   0  0  0  0  0  0  0  0  0  0  0  0
   19.0670   18.0294   22.2179 C   0  0  0  0  0  0  0  0  0  0  0  0
   17.9749   18.0320   22.1164 H   0  0  0  0  0  0  0  0  0  0  0  0
   19.4102   16.9896   22.2598 H   0  0  0  0  0  0  0  0  0  0  0  0
   21.1552   18.6159   20.9662 O   0  0  0  0  0  0  0  0  0  0  0  0
   21.5669   18.5082   21.8484 H   0  0  0  0  0  0  0  0  0  0  0  0
  1  2  1  0  0  0  0
  1  3  1  0  0  0  0
  1  4  1  0  0  0  0
  4  5  1  0  0  0  0
  4  6  1  0  0  0  0
  4  7  1  0  0  0  0
  7  8  1  0  0  0  0
  1  9  1  0  0  0  0
  7  9  1  0  0  0  0
  9 10  1  0  0  0  0
  9 11  1  0  0  0  0
  7 12  1  0  0  0  0
 12 13  1  0  0  0  0
M  END
> <VConfSearch Rank>
1000

> <Conf_Id>
44

> <Delta U+W>
0.823

> <U+W>
-2.308

> <U>
0.039

> <W>
-2.348

> <W(PB)>
-3.918

> <W(SA)>
1.571

> <Valence>
7.320

> <Coulomb>
-8.530

> <VdW>
1.249

> <VdW6>
-2.615

> <VdW12>
3.864

> <Bond>
0.056

> <Angle>
0.694

> <Pdih>
6.570

> <Idih>
0.000

> <Tether>
0.000

$$$$
