VeraChem MOL file


 20 19  0  0  0  0  0  0  0  0999 V2000     
   20.5086   18.3143   18.3267 C   0  0  0  0  0  0  0  0  0  0  0  0
   20.2546   17.2724   18.5155 H   0  0  0  0  0  0  0  0  0  0  0  0
   21.1100   18.5315   17.4456 H   0  0  0  0  0  0  0  0  0  0  0  0
   20.1024   19.2903   19.1428 C   0  0  0  0  0  0  0  0  0  0  0  0
   20.3682   20.3268   18.9361 H   0  0  0  0  0  0  0  0  0  0  0  0
   19.2654   19.0655   20.3823 C   0  0  0  0  0  0  0  0  0  0  0  0
   18.8318   18.0562   20.3706 H   0  0  0  0  0  0  0  0  0  0  0  0
   18.4236   19.7708   20.3903 H   0  0  0  0  0  0  0  0  0  0  0  0
   20.1062   19.2486   21.6631 C   0  0  0  0  0  0  0  0  0  0  0  0
   20.9491   18.5438   21.6481 H   0  0  0  0  0  0  0  0  0  0  0  0
   20.5359   20.2597   21.6766 H   0  0  0  0  0  0  0  0  0  0  0  0
   19.2657   19.0253   22.9393 C   0  0  0  0  0  0  0  0  0  0  0  0
   18.8359   18.0141   22.9267 H   0  0  0  0  0  0  0  0  0  0  0  0
   18.4218   19.7291   22.9542 H   0  0  0  0  0  0  0  0  0  0  0  0
   20.1119   19.2089   24.2272 C   0  0  0  0  0  0  0  0  0  0  0  0
   20.9524   18.5050   24.2219 H   0  0  0  0  0  0  0  0  0  0  0  0
   20.5388   20.2184   24.2495 H   0  0  0  0  0  0  0  0  0  0  0  0
   19.3544   19.0049   25.5401 C   0  0  0  0  0  0  0  0  0  0  0  0
   19.9837   19.1416   26.5704 O   0  5  0  0  0  0  0  0  0  0  0  0
   18.1728   18.7186   25.5163 O   0  0  0  0  0  0  0  0  0  0  0  0
  1  2  1  0  0  0  0
  1  3  1  0  0  0  0
  1  4  2  0  0  0  0
  4  5  1  0  0  0  0
  4  6  1  0  0  0  0
  6  7  1  0  0  0  0
  6  8  1  0  0  0  0
  6  9  1  0  0  0  0
  9 10  1  0  0  0  0
  9 11  1  0  0  0  0
  9 12  1  0  0  0  0
 12 13  1  0  0  0  0
 12 14  1  0  0  0  0
 12 15  1  0  0  0  0
 15 16  1  0  0  0  0
 15 17  1  0  0  0  0
 15 18  1  0  0  0  0
 18 19  1  0  0  0  0
 18 20  2  0  0  0  0
M  END
> <VConfSearch Rank>
1

> <Conf_Id>
33

> <Delta U+W>
0.000

> <U+W>
-51.745

> <U>
7.593

> <W>
-59.338

> <W(PB)>
-61.574

> <W(SA)>
2.236

> <Valence>
9.570

> <Coulomb>
-3.091

> <VdW>
1.114

> <VdW6>
-6.064

> <VdW12>
7.178

> <Bond>
0.117

> <Angle>
2.692

> <Pdih>
6.761

> <Idih>
0.000

> <Tether>
0.000

$$$$
VeraChem MOL file


 20 19  0  0  0  0  0  0  0  0999 V2000     
   20.7585   19.1136   18.4478 C   0  0  0  0  0  0  0  0  0  0  0  0
   21.5102   19.8576   18.7067 H   0  0  0  0  0  0  0  0  0  0  0  0
   20.5849   18.9240   17.3899 H   0  0  0  0  0  0  0  0  0  0  0  0
   20.0723   18.4588   19.3880 C   0  0  0  0  0  0  0  0  0  0  0  0
   19.3235   17.7184   19.1077 H   0  0  0  0  0  0  0  0  0  0  0  0
   20.2590   18.6680   20.8743 C   0  0  0  0  0  0  0  0  0  0  0  0
   21.1878   19.2223   21.0660 H   0  0  0  0  0  0  0  0  0  0  0  0
   20.3648   17.6920   21.3646 H   0  0  0  0  0  0  0  0  0  0  0  0
   19.0650   19.4395   21.4803 C   0  0  0  0  0  0  0  0  0  0  0  0
   18.9261   20.3735   20.9185 H   0  0  0  0  0  0  0  0  0  0  0  0
   18.1429   18.8574   21.3469 H   0  0  0  0  0  0  0  0  0  0  0  0
   19.2499   19.7865   22.9768 C   0  0  0  0  0  0  0  0  0  0  0  0
   18.4158   20.4271   23.2954 H   0  0  0  0  0  0  0  0  0  0  0  0
   20.1649   20.3801   23.1101 H   0  0  0  0  0  0  0  0  0  0  0  0
   19.3016   18.5410   23.8992 C   0  0  0  0  0  0  0  0  0  0  0  0
   18.4128   17.9178   23.7441 H   0  0  0  0  0  0  0  0  0  0  0  0
   20.1768   17.9239   23.6670 H   0  0  0  0  0  0  0  0  0  0  0  0
   19.3710   18.9056   25.3778 C   0  0  0  0  0  0  0  0  0  0  0  0
   20.4666   19.0669   25.8782 O   0  5  0  0  0  0  0  0  0  0  0  0
   18.3271   19.0381   25.9856 O   0  0  0  0  0  0  0  0  0  0  0  0
  1  2  1  0  0  0  0
  1  3  1  0  0  0  0
  1  4  2  0  0  0  0
  4  5  1  0  0  0  0
  4  6  1  0  0  0  0
  6  7  1  0  0  0  0
  6  8  1  0  0  0  0
  6  9  1  0  0  0  0
  9 10  1  0  0  0  0
  9 11  1  0  0  0  0
  9 12  1  0  0  0  0
 12 13  1  0  0  0  0
 12 14  1  0  0  0  0
 12 15  1  0  0  0  0
 15 16  1  0  0  0  0
 15 17  1  0  0  0  0
 15 18  1  0  0  0  0
 18 19  1  0  0  0  0
 18 20  2  0  0  0  0
M  END
> <VConfSearch Rank>
2

> <Conf_Id>
37

> <Delta U+W>
-0.384

> <U+W>
-52.130

> <U>
7.491

> <W>
-59.621

> <W(PB)>
-61.853

> <W(SA)>
2.232

> <Valence>
9.604

> <Coulomb>
-2.799

> <VdW>
0.686

> <VdW6>
-6.435

> <VdW12>
7.121

> <Bond>
0.124

> <Angle>
2.493

> <Pdih>
6.986

> <Idih>
0.001

> <Tether>
0.000

$$$$
VeraChem MOL file


 20 19  0  0  0  0  0  0  0  0999 V2000     
   20.7345   19.6042   18.7435 C   0  0  0  0  0  0  0  0  0  0  0  0
   21.0324   19.7815   17.7115 H   0  0  0  0  0  0  0  0  0  0  0  0
   21.1370   20.2813   19.4938 H   0  0  0  0  0  0  0  0  0  0  0  0
   19.9116   18.5959   19.0534 C   0  0  0  0  0  0  0  0  0  0  0  0
   19.5408   17.9506   18.2573 H   0  0  0  0  0  0  0  0  0  0  0  0
   19.4102   18.2256   20.4393 C   0  0  0  0  0  0  0  0  0  0  0  0
   19.6894   17.1843   20.6489 H   0  0  0  0  0  0  0  0  0  0  0  0
   18.3121   18.2421   20.4333 H   0  0  0  0  0  0  0  0  0  0  0  0
   19.9248   19.1290   21.5843 C   0  0  0  0  0  0  0  0  0  0  0  0
   21.0228   19.1005   21.6090 H   0  0  0  0  0  0  0  0  0  0  0  0
   19.6306   20.1698   21.3910 H   0  0  0  0  0  0  0  0  0  0  0  0
   19.3700   18.6863   22.9559 C   0  0  0  0  0  0  0  0  0  0  0  0
   19.6609   17.6455   23.1552 H   0  0  0  0  0  0  0  0  0  0  0  0
   18.2716   18.7126   22.9376 H   0  0  0  0  0  0  0  0  0  0  0  0
   19.8838   19.5894   24.1041 C   0  0  0  0  0  0  0  0  0  0  0  0
   20.9794   19.5639   24.1448 H   0  0  0  0  0  0  0  0  0  0  0  0
   19.5900   20.6310   23.9272 H   0  0  0  0  0  0  0  0  0  0  0  0
   19.3495   19.1722   25.4696 C   0  0  0  0  0  0  0  0  0  0  0  0
   19.9863   18.3600   26.1110 O   0  5  0  0  0  0  0  0  0  0  0  0
   18.3004   19.6555   25.8470 O   0  0  0  0  0  0  0  0  0  0  0  0
  1  2  1  0  0  0  0
  1  3  1  0  0  0  0
  1  4  2  0  0  0  0
  4  5  1  0  0  0  0
  4  6  1  0  0  0  0
  6  7  1  0  0  0  0
  6  8  1  0  0  0  0
  6  9  1  0  0  0  0
  9 10  1  0  0  0  0
  9 11  1  0  0  0  0
  9 12  1  0  0  0  0
 12 13  1  0  0  0  0
 12 14  1  0  0  0  0
 12 15  1  0  0  0  0
 15 16  1  0  0  0  0
 15 17  1  0  0  0  0
 15 18  1  0  0  0  0
 18 19  1  0  0  0  0
 18 20  2  0  0  0  0
M  END
> <VConfSearch Rank>
3

> <Conf_Id>
44

> <Delta U+W>
-1.440

> <U+W>
-53.185

> <U>
6.572

> <W>
-59.757

> <W(PB)>
-62.007

> <W(SA)>
2.249

> <Valence>
7.989

> <Coulomb>
-2.697

> <VdW>
1.281

> <VdW6>
-6.467

> <VdW12>
7.748

> <Bond>
0.136

> <Angle>
2.854

> <Pdih>
4.997

> <Idih>
0.001

> <Tether>
0.000

$$$$
VeraChem MOL file


 20 19  0  0  0  0  0  0  0  0999 V2000     
   20.6450   18.0908   18.7184 C   0  0  0  0  0  0  0  0  0  0  0  0
   20.9700   17.2038   19.2599 H   0  0  0  0  0  0  0  0  0  0  0  0
   20.9797   18.1993   17.6882 H   0  0  0  0  0  0  0  0  0  0  0  0
   19.8685   19.0133   19.2926 C   0  0  0  0  0  0  0  0  0  0  0  0
   19.5549   19.8943   18.7330 H   0  0  0  0  0  0  0  0  0  0  0  0
   19.3643   18.9302   20.7163 C   0  0  0  0  0  0  0  0  0  0  0  0
   19.4955   17.9101   21.0992 H   0  0  0  0  0  0  0  0  0  0  0  0
   18.2866   19.1405   20.7363 H   0  0  0  0  0  0  0  0  0  0  0  0
   20.1054   19.9347   21.6271 C   0  0  0  0  0  0  0  0  0  0  0  0
   21.1763   19.6897   21.6495 H   0  0  0  0  0  0  0  0  0  0  0  0
   20.0264   20.9385   21.1876 H   0  0  0  0  0  0  0  0  0  0  0  0
   19.5518   19.9840   23.0712 C   0  0  0  0  0  0  0  0  0  0  0  0
   18.4830   20.2384   23.0509 H   0  0  0  0  0  0  0  0  0  0  0  0
   20.0538   20.7976   23.6131 H   0  0  0  0  0  0  0  0  0  0  0  0
   19.7549   18.6629   23.8576 C   0  0  0  0  0  0  0  0  0  0  0  0
   19.1907   17.8460   23.3939 H   0  0  0  0  0  0  0  0  0  0  0  0
   20.8130   18.3751   23.8473 H   0  0  0  0  0  0  0  0  0  0  0  0
   19.3076   18.7679   25.3112 C   0  0  0  0  0  0  0  0  0  0  0  0
   20.1231   19.1263   26.1378 O   0  5  0  0  0  0  0  0  0  0  0  0
   18.1504   18.5079   25.5757 O   0  0  0  0  0  0  0  0  0  0  0  0
  1  2  1  0  0  0  0
  1  3  1  0  0  0  0
  1  4  2  0  0  0  0
  4  5  1  0  0  0  0
  4  6  1  0  0  0  0
  6  7  1  0  0  0  0
  6  8  1  0  0  0  0
  6  9  1  0  0  0  0
  9 10  1  0  0  0  0
  9 11  1  0  0  0  0
  9 12  1  0  0  0  0
 12 13  1  0  0  0  0
 12 14  1  0  0  0  0
 12 15  1  0  0  0  0
 15 16  1  0  0  0  0
 15 17  1  0  0  0  0
 15 18  1  0  0  0  0
 18 19  1  0  0  0  0
 18 20  2  0  0  0  0
M  END
> <VConfSearch Rank>
4

> <Conf_Id>
38

> <Delta U+W>
-0.381

> <U+W>
-52.126

> <U>
7.601

> <W>
-59.727

> <W(PB)>
-61.964

> <W(SA)>
2.236

> <Valence>
9.602

> <Coulomb>
-2.686

> <VdW>
0.685

> <VdW6>
-6.453

> <VdW12>
7.139

> <Bond>
0.125

> <Angle>
2.485

> <Pdih>
6.991

> <Idih>
0.001

> <Tether>
0.000

$$$$
VeraChem MOL file


 20 19  0  0  0  0  0  0  0  0999 V2000     
   20.8921   18.5753   18.7378 C   0  0  0  0  0  0  0  0  0  0  0  0
   21.0962   19.6265   18.5407 H   0  0  0  0  0  0  0  0  0  0  0  0
   21.4172   17.8405   18.1298 H   0  0  0  0  0  0  0  0  0  0  0  0
   20.0339   18.1976   19.6889 C   0  0  0  0  0  0  0  0  0  0  0  0
   19.8445   17.1400   19.8709 H   0  0  0  0  0  0  0  0  0  0  0  0
   19.2688   19.1591   20.5709 C   0  0  0  0  0  0  0  0  0  0  0  0
   18.2075   18.8773   20.5874 H   0  0  0  0  0  0  0  0  0  0  0  0
   19.3197   20.1760   20.1585 H   0  0  0  0  0  0  0  0  0  0  0  0
   19.8261   19.1589   22.0098 C   0  0  0  0  0  0  0  0  0  0  0  0
   19.7720   18.1413   22.4207 H   0  0  0  0  0  0  0  0  0  0  0  0
   20.8890   19.4366   21.9887 H   0  0  0  0  0  0  0  0  0  0  0  0
   19.0530   20.1346   22.9256 C   0  0  0  0  0  0  0  0  0  0  0  0
   17.9911   19.8533   22.9573 H   0  0  0  0  0  0  0  0  0  0  0  0
   19.0996   21.1457   22.4989 H   0  0  0  0  0  0  0  0  0  0  0  0
   19.6178   20.1714   24.3694 C   0  0  0  0  0  0  0  0  0  0  0  0
   20.6850   20.4237   24.3525 H   0  0  0  0  0  0  0  0  0  0  0  0
   19.1140   20.9603   24.9401 H   0  0  0  0  0  0  0  0  0  0  0  0
   19.4380   18.8659   25.1389 C   0  0  0  0  0  0  0  0  0  0  0  0
   20.4094   18.1535   25.2995 O   0  5  0  0  0  0  0  0  0  0  0  0
   18.3317   18.6017   25.5672 O   0  0  0  0  0  0  0  0  0  0  0  0
  1  2  1  0  0  0  0
  1  3  1  0  0  0  0
  1  4  2  0  0  0  0
  4  5  1  0  0  0  0
  4  6  1  0  0  0  0
  6  7  1  0  0  0  0
  6  8  1  0  0  0  0
  6  9  1  0  0  0  0
  9 10  1  0  0  0  0
  9 11  1  0  0  0  0
  9 12  1  0  0  0  0
 12 13  1  0  0  0  0
 12 14  1  0  0  0  0
 12 15  1  0  0  0  0
 15 16  1  0  0  0  0
 15 17  1  0  0  0  0
 15 18  1  0  0  0  0
 18 19  1  0  0  0  0
 18 20  2  0  0  0  0
M  END
> <VConfSearch Rank>
5

> <Conf_Id>
58

> <Delta U+W>
0.019

> <U+W>
-51.727

> <U>
8.963

> <W>
-60.690

> <W(PB)>
-62.934

> <W(SA)>
2.244

> <Valence>
9.327

> <Coulomb>
-0.780

> <VdW>
0.417

> <VdW6>
-6.635

> <VdW12>
7.052

> <Bond>
0.105

> <Angle>
2.399

> <Pdih>
6.822

> <Idih>
0.000

> <Tether>
0.000

$$$$
VeraChem MOL file


 20 19  0  0  0  0  0  0  0  0999 V2000     
   19.5439   18.5332   18.5544 C   0  0  0  0  0  0  0  0  0  0  0  0
   19.3106   19.5665   18.3026 H   0  0  0  0  0  0  0  0  0  0  0  0
   19.2623   17.7664   17.8348 H   0  0  0  0  0  0  0  0  0  0  0  0
   20.1494   18.2143   19.7013 C   0  0  0  0  0  0  0  0  0  0  0  0
   20.3732   17.1735   19.9347 H   0  0  0  0  0  0  0  0  0  0  0  0
   20.5701   19.2228   20.7470 C   0  0  0  0  0  0  0  0  0  0  0  0
   20.5441   20.2381   20.3282 H   0  0  0  0  0  0  0  0  0  0  0  0
   21.6093   19.0306   21.0457 H   0  0  0  0  0  0  0  0  0  0  0  0
   19.6547   19.1543   21.9873 C   0  0  0  0  0  0  0  0  0  0  0  0
   18.6156   19.3424   21.6838 H   0  0  0  0  0  0  0  0  0  0  0  0
   19.6843   18.1386   22.4055 H   0  0  0  0  0  0  0  0  0  0  0  0
   20.0731   20.1772   23.0676 C   0  0  0  0  0  0  0  0  0  0  0  0
   20.0556   21.1872   22.6361 H   0  0  0  0  0  0  0  0  0  0  0  0
   21.1087   19.9851   23.3811 H   0  0  0  0  0  0  0  0  0  0  0  0
   19.1460   20.1448   24.3103 C   0  0  0  0  0  0  0  0  0  0  0  0
   19.4126   20.9643   24.9880 H   0  0  0  0  0  0  0  0  0  0  0  0
   18.1038   20.3074   24.0099 H   0  0  0  0  0  0  0  0  0  0  0  0
   19.2257   18.8474   25.1097 C   0  0  0  0  0  0  0  0  0  0  0  0
   20.1979   18.6700   25.8173 O   0  5  0  0  0  0  0  0  0  0  0  0
   18.3102   18.0540   25.0130 O   0  0  0  0  0  0  0  0  0  0  0  0
  1  2  1  0  0  0  0
  1  3  1  0  0  0  0
  1  4  2  0  0  0  0
  4  5  1  0  0  0  0
  4  6  1  0  0  0  0
  6  7  1  0  0  0  0
  6  8  1  0  0  0  0
  6  9  1  0  0  0  0
  9 10  1  0  0  0  0
  9 11  1  0  0  0  0
  9 12  1  0  0  0  0
 12 13  1  0  0  0  0
 12 14  1  0  0  0  0
 12 15  1  0  0  0  0
 15 16  1  0  0  0  0
 15 17  1  0  0  0  0
 15 18  1  0  0  0  0
 18 19  1  0  0  0  0
 18 20  2  0  0  0  0
M  END
> <VConfSearch Rank>
6

> <Conf_Id>
54

> <Delta U+W>
-0.048

> <U+W>
-51.793

> <U>
8.964

> <W>
-60.756

> <W(PB)>
-63.007

> <W(SA)>
2.251

> <Valence>
9.327

> <Coulomb>
-0.780

> <VdW>
0.417

> <VdW6>
-6.635

> <VdW12>
7.052

> <Bond>
0.105

> <Angle>
2.399

> <Pdih>
6.822

> <Idih>
0.000

> <Tether>
0.000

$$$$
VeraChem MOL file


 20 19  0  0  0  0  0  0  0  0999 V2000     
   20.8043   18.9566   18.7851 C   0  0  0  0  0  0  0  0  0  0  0  0
   21.0973   19.7167   18.0628 H   0  0  0  0  0  0  0  0  0  0  0  0
   21.3524   18.0159   18.7731 H   0  0  0  0  0  0  0  0  0  0  0  0
   19.8123   19.1747   19.6523 C   0  0  0  0  0  0  0  0  0  0  0  0
   19.2743   20.1222   19.6449 H   0  0  0  0  0  0  0  0  0  0  0  0
   19.3462   18.1638   20.6784 C   0  0  0  0  0  0  0  0  0  0  0  0
   19.6716   17.1578   20.3808 H   0  0  0  0  0  0  0  0  0  0  0  0
   18.2487   18.1362   20.7051 H   0  0  0  0  0  0  0  0  0  0  0  0
   19.8948   18.4630   22.0918 C   0  0  0  0  0  0  0  0  0  0  0  0
   19.6370   17.6247   22.7533 H   0  0  0  0  0  0  0  0  0  0  0  0
   20.9920   18.5072   22.0561 H   0  0  0  0  0  0  0  0  0  0  0  0
   19.3365   19.7771   22.6883 C   0  0  0  0  0  0  0  0  0  0  0  0
   18.2386   19.7391   22.7105 H   0  0  0  0  0  0  0  0  0  0  0  0
   19.6109   20.6196   22.0399 H   0  0  0  0  0  0  0  0  0  0  0  0
   19.8700   20.0562   24.1175 C   0  0  0  0  0  0  0  0  0  0  0  0
   20.9667   20.0636   24.1176 H   0  0  0  0  0  0  0  0  0  0  0  0
   19.5458   21.0522   24.4414 H   0  0  0  0  0  0  0  0  0  0  0  0
   19.3891   19.0570   25.1659 C   0  0  0  0  0  0  0  0  0  0  0  0
   20.1721   18.2162   25.5621 O   0  5  0  0  0  0  0  0  0  0  0  0
   18.2458   19.1535   25.5667 O   0  0  0  0  0  0  0  0  0  0  0  0
  1  2  1  0  0  0  0
  1  3  1  0  0  0  0
  1  4  2  0  0  0  0
  4  5  1  0  0  0  0
  4  6  1  0  0  0  0
  6  7  1  0  0  0  0
  6  8  1  0  0  0  0
  6  9  1  0  0  0  0
  9 10  1  0  0  0  0
  9 11  1  0  0  0  0
  9 12  1  0  0  0  0
 12 13  1  0  0  0  0
 12 14  1  0  0  0  0
 12 15  1  0  0  0  0
 15 16  1  0  0  0  0
 15 17  1  0  0  0  0
 15 18  1  0  0  0  0
 18 19  1  0  0  0  0
 18 20  2  0  0  0  0
M  END
> <VConfSearch Rank>
7

> <Conf_Id>
27

> <Delta U+W>
0.478

> <U+W>
-51.267

> <U>
9.192

> <W>
-60.459

> <W(PB)>
-62.649

> <W(SA)>
2.190

> <Valence>
9.572

> <Coulomb>
-0.884

> <VdW>
0.504

> <VdW6>
-7.168

> <VdW12>
7.672

> <Bond>
0.127

> <Angle>
2.504

> <Pdih>
6.941

> <Idih>
0.001

> <Tether>
0.000

$$$$
VeraChem MOL file


 20 19  0  0  0  0  0  0  0  0999 V2000     
   21.1502   19.3347   18.9644 C   0  0  0  0  0  0  0  0  0  0  0  0
   21.1885   18.3723   18.4566 H   0  0  0  0  0  0  0  0  0  0  0  0
   21.9301   20.0569   18.7291 H   0  0  0  0  0  0  0  0  0  0  0  0
   20.1876   19.6209   19.8448 C   0  0  0  0  0  0  0  0  0  0  0  0
   20.1662   20.5915   20.3395 H   0  0  0  0  0  0  0  0  0  0  0  0
   19.0691   18.6707   20.2163 C   0  0  0  0  0  0  0  0  0  0  0  0
   18.9634   17.9014   19.4394 H   0  0  0  0  0  0  0  0  0  0  0  0
   18.1134   19.2110   20.2457 H   0  0  0  0  0  0  0  0  0  0  0  0
   19.3160   17.9735   21.5731 C   0  0  0  0  0  0  0  0  0  0  0  0
   18.5442   17.2060   21.7219 H   0  0  0  0  0  0  0  0  0  0  0  0
   20.2805   17.4479   21.5430 H   0  0  0  0  0  0  0  0  0  0  0  0
   19.2916   18.9555   22.7669 C   0  0  0  0  0  0  0  0  0  0  0  0
   18.3367   19.4989   22.7803 H   0  0  0  0  0  0  0  0  0  0  0  0
   20.0848   19.7065   22.6511 H   0  0  0  0  0  0  0  0  0  0  0  0
   19.4825   18.2234   24.1181 C   0  0  0  0  0  0  0  0  0  0  0  0
   18.6898   17.4793   24.2614 H   0  0  0  0  0  0  0  0  0  0  0  0
   20.4379   17.6852   24.1250 H   0  0  0  0  0  0  0  0  0  0  0  0
   19.4636   19.1709   25.3122 C   0  0  0  0  0  0  0  0  0  0  0  0
   20.5171   19.6525   25.6792 O   0  5  0  0  0  0  0  0  0  0  0  0
   18.3933   19.4160   25.8329 O   0  0  0  0  0  0  0  0  0  0  0  0
  1  2  1  0  0  0  0
  1  3  1  0  0  0  0
  1  4  2  0  0  0  0
  4  5  1  0  0  0  0
  4  6  1  0  0  0  0
  6  7  1  0  0  0  0
  6  8  1  0  0  0  0
  6  9  1  0  0  0  0
  9 10  1  0  0  0  0
  9 11  1  0  0  0  0
  9 12  1  0  0  0  0
 12 13  1  0  0  0  0
 12 14  1  0  0  0  0
 12 15  1  0  0  0  0
 15 16  1  0  0  0  0
 15 17  1  0  0  0  0
 15 18  1  0  0  0  0
 18 19  1  0  0  0  0
 18 20  2  0  0  0  0
M  END
> <VConfSearch Rank>
8

> <Conf_Id>
41

> <Delta U+W>
-0.634

> <U+W>
-52.379

> <U>
7.828

> <W>
-60.207

> <W(PB)>
-62.449

> <W(SA)>
2.242

> <Valence>
9.300

> <Coulomb>
-2.080

> <VdW>
0.608

> <VdW6>
-6.341

> <VdW12>
6.949

> <Bond>
0.103

> <Angle>
2.334

> <Pdih>
6.862

> <Idih>
0.001

> <Tether>
0.000

$$$$
VeraChem MOL file


 20 19  0  0  0  0  0  0  0  0999 V2000     
   19.7570   19.0096   18.6674 C   0  0  0  0  0  0  0  0  0  0  0  0
   19.3251   19.5046   17.7992 H   0  0  0  0  0  0  0  0  0  0  0  0
   20.6484   18.4051   18.5076 H   0  0  0  0  0  0  0  0  0  0  0  0
   19.2127   19.1431   19.8796 C   0  0  0  0  0  0  0  0  0  0  0  0
   18.3206   19.7534   20.0187 H   0  0  0  0  0  0  0  0  0  0  0  0
   19.7546   18.4864   21.1297 C   0  0  0  0  0  0  0  0  0  0  0  0
   20.4768   17.7024   20.8648 H   0  0  0  0  0  0  0  0  0  0  0  0
   18.9310   17.9948   21.6634 H   0  0  0  0  0  0  0  0  0  0  0  0
   20.4338   19.5238   22.0515 C   0  0  0  0  0  0  0  0  0  0  0  0
   21.1868   20.0745   21.4711 H   0  0  0  0  0  0  0  0  0  0  0  0
   19.6925   20.2663   22.3777 H   0  0  0  0  0  0  0  0  0  0  0  0
   21.1258   18.8953   23.2861 C   0  0  0  0  0  0  0  0  0  0  0  0
   21.6458   19.6880   23.8416 H   0  0  0  0  0  0  0  0  0  0  0  0
   21.9028   18.1963   22.9484 H   0  0  0  0  0  0  0  0  0  0  0  0
   20.1630   18.1567   24.2555 C   0  0  0  0  0  0  0  0  0  0  0  0
   19.6816   17.3101   23.7528 H   0  0  0  0  0  0  0  0  0  0  0  0
   20.7387   17.7361   25.0881 H   0  0  0  0  0  0  0  0  0  0  0  0
   19.0801   19.0479   24.8571 C   0  0  0  0  0  0  0  0  0  0  0  0
   19.4103   19.8624   25.6967 O   0  5  0  0  0  0  0  0  0  0  0  0
   17.9337   18.8928   24.4846 O   0  0  0  0  0  0  0  0  0  0  0  0
  1  2  1  0  0  0  0
  1  3  1  0  0  0  0
  1  4  2  0  0  0  0
  4  5  1  0  0  0  0
  4  6  1  0  0  0  0
  6  7  1  0  0  0  0
  6  8  1  0  0  0  0
  6  9  1  0  0  0  0
  9 10  1  0  0  0  0
  9 11  1  0  0  0  0
  9 12  1  0  0  0  0
 12 13  1  0  0  0  0
 12 14  1  0  0  0  0
 12 15  1  0  0  0  0
 15 16  1  0  0  0  0
 15 17  1  0  0  0  0
 15 18  1  0  0  0  0
 18 19  1  0  0  0  0
 18 20  2  0  0  0  0
M  END
> <VConfSearch Rank>
9

> <Conf_Id>
84

> <Delta U+W>
0.942

> <U+W>
-50.803

> <U>
10.196

> <W>
-60.999

> <W(PB)>
-63.182

> <W(SA)>
2.182

> <Valence>
9.837

> <Coulomb>
0.032

> <VdW>
0.328

> <VdW6>
-7.642

> <VdW12>
7.969

> <Bond>
0.151

> <Angle>
2.748

> <Pdih>
6.937

> <Idih>
0.001

> <Tether>
0.000

$$$$
VeraChem MOL file


 20 19  0  0  0  0  0  0  0  0999 V2000     
   20.4397   17.6707   19.0792 C   0  0  0  0  0  0  0  0  0  0  0  0
   21.2418   17.3056   18.4399 H   0  0  0  0  0  0  0  0  0  0  0  0
   19.5908   17.0093   19.2450 H   0  0  0  0  0  0  0  0  0  0  0  0
   20.4999   18.8821   19.6382 C   0  0  0  0  0  0  0  0  0  0  0  0
   21.3591   19.5284   19.4602 H   0  0  0  0  0  0  0  0  0  0  0  0
   19.4257   19.4563   20.5349 C   0  0  0  0  0  0  0  0  0  0  0  0
   18.5043   18.8638   20.4521 H   0  0  0  0  0  0  0  0  0  0  0  0
   19.1777   20.4741   20.2055 H   0  0  0  0  0  0  0  0  0  0  0  0
   19.8861   19.4862   22.0074 C   0  0  0  0  0  0  0  0  0  0  0  0
   20.1386   18.4659   22.3283 H   0  0  0  0  0  0  0  0  0  0  0  0
   20.8053   20.0820   22.0917 H   0  0  0  0  0  0  0  0  0  0  0  0
   18.8003   20.0738   22.9370 C   0  0  0  0  0  0  0  0  0  0  0  0
   17.8838   19.4717   22.8658 H   0  0  0  0  0  0  0  0  0  0  0  0
   18.5411   21.0856   22.5970 H   0  0  0  0  0  0  0  0  0  0  0  0
   19.2561   20.1420   24.4177 C   0  0  0  0  0  0  0  0  0  0  0  0
   20.1858   20.7177   24.5020 H   0  0  0  0  0  0  0  0  0  0  0  0
   18.5003   20.6713   25.0098 H   0  0  0  0  0  0  0  0  0  0  0  0
   19.4684   18.7763   25.0648 C   0  0  0  0  0  0  0  0  0  0  0  0
   20.6083   18.3951   25.2444 O   0  5  0  0  0  0  0  0  0  0  0  0
   18.4864   18.1355   25.3843 O   0  0  0  0  0  0  0  0  0  0  0  0
  1  2  1  0  0  0  0
  1  3  1  0  0  0  0
  1  4  2  0  0  0  0
  4  5  1  0  0  0  0
  4  6  1  0  0  0  0
  6  7  1  0  0  0  0
  6  8  1  0  0  0  0
  6  9  1  0  0  0  0
  9 10  1  0  0  0  0
  9 11  1  0  0  0  0
  9 12  1  0  0  0  0
 12 13  1  0  0  0  0
 12 14  1  0  0  0  0
 12 15  1  0  0  0  0
 15 16  1  0  0  0  0
 15 17  1  0  0  0  0
 15 18  1  0  0  0  0
 18 19  1  0  0  0  0
 18 20  2  0  0  0  0
M  END
> <VConfSearch Rank>
10

> <Conf_Id>
81

> <Delta U+W>
-0.051

> <U+W>
-51.796

> <U>
9.412

> <W>
-61.209

> <W(PB)>
-63.452

> <W(SA)>
2.243

> <Valence>
9.329

> <Coulomb>
-0.323

> <VdW>
0.406

> <VdW6>
-6.640

> <VdW12>
7.046

> <Bond>
0.105

> <Angle>
2.401

> <Pdih>
6.823

> <Idih>
0.000

> <Tether>
0.000

$$$$
VeraChem MOL file


 20 19  0  0  0  0  0  0  0  0999 V2000     
   20.4657   18.9690   18.9009 C   0  0  0  0  0  0  0  0  0  0  0  0
   20.1819   17.9869   18.5261 H   0  0  0  0  0  0  0  0  0  0  0  0
   20.6864   19.7413   18.1661 H   0  0  0  0  0  0  0  0  0  0  0  0
   20.5386   19.2213   20.2104 C   0  0  0  0  0  0  0  0  0  0  0  0
   20.8270   20.2105   20.5646 H   0  0  0  0  0  0  0  0  0  0  0  0
   20.2520   18.1980   21.2885 C   0  0  0  0  0  0  0  0  0  0  0  0
   21.0234   18.2460   22.0680 H   0  0  0  0  0  0  0  0  0  0  0  0
   20.3169   17.1865   20.8655 H   0  0  0  0  0  0  0  0  0  0  0  0
   18.8493   18.3783   21.9168 C   0  0  0  0  0  0  0  0  0  0  0  0
   18.0909   18.2399   21.1342 H   0  0  0  0  0  0  0  0  0  0  0  0
   18.6813   17.5761   22.6484 H   0  0  0  0  0  0  0  0  0  0  0  0
   18.6167   19.7504   22.6004 C   0  0  0  0  0  0  0  0  0  0  0  0
   17.5882   19.7816   22.9857 H   0  0  0  0  0  0  0  0  0  0  0  0
   18.6840   20.5495   21.8504 H   0  0  0  0  0  0  0  0  0  0  0  0
   19.5946   20.0616   23.7663 C   0  0  0  0  0  0  0  0  0  0  0  0
   20.6267   20.1131   23.4013 H   0  0  0  0  0  0  0  0  0  0  0  0
   19.3625   21.0495   24.1807 H   0  0  0  0  0  0  0  0  0  0  0  0
   19.5318   19.0603   24.9160 C   0  0  0  0  0  0  0  0  0  0  0  0
   20.4643   18.2953   25.0657 O   0  5  0  0  0  0  0  0  0  0  0  0
   18.5580   19.0839   25.6430 O   0  0  0  0  0  0  0  0  0  0  0  0
  1  2  1  0  0  0  0
  1  3  1  0  0  0  0
  1  4  2  0  0  0  0
  4  5  1  0  0  0  0
  4  6  1  0  0  0  0
  6  7  1  0  0  0  0
  6  8  1  0  0  0  0
  6  9  1  0  0  0  0
  9 10  1  0  0  0  0
  9 11  1  0  0  0  0
  9 12  1  0  0  0  0
 12 13  1  0  0  0  0
 12 14  1  0  0  0  0
 12 15  1  0  0  0  0
 15 16  1  0  0  0  0
 15 17  1  0  0  0  0
 15 18  1  0  0  0  0
 18 19  1  0  0  0  0
 18 20  2  0  0  0  0
M  END
> <VConfSearch Rank>
11

> <Conf_Id>
86

> <Delta U+W>
1.248

> <U+W>
-50.498

> <U>
10.404

> <W>
-60.901

> <W(PB)>
-63.061

> <W(SA)>
2.159

> <Valence>
10.021

> <Coulomb>
0.094

> <VdW>
0.289

> <VdW6>
-8.409

> <VdW12>
8.698

> <Bond>
0.179

> <Angle>
2.939

> <Pdih>
6.902

> <Idih>
0.001

> <Tether>
0.000

$$$$
VeraChem MOL file


 20 19  0  0  0  0  0  0  0  0999 V2000     
   21.0224   18.7556   19.1513 C   0  0  0  0  0  0  0  0  0  0  0  0
   21.5813   19.3543   18.4342 H   0  0  0  0  0  0  0  0  0  0  0  0
   21.4684   17.8172   19.4764 H   0  0  0  0  0  0  0  0  0  0  0  0
   19.8374   19.1619   19.6147 C   0  0  0  0  0  0  0  0  0  0  0  0
   19.4094   20.1058   19.2782 H   0  0  0  0  0  0  0  0  0  0  0  0
   19.0035   18.3853   20.6116 C   0  0  0  0  0  0  0  0  0  0  0  0
   19.4017   17.3698   20.7412 H   0  0  0  0  0  0  0  0  0  0  0  0
   17.9858   18.2706   20.2155 H   0  0  0  0  0  0  0  0  0  0  0  0
   18.9268   19.0882   21.9857 C   0  0  0  0  0  0  0  0  0  0  0  0
   18.5323   20.1053   21.8565 H   0  0  0  0  0  0  0  0  0  0  0  0
   18.2055   18.5508   22.6166 H   0  0  0  0  0  0  0  0  0  0  0  0
   20.2955   19.1443   22.7048 C   0  0  0  0  0  0  0  0  0  0  0  0
   21.0157   19.6872   22.0782 H   0  0  0  0  0  0  0  0  0  0  0  0
   20.6914   18.1271   22.8305 H   0  0  0  0  0  0  0  0  0  0  0  0
   20.2142   19.8395   24.0887 C   0  0  0  0  0  0  0  0  0  0  0  0
   21.2243   19.9614   24.4970 H   0  0  0  0  0  0  0  0  0  0  0  0
   19.7909   20.8456   23.9828 H   0  0  0  0  0  0  0  0  0  0  0  0
   19.3942   19.0718   25.1217 C   0  0  0  0  0  0  0  0  0  0  0  0
   19.8972   18.0946   25.6406 O   0  5  0  0  0  0  0  0  0  0  0  0
   18.2799   19.4767   25.3888 O   0  0  0  0  0  0  0  0  0  0  0  0
  1  2  1  0  0  0  0
  1  3  1  0  0  0  0
  1  4  2  0  0  0  0
  4  5  1  0  0  0  0
  4  6  1  0  0  0  0
  6  7  1  0  0  0  0
  6  8  1  0  0  0  0
  6  9  1  0  0  0  0
  9 10  1  0  0  0  0
  9 11  1  0  0  0  0
  9 12  1  0  0  0  0
 12 13  1  0  0  0  0
 12 14  1  0  0  0  0
 12 15  1  0  0  0  0
 15 16  1  0  0  0  0
 15 17  1  0  0  0  0
 15 18  1  0  0  0  0
 18 19  1  0  0  0  0
 18 20  2  0  0  0  0
M  END
> <VConfSearch Rank>
12

> <Conf_Id>
28

> <Delta U+W>
0.446

> <U+W>
-51.299

> <U>
9.295

> <W>
-60.594

> <W(PB)>
-62.806

> <W(SA)>
2.212

> <Valence>
9.495

> <Coulomb>
-0.610

> <VdW>
0.409

> <VdW6>
-7.332

> <VdW12>
7.741

> <Bond>
0.126

> <Angle>
2.497

> <Pdih>
6.872

> <Idih>
0.000

> <Tether>
0.000

$$$$
VeraChem MOL file


 20 19  0  0  0  0  0  0  0  0999 V2000     
   20.2520   17.7673   19.4303 C   0  0  0  0  0  0  0  0  0  0  0  0
   21.0802   17.5050   20.0851 H   0  0  0  0  0  0  0  0  0  0  0  0
   20.1797   17.2259   18.4886 H   0  0  0  0  0  0  0  0  0  0  0  0
   19.3524   18.7045   19.7504 C   0  0  0  0  0  0  0  0  0  0  0  0
   18.5429   18.9215   19.0539 H   0  0  0  0  0  0  0  0  0  0  0  0
   19.3224   19.5401   21.0193 C   0  0  0  0  0  0  0  0  0  0  0  0
   18.3898   19.3222   21.5554 H   0  0  0  0  0  0  0  0  0  0  0  0
   19.2667   20.6006   20.7401 H   0  0  0  0  0  0  0  0  0  0  0  0
   20.5293   19.3318   21.9673 C   0  0  0  0  0  0  0  0  0  0  0  0
   20.5433   18.2928   22.3242 H   0  0  0  0  0  0  0  0  0  0  0  0
   21.4588   19.4827   21.4016 H   0  0  0  0  0  0  0  0  0  0  0  0
   20.5377   20.2980   23.1779 C   0  0  0  0  0  0  0  0  0  0  0  0
   20.5743   21.3337   22.8140 H   0  0  0  0  0  0  0  0  0  0  0  0
   21.4631   20.1404   23.7489 H   0  0  0  0  0  0  0  0  0  0  0  0
   19.3275   20.1384   24.1384 C   0  0  0  0  0  0  0  0  0  0  0  0
   19.4131   20.8665   24.9533 H   0  0  0  0  0  0  0  0  0  0  0  0
   18.3887   20.3634   23.6197 H   0  0  0  0  0  0  0  0  0  0  0  0
   19.2150   18.7564   24.7760 C   0  0  0  0  0  0  0  0  0  0  0  0
   20.0379   18.4440   25.6143 O   0  5  0  0  0  0  0  0  0  0  0  0
   18.2968   18.0375   24.4341 O   0  0  0  0  0  0  0  0  0  0  0  0
  1  2  1  0  0  0  0
  1  3  1  0  0  0  0
  1  4  2  0  0  0  0
  4  5  1  0  0  0  0
  4  6  1  0  0  0  0
  6  7  1  0  0  0  0
  6  8  1  0  0  0  0
  6  9  1  0  0  0  0
  9 10  1  0  0  0  0
  9 11  1  0  0  0  0
  9 12  1  0  0  0  0
 12 13  1  0  0  0  0
 12 14  1  0  0  0  0
 12 15  1  0  0  0  0
 15 16  1  0  0  0  0
 15 17  1  0  0  0  0
 15 18  1  0  0  0  0
 18 19  1  0  0  0  0
 18 20  2  0  0  0  0
M  END
> <VConfSearch Rank>
13

> <Conf_Id>
53

> <Delta U+W>
0.549

> <U+W>
-51.197

> <U>
10.870

> <W>
-62.067

> <W(PB)>
-64.228

> <W(SA)>
2.161

> <Valence>
8.803

> <Coulomb>
1.020

> <VdW>
1.048

> <VdW6>
-8.312

> <VdW12>
9.360

> <Bond>
0.212

> <Angle>
3.379

> <Pdih>
5.211

> <Idih>
0.001

> <Tether>
0.000

$$$$
VeraChem MOL file


 20 19  0  0  0  0  0  0  0  0999 V2000     
   20.1987   18.3422   19.3474 C   0  0  0  0  0  0  0  0  0  0  0  0
   19.1533   18.0482   19.4112 H   0  0  0  0  0  0  0  0  0  0  0  0
   20.8087   17.8394   18.5991 H   0  0  0  0  0  0  0  0  0  0  0  0
   20.7237   19.2818   20.1412 C   0  0  0  0  0  0  0  0  0  0  0  0
   21.7766   19.5412   20.0341 H   0  0  0  0  0  0  0  0  0  0  0  0
   19.9942   20.0563   21.2266 C   0  0  0  0  0  0  0  0  0  0  0  0
   19.7049   21.0365   20.8254 H   0  0  0  0  0  0  0  0  0  0  0  0
   20.6980   20.2834   22.0375 H   0  0  0  0  0  0  0  0  0  0  0  0
   18.7446   19.3632   21.8296 C   0  0  0  0  0  0  0  0  0  0  0  0
   18.2722   20.0530   22.5422 H   0  0  0  0  0  0  0  0  0  0  0  0
   18.0001   19.2010   21.0392 H   0  0  0  0  0  0  0  0  0  0  0  0
   19.0305   18.0184   22.5484 C   0  0  0  0  0  0  0  0  0  0  0  0
   19.4356   17.2944   21.8298 H   0  0  0  0  0  0  0  0  0  0  0  0
   18.0781   17.5982   22.8997 H   0  0  0  0  0  0  0  0  0  0  0  0
   20.0013   18.1268   23.7559 C   0  0  0  0  0  0  0  0  0  0  0  0
   20.1463   17.1329   24.1948 H   0  0  0  0  0  0  0  0  0  0  0  0
   20.9898   18.4666   23.4266 H   0  0  0  0  0  0  0  0  0  0  0  0
   19.5121   19.0483   24.8694 C   0  0  0  0  0  0  0  0  0  0  0  0
   20.0736   20.1151   25.0234 O   0  5  0  0  0  0  0  0  0  0  0  0
   18.5923   18.6659   25.5661 O   0  0  0  0  0  0  0  0  0  0  0  0
  1  2  1  0  0  0  0
  1  3  1  0  0  0  0
  1  4  2  0  0  0  0
  4  5  1  0  0  0  0
  4  6  1  0  0  0  0
  6  7  1  0  0  0  0
  6  8  1  0  0  0  0
  6  9  1  0  0  0  0
  9 10  1  0  0  0  0
  9 11  1  0  0  0  0
  9 12  1  0  0  0  0
 12 13  1  0  0  0  0
 12 14  1  0  0  0  0
 12 15  1  0  0  0  0
 15 16  1  0  0  0  0
 15 17  1  0  0  0  0
 15 18  1  0  0  0  0
 18 19  1  0  0  0  0
 18 20  2  0  0  0  0
M  END
> <VConfSearch Rank>
14

> <Conf_Id>
66

> <Delta U+W>
1.737

> <U+W>
-50.008

> <U>
11.091

> <W>
-61.099

> <W(PB)>
-63.213

> <W(SA)>
2.114

> <Valence>
9.664

> <Coulomb>
0.658

> <VdW>
0.769

> <VdW6>
-9.171

> <VdW12>
9.940

> <Bond>
0.244

> <Angle>
3.658

> <Pdih>
5.762

> <Idih>
0.001

> <Tether>
0.000

$$$$
VeraChem MOL file


 20 19  0  0  0  0  0  0  0  0999 V2000     
   21.3576   19.2298   19.9417 C   0  0  0  0  0  0  0  0  0  0  0  0
   21.1435   20.2779   20.1388 H   0  0  0  0  0  0  0  0  0  0  0  0
   22.3728   18.9822   19.6366 H   0  0  0  0  0  0  0  0  0  0  0  0
   20.4260   18.2773   20.0588 C   0  0  0  0  0  0  0  0  0  0  0  0
   20.6947   17.2428   19.8466 H   0  0  0  0  0  0  0  0  0  0  0  0
   18.9784   18.4745   20.4785 C   0  0  0  0  0  0  0  0  0  0  0  0
   18.6527   17.5984   21.0530 H   0  0  0  0  0  0  0  0  0  0  0  0
   18.3492   18.4693   19.5786 H   0  0  0  0  0  0  0  0  0  0  0  0
   18.6790   19.7555   21.3005 C   0  0  0  0  0  0  0  0  0  0  0  0
   18.9487   20.6399   20.7085 H   0  0  0  0  0  0  0  0  0  0  0  0
   17.5944   19.8256   21.4600 H   0  0  0  0  0  0  0  0  0  0  0  0
   19.3884   19.8225   22.6771 C   0  0  0  0  0  0  0  0  0  0  0  0
   19.1768   20.7998   23.1324 H   0  0  0  0  0  0  0  0  0  0  0  0
   20.4775   19.7743   22.5460 H   0  0  0  0  0  0  0  0  0  0  0  0
   18.9407   18.7095   23.6599 C   0  0  0  0  0  0  0  0  0  0  0  0
   17.8491   18.7113   23.7631 H   0  0  0  0  0  0  0  0  0  0  0  0
   19.2317   17.7229   23.2821 H   0  0  0  0  0  0  0  0  0  0  0  0
   19.5462   18.8716   25.0496 C   0  0  0  0  0  0  0  0  0  0  0  0
   20.5997   18.3141   25.2866 O   0  5  0  0  0  0  0  0  0  0  0  0
   18.9551   19.5634   25.8552 O   0  0  0  0  0  0  0  0  0  0  0  0
  1  2  1  0  0  0  0
  1  3  1  0  0  0  0
  1  4  2  0  0  0  0
  4  5  1  0  0  0  0
  4  6  1  0  0  0  0
  6  7  1  0  0  0  0
  6  8  1  0  0  0  0
  6  9  1  0  0  0  0
  9 10  1  0  0  0  0
  9 11  1  0  0  0  0
  9 12  1  0  0  0  0
 12 13  1  0  0  0  0
 12 14  1  0  0  0  0
 12 15  1  0  0  0  0
 15 16  1  0  0  0  0
 15 17  1  0  0  0  0
 15 18  1  0  0  0  0
 18 19  1  0  0  0  0
 18 20  2  0  0  0  0
M  END
> <VConfSearch Rank>
15

> <Conf_Id>
64

> <Delta U+W>
0.366

> <U+W>
-51.379

> <U>
10.000

> <W>
-61.379

> <W(PB)>
-63.541

> <W(SA)>
2.162

> <Valence>
9.398

> <Coulomb>
-0.504

> <VdW>
1.105

> <VdW6>
-7.975

> <VdW12>
9.080

> <Bond>
0.216

> <Angle>
3.417

> <Pdih>
5.765

> <Idih>
0.001

> <Tether>
0.000

$$$$
VeraChem MOL file


 20 19  0  0  0  0  0  0  0  0999 V2000     
   18.6146   18.4754   19.3967 C   0  0  0  0  0  0  0  0  0  0  0  0
   17.9446   19.3137   19.5802 H   0  0  0  0  0  0  0  0  0  0  0  0
   18.1845   17.5770   18.9573 H   0  0  0  0  0  0  0  0  0  0  0  0
   19.9134   18.5411   19.7012 C   0  0  0  0  0  0  0  0  0  0  0  0
   20.5665   17.6897   19.5117 H   0  0  0  0  0  0  0  0  0  0  0  0
   20.5819   19.7535   20.3139 C   0  0  0  0  0  0  0  0  0  0  0  0
   19.9106   20.6224   20.2823 H   0  0  0  0  0  0  0  0  0  0  0  0
   21.4616   20.0199   19.7131 H   0  0  0  0  0  0  0  0  0  0  0  0
   21.0309   19.5012   21.7708 C   0  0  0  0  0  0  0  0  0  0  0  0
   21.7017   18.6317   21.8024 H   0  0  0  0  0  0  0  0  0  0  0  0
   21.6174   20.3638   22.1156 H   0  0  0  0  0  0  0  0  0  0  0  0
   19.8406   19.2795   22.7318 C   0  0  0  0  0  0  0  0  0  0  0  0
   19.2607   18.4025   22.4129 H   0  0  0  0  0  0  0  0  0  0  0  0
   19.1622   20.1427   22.6859 H   0  0  0  0  0  0  0  0  0  0  0  0
   20.3101   19.0741   24.1931 C   0  0  0  0  0  0  0  0  0  0  0  0
   20.9789   18.2074   24.2572 H   0  0  0  0  0  0  0  0  0  0  0  0
   20.8774   19.9479   24.5353 H   0  0  0  0  0  0  0  0  0  0  0  0
   19.1532   18.8528   25.1609 C   0  0  0  0  0  0  0  0  0  0  0  0
   18.6366   19.8281   25.6697 O   0  5  0  0  0  0  0  0  0  0  0  0
   18.7898   17.7122   25.3699 O   0  0  0  0  0  0  0  0  0  0  0  0
  1  2  1  0  0  0  0
  1  3  1  0  0  0  0
  1  4  2  0  0  0  0
  4  5  1  0  0  0  0
  4  6  1  0  0  0  0
  6  7  1  0  0  0  0
  6  8  1  0  0  0  0
  6  9  1  0  0  0  0
  9 10  1  0  0  0  0
  9 11  1  0  0  0  0
  9 12  1  0  0  0  0
 12 13  1  0  0  0  0
 12 14  1  0  0  0  0
 12 15  1  0  0  0  0
 15 16  1  0  0  0  0
 15 17  1  0  0  0  0
 15 18  1  0  0  0  0
 18 19  1  0  0  0  0
 18 20  2  0  0  0  0
M  END
> <VConfSearch Rank>
16

> <Conf_Id>
42

> <Delta U+W>
-0.601

> <U+W>
-52.347

> <U>
8.428

> <W>
-60.774

> <W(PB)>
-62.982

> <W(SA)>
2.208

> <Valence>
9.231

> <Coulomb>
-1.304

> <VdW>
0.501

> <VdW6>
-6.515

> <VdW12>
7.016

> <Bond>
0.103

> <Angle>
2.328

> <Pdih>
6.799

> <Idih>
0.000

> <Tether>
0.000

$$$$
VeraChem MOL file


 20 19  0  0  0  0  0  0  0  0999 V2000     
   19.1717   18.1775   19.2876 C   0  0  0  0  0  0  0  0  0  0  0  0
   18.6056   19.0532   18.9743 H   0  0  0  0  0  0  0  0  0  0  0  0
   18.8385   17.2080   18.9214 H   0  0  0  0  0  0  0  0  0  0  0  0
   20.2318   18.2840   20.0931 C   0  0  0  0  0  0  0  0  0  0  0  0
   20.7830   17.3946   20.3973 H   0  0  0  0  0  0  0  0  0  0  0  0
   20.7527   19.5949   20.6427 C   0  0  0  0  0  0  0  0  0  0  0  0
   20.2713   20.4441   20.1389 H   0  0  0  0  0  0  0  0  0  0  0  0
   21.8262   19.6738   20.4254 H   0  0  0  0  0  0  0  0  0  0  0  0
   20.5434   19.7140   22.1692 C   0  0  0  0  0  0  0  0  0  0  0  0
   21.0314   18.8673   22.6715 H   0  0  0  0  0  0  0  0  0  0  0  0
   21.0468   20.6224   22.5272 H   0  0  0  0  0  0  0  0  0  0  0  0
   19.0487   19.7717   22.5639 C   0  0  0  0  0  0  0  0  0  0  0  0
   18.5413   18.8495   22.2485 H   0  0  0  0  0  0  0  0  0  0  0  0
   18.5642   20.5976   22.0260 H   0  0  0  0  0  0  0  0  0  0  0  0
   18.8421   19.9721   24.0877 C   0  0  0  0  0  0  0  0  0  0  0  0
   19.3623   20.8766   24.4253 H   0  0  0  0  0  0  0  0  0  0  0  0
   17.7763   20.1225   24.2961 H   0  0  0  0  0  0  0  0  0  0  0  0
   19.3123   18.7946   24.9369 C   0  0  0  0  0  0  0  0  0  0  0  0
   20.3674   18.8983   25.5312 O   0  5  0  0  0  0  0  0  0  0  0  0
   18.6009   17.8110   24.9957 O   0  0  0  0  0  0  0  0  0  0  0  0
  1  2  1  0  0  0  0
  1  3  1  0  0  0  0
  1  4  2  0  0  0  0
  4  5  1  0  0  0  0
  4  6  1  0  0  0  0
  6  7  1  0  0  0  0
  6  8  1  0  0  0  0
  6  9  1  0  0  0  0
  9 10  1  0  0  0  0
  9 11  1  0  0  0  0
  9 12  1  0  0  0  0
 12 13  1  0  0  0  0
 12 14  1  0  0  0  0
 12 15  1  0  0  0  0
 15 16  1  0  0  0  0
 15 17  1  0  0  0  0
 15 18  1  0  0  0  0
 18 19  1  0  0  0  0
 18 20  2  0  0  0  0
M  END
> <VConfSearch Rank>
17

> <Conf_Id>
68

> <Delta U+W>
0.492

> <U+W>
-51.253

> <U>
10.179

> <W>
-61.432

> <W(PB)>
-63.627

> <W(SA)>
2.195

> <Valence>
9.483

> <Coulomb>
0.361

> <VdW>
0.335

> <VdW6>
-7.385

> <VdW12>
7.720

> <Bond>
0.125

> <Angle>
2.487

> <Pdih>
6.870

> <Idih>
0.001

> <Tether>
0.000

$$$$
VeraChem MOL file


 20 19  0  0  0  0  0  0  0  0999 V2000     
   20.5606   17.6311   19.4868 C   0  0  0  0  0  0  0  0  0  0  0  0
   19.6553   17.0899   19.2166 H   0  0  0  0  0  0  0  0  0  0  0  0
   21.5141   17.1558   19.2631 H   0  0  0  0  0  0  0  0  0  0  0  0
   20.5077   18.8299   20.0731 C   0  0  0  0  0  0  0  0  0  0  0  0
   21.4262   19.3555   20.3326 H   0  0  0  0  0  0  0  0  0  0  0  0
   19.2209   19.5534   20.4084 C   0  0  0  0  0  0  0  0  0  0  0  0
   18.3954   19.1342   19.8175 H   0  0  0  0  0  0  0  0  0  0  0  0
   19.2998   20.6101   20.1199 H   0  0  0  0  0  0  0  0  0  0  0  0
   18.8603   19.4474   21.9074 C   0  0  0  0  0  0  0  0  0  0  0  0
   17.8604   19.8751   22.0622 H   0  0  0  0  0  0  0  0  0  0  0  0
   18.7946   18.3879   22.1912 H   0  0  0  0  0  0  0  0  0  0  0  0
   19.8719   20.1775   22.8225 C   0  0  0  0  0  0  0  0  0  0  0  0
   19.9656   21.2226   22.4978 H   0  0  0  0  0  0  0  0  0  0  0  0
   20.8671   19.7236   22.7209 H   0  0  0  0  0  0  0  0  0  0  0  0
   19.4513   20.1500   24.3149 C   0  0  0  0  0  0  0  0  0  0  0  0
   20.1354   20.7761   24.8998 H   0  0  0  0  0  0  0  0  0  0  0  0
   18.4487   20.5780   24.4345 H   0  0  0  0  0  0  0  0  0  0  0  0
   19.4630   18.7563   24.9364 C   0  0  0  0  0  0  0  0  0  0  0  0
   20.5356   18.2789   25.2508 O   0  5  0  0  0  0  0  0  0  0  0  0
   18.3997   18.1933   25.1078 O   0  0  0  0  0  0  0  0  0  0  0  0
  1  2  1  0  0  0  0
  1  3  1  0  0  0  0
  1  4  2  0  0  0  0
  4  5  1  0  0  0  0
  4  6  1  0  0  0  0
  6  7  1  0  0  0  0
  6  8  1  0  0  0  0
  6  9  1  0  0  0  0
  9 10  1  0  0  0  0
  9 11  1  0  0  0  0
  9 12  1  0  0  0  0
 12 13  1  0  0  0  0
 12 14  1  0  0  0  0
 12 15  1  0  0  0  0
 15 16  1  0  0  0  0
 15 17  1  0  0  0  0
 15 18  1  0  0  0  0
 18 19  1  0  0  0  0
 18 20  2  0  0  0  0
M  END
> <VConfSearch Rank>
18

> <Conf_Id>
87

> <Delta U+W>
0.339

> <U+W>
-51.407

> <U>
10.461

> <W>
-61.867

> <W(PB)>
-64.045

> <W(SA)>
2.178

> <Valence>
9.555

> <Coulomb>
0.483

> <VdW>
0.423

> <VdW6>
-7.223

> <VdW12>
7.646

> <Bond>
0.126

> <Angle>
2.492

> <Pdih>
6.936

> <Idih>
0.001

> <Tether>
0.000

$$$$
VeraChem MOL file


 20 19  0  0  0  0  0  0  0  0999 V2000     
   20.8606   19.9967   19.6670 C   0  0  0  0  0  0  0  0  0  0  0  0
   20.0260   20.3226   19.0484 H   0  0  0  0  0  0  0  0  0  0  0  0
   21.7643   20.6034   19.6514 H   0  0  0  0  0  0  0  0  0  0  0  0
   20.7801   18.8961   20.4192 C   0  0  0  0  0  0  0  0  0  0  0  0
   21.6292   18.5812   21.0247 H   0  0  0  0  0  0  0  0  0  0  0  0
   19.5615   17.9999   20.4794 C   0  0  0  0  0  0  0  0  0  0  0  0
   19.8365   17.0093   20.8654 H   0  0  0  0  0  0  0  0  0  0  0  0
   19.2030   17.8312   19.4550 H   0  0  0  0  0  0  0  0  0  0  0  0
   18.3988   18.5907   21.3150 C   0  0  0  0  0  0  0  0  0  0  0  0
   18.2482   19.6473   21.0549 H   0  0  0  0  0  0  0  0  0  0  0  0
   17.4755   18.0736   21.0205 H   0  0  0  0  0  0  0  0  0  0  0  0
   18.5542   18.4372   22.8491 C   0  0  0  0  0  0  0  0  0  0  0  0
   18.7185   17.3813   23.1042 H   0  0  0  0  0  0  0  0  0  0  0  0
   17.6043   18.7232   23.3218 H   0  0  0  0  0  0  0  0  0  0  0  0
   19.6847   19.3012   23.4646 C   0  0  0  0  0  0  0  0  0  0  0  0
   20.6650   18.9472   23.1303 H   0  0  0  0  0  0  0  0  0  0  0  0
   19.5849   20.3440   23.1404 H   0  0  0  0  0  0  0  0  0  0  0  0
   19.6831   19.2759   24.9887 C   0  0  0  0  0  0  0  0  0  0  0  0
   20.3143   18.4016   25.5491 O   0  5  0  0  0  0  0  0  0  0  0  0
   19.0337   20.1187   25.5759 O   0  0  0  0  0  0  0  0  0  0  0  0
  1  2  1  0  0  0  0
  1  3  1  0  0  0  0
  1  4  2  0  0  0  0
  4  5  1  0  0  0  0
  4  6  1  0  0  0  0
  6  7  1  0  0  0  0
  6  8  1  0  0  0  0
  6  9  1  0  0  0  0
  9 10  1  0  0  0  0
  9 11  1  0  0  0  0
  9 12  1  0  0  0  0
 12 13  1  0  0  0  0
 12 14  1  0  0  0  0
 12 15  1  0  0  0  0
 15 16  1  0  0  0  0
 15 17  1  0  0  0  0
 15 18  1  0  0  0  0
 18 19  1  0  0  0  0
 18 20  2  0  0  0  0
M  END
> <VConfSearch Rank>
19

> <Conf_Id>
51

> <Delta U+W>
1.709

> <U+W>
-50.036

> <U>
10.643

> <W>
-60.679

> <W(PB)>
-62.882

> <W(SA)>
2.203

> <Valence>
11.231

> <Coulomb>
-1.077

> <VdW>
0.489

> <VdW6>
-7.546

> <VdW12>
8.035

> <Bond>
0.159

> <Angle>
3.005

> <Pdih>
8.065

> <Idih>
0.002

> <Tether>
0.000

$$$$
VeraChem MOL file


 20 19  0  0  0  0  0  0  0  0999 V2000     
   20.4938   17.7244   19.6505 C   0  0  0  0  0  0  0  0  0  0  0  0
   19.6001   17.6862   19.0298 H   0  0  0  0  0  0  0  0  0  0  0  0
   21.1610   16.8647   19.6236 H   0  0  0  0  0  0  0  0  0  0  0  0
   20.7620   18.7836   20.4185 C   0  0  0  0  0  0  0  0  0  0  0  0
   21.6661   18.8070   21.0258 H   0  0  0  0  0  0  0  0  0  0  0  0
   19.8867   20.0163   20.4951 C   0  0  0  0  0  0  0  0  0  0  0  0
   19.6019   20.3045   19.4742 H   0  0  0  0  0  0  0  0  0  0  0  0
   20.4582   20.8644   20.8953 H   0  0  0  0  0  0  0  0  0  0  0  0
   18.5953   19.8086   21.3246 C   0  0  0  0  0  0  0  0  0  0  0  0
   17.8822   20.5945   21.0406 H   0  0  0  0  0  0  0  0  0  0  0  0
   18.1204   18.8572   21.0485 H   0  0  0  0  0  0  0  0  0  0  0  0
   18.7875   19.8815   22.8605 C   0  0  0  0  0  0  0  0  0  0  0  0
   17.7947   19.9018   23.3311 H   0  0  0  0  0  0  0  0  0  0  0  0
   19.2753   20.8279   23.1314 H   0  0  0  0  0  0  0  0  0  0  0  0
   19.5869   18.6960   23.4595 C   0  0  0  0  0  0  0  0  0  0  0  0
   19.1647   17.7429   23.1193 H   0  0  0  0  0  0  0  0  0  0  0  0
   20.6296   18.7285   23.1282 H   0  0  0  0  0  0  0  0  0  0  0  0
   19.5896   18.6967   24.9838 C   0  0  0  0  0  0  0  0  0  0  0  0
   20.4628   19.3186   25.5562 O   0  5  0  0  0  0  0  0  0  0  0  0
   18.7064   18.0922   25.5595 O   0  0  0  0  0  0  0  0  0  0  0  0
  1  2  1  0  0  0  0
  1  3  1  0  0  0  0
  1  4  2  0  0  0  0
  4  5  1  0  0  0  0
  4  6  1  0  0  0  0
  6  7  1  0  0  0  0
  6  8  1  0  0  0  0
  6  9  1  0  0  0  0
  9 10  1  0  0  0  0
  9 11  1  0  0  0  0
  9 12  1  0  0  0  0
 12 13  1  0  0  0  0
 12 14  1  0  0  0  0
 12 15  1  0  0  0  0
 15 16  1  0  0  0  0
 15 17  1  0  0  0  0
 15 18  1  0  0  0  0
 18 19  1  0  0  0  0
 18 20  2  0  0  0  0
M  END
> <VConfSearch Rank>
20

> <Conf_Id>
91

> <Delta U+W>
1.604

> <U+W>
-50.141

> <U>
10.644

> <W>
-60.786

> <W(PB)>
-62.965

> <W(SA)>
2.179

> <Valence>
11.230

> <Coulomb>
-1.075

> <VdW>
0.489

> <VdW6>
-7.547

> <VdW12>
8.036

> <Bond>
0.159

> <Angle>
3.006

> <Pdih>
8.064

> <Idih>
0.002

> <Tether>
0.000

$$$$
VeraChem MOL file


 20 19  0  0  0  0  0  0  0  0999 V2000     
   19.4127   22.2654   23.5816 C   0  0  0  0  0  0  0  0  0  0  0  0
   20.2614   22.0014   24.2104 H   0  0  0  0  0  0  0  0  0  0  0  0
   18.7407   23.0403   23.9465 H   0  0  0  0  0  0  0  0  0  0  0  0
   19.1992   21.6630   22.4089 C   0  0  0  0  0  0  0  0  0  0  0  0
   18.3430   21.9416   21.7948 H   0  0  0  0  0  0  0  0  0  0  0  0
   20.0882   20.5810   21.8374 C   0  0  0  0  0  0  0  0  0  0  0  0
   21.0443   20.5497   22.3775 H   0  0  0  0  0  0  0  0  0  0  0  0
   20.3242   20.8142   20.7905 H   0  0  0  0  0  0  0  0  0  0  0  0
   19.4065   19.1991   21.9189 C   0  0  0  0  0  0  0  0  0  0  0  0
   19.1687   18.9726   22.9675 H   0  0  0  0  0  0  0  0  0  0  0  0
   18.4525   19.2296   21.3748 H   0  0  0  0  0  0  0  0  0  0  0  0
   20.3000   18.0822   21.3365 C   0  0  0  0  0  0  0  0  0  0  0  0
   21.2543   18.0507   21.8806 H   0  0  0  0  0  0  0  0  0  0  0  0
   20.5392   18.3088   20.2882 H   0  0  0  0  0  0  0  0  0  0  0  0
   19.6144   16.6925   21.4193 C   0  0  0  0  0  0  0  0  0  0  0  0
   19.3786   16.4571   22.4638 H   0  0  0  0  0  0  0  0  0  0  0  0
   18.6642   16.7147   20.8729 H   0  0  0  0  0  0  0  0  0  0  0  0
   20.4333   15.5267   20.8628 C   0  0  0  0  0  0  0  0  0  0  0  0
   19.9285   14.4225   20.9091 O   0  5  0  0  0  0  0  0  0  0  0  0
   21.5392   15.7330   20.4011 O   0  0  0  0  0  0  0  0  0  0  0  0
  1  2  1  0  0  0  0
  1  3  1  0  0  0  0
  1  4  2  0  0  0  0
  4  5  1  0  0  0  0
  4  6  1  0  0  0  0
  6  7  1  0  0  0  0
  6  8  1  0  0  0  0
  6  9  1  0  0  0  0
  9 10  1  0  0  0  0
  9 11  1  0  0  0  0
  9 12  1  0  0  0  0
 12 13  1  0  0  0  0
 12 14  1  0  0  0  0
 12 15  1  0  0  0  0
 15 16  1  0  0  0  0
 15 17  1  0  0  0  0
 15 18  1  0  0  0  0
 18 19  1  0  0  0  0
 18 20  2  0  0  0  0
M  END
> <VConfSearch Rank>
21

> <Conf_Id>
33

> <Delta U+W>
0.000

> <U+W>
-51.745

> <U>
7.593

> <W>
-59.338

> <W(PB)>
-61.574

> <W(SA)>
2.236

> <Valence>
9.570

> <Coulomb>
-3.091

> <VdW>
1.114

> <VdW6>
-6.064

> <VdW12>
7.178

> <Bond>
0.117

> <Angle>
2.692

> <Pdih>
6.761

> <Idih>
0.000

> <Tether>
0.000

$$$$
VeraChem MOL file


 20 19  0  0  0  0  0  0  0  0999 V2000     
   19.9725   18.8357   18.3036 C   0  0  0  0  0  0  0  0  0  0  0  0
   20.7984   18.1339   18.4082 H   0  0  0  0  0  0  0  0  0  0  0  0
   19.7768   19.2344   17.3096 H   0  0  0  0  0  0  0  0  0  0  0  0
   19.2278   19.1979   19.3514 C   0  0  0  0  0  0  0  0  0  0  0  0
   18.4061   19.9025   19.2254 H   0  0  0  0  0  0  0  0  0  0  0  0
   19.4390   18.6864   20.7590 C   0  0  0  0  0  0  0  0  0  0  0  0
   20.0988   17.8082   20.7488 H   0  0  0  0  0  0  0  0  0  0  0  0
   18.4768   18.3558   21.1699 H   0  0  0  0  0  0  0  0  0  0  0  0
   20.0531   19.7808   21.6607 C   0  0  0  0  0  0  0  0  0  0  0  0
   20.9706   20.1557   21.1865 H   0  0  0  0  0  0  0  0  0  0  0  0
   19.3658   20.6355   21.7248 H   0  0  0  0  0  0  0  0  0  0  0  0
   20.4008   19.2844   23.0843 C   0  0  0  0  0  0  0  0  0  0  0  0
   20.9320   20.0856   23.6167 H   0  0  0  0  0  0  0  0  0  0  0  0
   21.0987   18.4379   23.0223 H   0  0  0  0  0  0  0  0  0  0  0  0
   19.1590   18.8718   23.9165 C   0  0  0  0  0  0  0  0  0  0  0  0
   18.4351   19.6949   23.9499 H   0  0  0  0  0  0  0  0  0  0  0  0
   18.6549   18.0130   23.4592 H   0  0  0  0  0  0  0  0  0  0  0  0
   19.5105   18.4930   25.3507 C   0  0  0  0  0  0  0  0  0  0  0  0
   19.7964   17.3353   25.5847 O   0  5  0  0  0  0  0  0  0  0  0  0
   19.5083   19.3694   26.1925 O   0  0  0  0  0  0  0  0  0  0  0  0
  1  2  1  0  0  0  0
  1  3  1  0  0  0  0
  1  4  2  0  0  0  0
  4  5  1  0  0  0  0
  4  6  1  0  0  0  0
  6  7  1  0  0  0  0
  6  8  1  0  0  0  0
  6  9  1  0  0  0  0
  9 10  1  0  0  0  0
  9 11  1  0  0  0  0
  9 12  1  0  0  0  0
 12 13  1  0  0  0  0
 12 14  1  0  0  0  0
 12 15  1  0  0  0  0
 15 16  1  0  0  0  0
 15 17  1  0  0  0  0
 15 18  1  0  0  0  0
 18 19  1  0  0  0  0
 18 20  2  0  0  0  0
M  END
> <VConfSearch Rank>
22

> <Conf_Id>
37

> <Delta U+W>
-0.384

> <U+W>
-52.130

> <U>
7.491

> <W>
-59.621

> <W(PB)>
-61.853

> <W(SA)>
2.232

> <Valence>
9.604

> <Coulomb>
-2.799

> <VdW>
0.686

> <VdW6>
-6.435

> <VdW12>
7.121

> <Bond>
0.124

> <Angle>
2.493

> <Pdih>
6.986

> <Idih>
0.001

> <Tether>
0.000

$$$$
VeraChem MOL file


 20 19  0  0  0  0  0  0  0  0999 V2000     
   21.3225   19.7733   24.7785 C   0  0  0  0  0  0  0  0  0  0  0  0
   21.8227   20.0379   25.7086 H   0  0  0  0  0  0  0  0  0  0  0  0
   21.0570   18.7269   24.6445 H   0  0  0  0  0  0  0  0  0  0  0  0
   21.0562   20.7058   23.8567 C   0  0  0  0  0  0  0  0  0  0  0  0
   21.3470   21.7384   24.0483 H   0  0  0  0  0  0  0  0  0  0  0  0
   20.3687   20.4904   22.5189 C   0  0  0  0  0  0  0  0  0  0  0  0
   21.0356   20.8396   21.7192 H   0  0  0  0  0  0  0  0  0  0  0  0
   19.4828   21.1375   22.4692 H   0  0  0  0  0  0  0  0  0  0  0  0
   19.9477   19.0311   22.2269 C   0  0  0  0  0  0  0  0  0  0  0  0
   20.8331   18.3812   22.2545 H   0  0  0  0  0  0  0  0  0  0  0  0
   19.2635   18.6824   23.0127 H   0  0  0  0  0  0  0  0  0  0  0  0
   19.2579   18.8987   20.8515 C   0  0  0  0  0  0  0  0  0  0  0  0
   19.9375   19.2462   20.0609 H   0  0  0  0  0  0  0  0  0  0  0  0
   18.3711   19.5467   20.8176 H   0  0  0  0  0  0  0  0  0  0  0  0
   18.8354   17.4383   20.5569 C   0  0  0  0  0  0  0  0  0  0  0  0
   19.7120   16.7796   20.5738 H   0  0  0  0  0  0  0  0  0  0  0  0
   18.1456   17.0802   21.3305 H   0  0  0  0  0  0  0  0  0  0  0  0
   18.1515   17.2817   19.2034 C   0  0  0  0  0  0  0  0  0  0  0  0
   18.8457   17.0504   18.2333 O   0  5  0  0  0  0  0  0  0  0  0  0
   16.9447   17.4148   19.1518 O   0  0  0  0  0  0  0  0  0  0  0  0
  1  2  1  0  0  0  0
  1  3  1  0  0  0  0
  1  4  2  0  0  0  0
  4  5  1  0  0  0  0
  4  6  1  0  0  0  0
  6  7  1  0  0  0  0
  6  8  1  0  0  0  0
  6  9  1  0  0  0  0
  9 10  1  0  0  0  0
  9 11  1  0  0  0  0
  9 12  1  0  0  0  0
 12 13  1  0  0  0  0
 12 14  1  0  0  0  0
 12 15  1  0  0  0  0
 15 16  1  0  0  0  0
 15 17  1  0  0  0  0
 15 18  1  0  0  0  0
 18 19  1  0  0  0  0
 18 20  2  0  0  0  0
M  END
> <VConfSearch Rank>
23

> <Conf_Id>
44

> <Delta U+W>
-1.440

> <U+W>
-53.185

> <U>
6.572

> <W>
-59.757

> <W(PB)>
-62.007

> <W(SA)>
2.249

> <Valence>
7.989

> <Coulomb>
-2.697

> <VdW>
1.281

> <VdW6>
-6.467

> <VdW12>
7.748

> <Bond>
0.136

> <Angle>
2.854

> <Pdih>
4.997

> <Idih>
0.001

> <Tether>
0.000

$$$$
VeraChem MOL file


 20 19  0  0  0  0  0  0  0  0999 V2000     
   22.5450   17.5250   20.4986 C   0  0  0  0  0  0  0  0  0  0  0  0
   21.9735   17.7331   19.5954 H   0  0  0  0  0  0  0  0  0  0  0  0
   23.3824   16.8346   20.4135 H   0  0  0  0  0  0  0  0  0  0  0  0
   22.2326   18.0903   21.6676 C   0  0  0  0  0  0  0  0  0  0  0  0
   22.8172   17.8680   22.5600 H   0  0  0  0  0  0  0  0  0  0  0  0
   21.0865   19.0581   21.8620 C   0  0  0  0  0  0  0  0  0  0  0  0
   20.7390   19.4248   20.8876 H   0  0  0  0  0  0  0  0  0  0  0  0
   21.4375   19.9338   22.4239 H   0  0  0  0  0  0  0  0  0  0  0  0
   19.9181   18.3895   22.6208 C   0  0  0  0  0  0  0  0  0  0  0  0
   19.5318   17.5463   22.0317 H   0  0  0  0  0  0  0  0  0  0  0  0
   20.3008   17.9629   23.5582 H   0  0  0  0  0  0  0  0  0  0  0  0
   18.7631   19.3625   22.9576 C   0  0  0  0  0  0  0  0  0  0  0  0
   19.1462   20.2014   23.5551 H   0  0  0  0  0  0  0  0  0  0  0  0
   18.0344   18.8380   23.5913 H   0  0  0  0  0  0  0  0  0  0  0  0
   18.0301   19.9105   21.7056 C   0  0  0  0  0  0  0  0  0  0  0  0
   18.7080   20.5178   21.0954 H   0  0  0  0  0  0  0  0  0  0  0  0
   17.6812   19.0816   21.0782 H   0  0  0  0  0  0  0  0  0  0  0  0
   16.8255   20.7751   22.0595 C   0  0  0  0  0  0  0  0  0  0  0  0
   15.7453   20.2318   22.1808 O   0  5  0  0  0  0  0  0  0  0  0  0
   17.0025   21.9660   22.2244 O   0  0  0  0  0  0  0  0  0  0  0  0
  1  2  1  0  0  0  0
  1  3  1  0  0  0  0
  1  4  2  0  0  0  0
  4  5  1  0  0  0  0
  4  6  1  0  0  0  0
  6  7  1  0  0  0  0
  6  8  1  0  0  0  0
  6  9  1  0  0  0  0
  9 10  1  0  0  0  0
  9 11  1  0  0  0  0
  9 12  1  0  0  0  0
 12 13  1  0  0  0  0
 12 14  1  0  0  0  0
 12 15  1  0  0  0  0
 15 16  1  0  0  0  0
 15 17  1  0  0  0  0
 15 18  1  0  0  0  0
 18 19  1  0  0  0  0
 18 20  2  0  0  0  0
M  END
> <VConfSearch Rank>
24

> <Conf_Id>
38

> <Delta U+W>
-0.381

> <U+W>
-52.126

> <U>
7.601

> <W>
-59.727

> <W(PB)>
-61.964

> <W(SA)>
2.236

> <Valence>
9.602

> <Coulomb>
-2.686

> <VdW>
0.685

> <VdW6>
-6.453

> <VdW12>
7.139

> <Bond>
0.125

> <Angle>
2.485

> <Pdih>
6.991

> <Idih>
0.001

> <Tether>
0.000

$$$$
VeraChem MOL file


 20 19  0  0  0  0  0  0  0  0999 V2000     
   19.3367   17.0767   19.2241 C   0  0  0  0  0  0  0  0  0  0  0  0
   19.0349   17.8922   18.5687 H   0  0  0  0  0  0  0  0  0  0  0  0
   19.7333   16.1777   18.7551 H   0  0  0  0  0  0  0  0  0  0  0  0
   19.2284   17.1720   20.5518 C   0  0  0  0  0  0  0  0  0  0  0  0
   19.5371   16.3444   21.1901 H   0  0  0  0  0  0  0  0  0  0  0  0
   18.6874   18.3863   21.2733 C   0  0  0  0  0  0  0  0  0  0  0  0
   17.9393   18.0710   22.0130 H   0  0  0  0  0  0  0  0  0  0  0  0
   18.1724   19.0507   20.5661 H   0  0  0  0  0  0  0  0  0  0  0  0
   19.8174   19.1638   21.9801 C   0  0  0  0  0  0  0  0  0  0  0  0
   20.3292   18.4977   22.6885 H   0  0  0  0  0  0  0  0  0  0  0  0
   20.5660   19.4733   21.2378 H   0  0  0  0  0  0  0  0  0  0  0  0
   19.2808   20.4069   22.7252 C   0  0  0  0  0  0  0  0  0  0  0  0
   18.5393   20.0998   23.4759 H   0  0  0  0  0  0  0  0  0  0  0  0
   18.7577   21.0586   22.0124 H   0  0  0  0  0  0  0  0  0  0  0  0
   20.4061   21.2190   23.4173 C   0  0  0  0  0  0  0  0  0  0  0  0
   21.1692   21.5093   22.6850 H   0  0  0  0  0  0  0  0  0  0  0  0
   19.9897   22.1469   23.8267 H   0  0  0  0  0  0  0  0  0  0  0  0
   21.0884   20.4798   24.5648 C   0  0  0  0  0  0  0  0  0  0  0  0
   22.2006   20.0270   24.3778 O   0  5  0  0  0  0  0  0  0  0  0  0
   20.4926   20.3863   25.6199 O   0  0  0  0  0  0  0  0  0  0  0  0
  1  2  1  0  0  0  0
  1  3  1  0  0  0  0
  1  4  2  0  0  0  0
  4  5  1  0  0  0  0
  4  6  1  0  0  0  0
  6  7  1  0  0  0  0
  6  8  1  0  0  0  0
  6  9  1  0  0  0  0
  9 10  1  0  0  0  0
  9 11  1  0  0  0  0
  9 12  1  0  0  0  0
 12 13  1  0  0  0  0
 12 14  1  0  0  0  0
 12 15  1  0  0  0  0
 15 16  1  0  0  0  0
 15 17  1  0  0  0  0
 15 18  1  0  0  0  0
 18 19  1  0  0  0  0
 18 20  2  0  0  0  0
M  END
> <VConfSearch Rank>
25

> <Conf_Id>
58

> <Delta U+W>
0.019

> <U+W>
-51.727

> <U>
8.963

> <W>
-60.690

> <W(PB)>
-62.934

> <W(SA)>
2.244

> <Valence>
9.327

> <Coulomb>
-0.780

> <VdW>
0.417

> <VdW6>
-6.635

> <VdW12>
7.052

> <Bond>
0.105

> <Angle>
2.399

> <Pdih>
6.822

> <Idih>
0.000

> <Tether>
0.000

$$$$
VeraChem MOL file


 20 19  0  0  0  0  0  0  0  0999 V2000     
   18.9537   22.5267   20.9271 C   0  0  0  0  0  0  0  0  0  0  0  0
   18.1679   22.6501   21.6708 H   0  0  0  0  0  0  0  0  0  0  0  0
   18.9107   23.1607   20.0431 H   0  0  0  0  0  0  0  0  0  0  0  0
   19.9322   21.6322   21.0879 C   0  0  0  0  0  0  0  0  0  0  0  0
   20.7088   21.5239   20.3310 H   0  0  0  0  0  0  0  0  0  0  0  0
   20.0577   20.7193   22.2873 C   0  0  0  0  0  0  0  0  0  0  0  0
   19.4027   21.0651   23.0985 H   0  0  0  0  0  0  0  0  0  0  0  0
   21.0855   20.7579   22.6724 H   0  0  0  0  0  0  0  0  0  0  0  0
   19.6977   19.2644   21.9201 C   0  0  0  0  0  0  0  0  0  0  0  0
   18.6708   19.2305   21.5309 H   0  0  0  0  0  0  0  0  0  0  0  0
   20.3557   18.9202   21.1102 H   0  0  0  0  0  0  0  0  0  0  0  0
   19.8238   18.3171   23.1347 C   0  0  0  0  0  0  0  0  0  0  0  0
   19.1748   18.6778   23.9442 H   0  0  0  0  0  0  0  0  0  0  0  0
   20.8527   18.3406   23.5200 H   0  0  0  0  0  0  0  0  0  0  0  0
   19.4366   16.8549   22.7931 C   0  0  0  0  0  0  0  0  0  0  0  0
   19.4288   16.2540   23.7101 H   0  0  0  0  0  0  0  0  0  0  0  0
   18.4210   16.8182   22.3807 H   0  0  0  0  0  0  0  0  0  0  0  0
   20.3861   16.1754   21.8105 C   0  0  0  0  0  0  0  0  0  0  0  0
   21.4672   15.8038   22.2233 O   0  5  0  0  0  0  0  0  0  0  0  0
   20.0166   16.0255   20.6625 O   0  0  0  0  0  0  0  0  0  0  0  0
  1  2  1  0  0  0  0
  1  3  1  0  0  0  0
  1  4  2  0  0  0  0
  4  5  1  0  0  0  0
  4  6  1  0  0  0  0
  6  7  1  0  0  0  0
  6  8  1  0  0  0  0
  6  9  1  0  0  0  0
  9 10  1  0  0  0  0
  9 11  1  0  0  0  0
  9 12  1  0  0  0  0
 12 13  1  0  0  0  0
 12 14  1  0  0  0  0
 12 15  1  0  0  0  0
 15 16  1  0  0  0  0
 15 17  1  0  0  0  0
 15 18  1  0  0  0  0
 18 19  1  0  0  0  0
 18 20  2  0  0  0  0
M  END
> <VConfSearch Rank>
26

> <Conf_Id>
54

> <Delta U+W>
-0.048

> <U+W>
-51.793

> <U>
8.964

> <W>
-60.756

> <W(PB)>
-63.007

> <W(SA)>
2.251

> <Valence>
9.327

> <Coulomb>
-0.780

> <VdW>
0.417

> <VdW6>
-6.635

> <VdW12>
7.052

> <Bond>
0.105

> <Angle>
2.399

> <Pdih>
6.822

> <Idih>
0.000

> <Tether>
0.000

$$$$
VeraChem MOL file


 20 19  0  0  0  0  0  0  0  0999 V2000     
   21.2730   17.4052   24.5162 C   0  0  0  0  0  0  0  0  0  0  0  0
   22.2266   17.5207   25.0285 H   0  0  0  0  0  0  0  0  0  0  0  0
   20.4147   17.1067   25.1160 H   0  0  0  0  0  0  0  0  0  0  0  0
   21.1637   17.6250   23.2034 C   0  0  0  0  0  0  0  0  0  0  0  0
   22.0362   17.9197   22.6211 H   0  0  0  0  0  0  0  0  0  0  0  0
   19.8742   17.4776   22.4240 C   0  0  0  0  0  0  0  0  0  0  0  0
   19.1719   16.8477   22.9866 H   0  0  0  0  0  0  0  0  0  0  0  0
   20.0663   16.9540   21.4780 H   0  0  0  0  0  0  0  0  0  0  0  0
   19.1991   18.8382   22.1391 C   0  0  0  0  0  0  0  0  0  0  0  0
   18.2100   18.6539   21.6980 H   0  0  0  0  0  0  0  0  0  0  0  0
   19.0254   19.3655   23.0871 H   0  0  0  0  0  0  0  0  0  0  0  0
   20.0268   19.7328   21.1858 C   0  0  0  0  0  0  0  0  0  0  0  0
   20.2132   19.2000   20.2430 H   0  0  0  0  0  0  0  0  0  0  0  0
   21.0084   19.9361   21.6337 H   0  0  0  0  0  0  0  0  0  0  0  0
   19.3298   21.0847   20.8827 C   0  0  0  0  0  0  0  0  0  0  0  0
   19.1067   21.6135   21.8172 H   0  0  0  0  0  0  0  0  0  0  0  0
   20.0090   21.7264   20.3092 H   0  0  0  0  0  0  0  0  0  0  0  0
   18.0401   20.9517   20.0778 C   0  0  0  0  0  0  0  0  0  0  0  0
   16.9817   21.0905   20.6588 O   0  5  0  0  0  0  0  0  0  0  0  0
   18.1293   20.7232   18.8875 O   0  0  0  0  0  0  0  0  0  0  0  0
  1  2  1  0  0  0  0
  1  3  1  0  0  0  0
  1  4  2  0  0  0  0
  4  5  1  0  0  0  0
  4  6  1  0  0  0  0
  6  7  1  0  0  0  0
  6  8  1  0  0  0  0
  6  9  1  0  0  0  0
  9 10  1  0  0  0  0
  9 11  1  0  0  0  0
  9 12  1  0  0  0  0
 12 13  1  0  0  0  0
 12 14  1  0  0  0  0
 12 15  1  0  0  0  0
 15 16  1  0  0  0  0
 15 17  1  0  0  0  0
 15 18  1  0  0  0  0
 18 19  1  0  0  0  0
 18 20  2  0  0  0  0
M  END
> <VConfSearch Rank>
27

> <Conf_Id>
27

> <Delta U+W>
0.478

> <U+W>
-51.267

> <U>
9.192

> <W>
-60.459

> <W(PB)>
-62.649

> <W(SA)>
2.190

> <Valence>
9.572

> <Coulomb>
-0.884

> <VdW>
0.504

> <VdW6>
-7.168

> <VdW12>
7.672

> <Bond>
0.127

> <Angle>
2.504

> <Pdih>
6.941

> <Idih>
0.001

> <Tether>
0.000

$$$$
VeraChem MOL file


 20 19  0  0  0  0  0  0  0  0999 V2000     
   22.7132   20.2245   21.7588 C   0  0  0  0  0  0  0  0  0  0  0  0
   23.3330   19.7332   22.5070 H   0  0  0  0  0  0  0  0  0  0  0  0
   22.9502   21.2580   21.5120 H   0  0  0  0  0  0  0  0  0  0  0  0
   21.6988   19.5888   21.1668 C   0  0  0  0  0  0  0  0  0  0  0  0
   21.0929   20.0984   20.4182 H   0  0  0  0  0  0  0  0  0  0  0  0
   21.3152   18.1528   21.4543 C   0  0  0  0  0  0  0  0  0  0  0  0
   22.1606   17.6303   21.9221 H   0  0  0  0  0  0  0  0  0  0  0  0
   21.1104   17.6247   20.5134 H   0  0  0  0  0  0  0  0  0  0  0  0
   20.0893   18.0473   22.3892 C   0  0  0  0  0  0  0  0  0  0  0  0
   19.9440   16.9937   22.6643 H   0  0  0  0  0  0  0  0  0  0  0  0
   20.2941   18.5906   23.3220 H   0  0  0  0  0  0  0  0  0  0  0  0
   18.7924   18.5863   21.7430 C   0  0  0  0  0  0  0  0  0  0  0  0
   18.6030   18.0599   20.7972 H   0  0  0  0  0  0  0  0  0  0  0  0
   18.9096   19.6507   21.4981 H   0  0  0  0  0  0  0  0  0  0  0  0
   17.5696   18.4146   22.6775 C   0  0  0  0  0  0  0  0  0  0  0  0
   17.4245   17.3554   22.9214 H   0  0  0  0  0  0  0  0  0  0  0  0
   17.7383   18.9450   23.6225 H   0  0  0  0  0  0  0  0  0  0  0  0
   16.2771   18.9402   22.0634 C   0  0  0  0  0  0  0  0  0  0  0  0
   15.9807   20.1026   22.2576 O   0  5  0  0  0  0  0  0  0  0  0  0
   15.6097   18.1780   21.3923 O   0  0  0  0  0  0  0  0  0  0  0  0
  1  2  1  0  0  0  0
  1  3  1  0  0  0  0
  1  4  2  0  0  0  0
  4  5  1  0  0  0  0
  4  6  1  0  0  0  0
  6  7  1  0  0  0  0
  6  8  1  0  0  0  0
  6  9  1  0  0  0  0
  9 10  1  0  0  0  0
  9 11  1  0  0  0  0
  9 12  1  0  0  0  0
 12 13  1  0  0  0  0
 12 14  1  0  0  0  0
 12 15  1  0  0  0  0
 15 16  1  0  0  0  0
 15 17  1  0  0  0  0
 15 18  1  0  0  0  0
 18 19  1  0  0  0  0
 18 20  2  0  0  0  0
M  END
> <VConfSearch Rank>
28

> <Conf_Id>
41

> <Delta U+W>
-0.634

> <U+W>
-52.379

> <U>
7.828

> <W>
-60.207

> <W(PB)>
-62.449

> <W(SA)>
2.242

> <Valence>
9.300

> <Coulomb>
-2.080

> <VdW>
0.608

> <VdW6>
-6.341

> <VdW12>
6.949

> <Bond>
0.103

> <Angle>
2.334

> <Pdih>
6.862

> <Idih>
0.001

> <Tether>
0.000

$$$$
VeraChem MOL file


 20 19  0  0  0  0  0  0  0  0999 V2000     
   21.5227   21.7774   21.0014 C   0  0  0  0  0  0  0  0  0  0  0  0
   21.4196   22.7091   20.4478 H   0  0  0  0  0  0  0  0  0  0  0  0
   22.3654   21.6915   21.6854 H   0  0  0  0  0  0  0  0  0  0  0  0
   20.6460   20.7819   20.8462 C   0  0  0  0  0  0  0  0  0  0  0  0
   19.8086   20.8878   20.1569 H   0  0  0  0  0  0  0  0  0  0  0  0
   20.7245   19.4608   21.5785 C   0  0  0  0  0  0  0  0  0  0  0  0
   21.7136   19.3403   22.0405 H   0  0  0  0  0  0  0  0  0  0  0  0
   20.6073   18.6422   20.8566 H   0  0  0  0  0  0  0  0  0  0  0  0
   19.6313   19.3635   22.6660 C   0  0  0  0  0  0  0  0  0  0  0  0
   19.7021   20.2439   23.3195 H   0  0  0  0  0  0  0  0  0  0  0  0
   18.6397   19.4081   22.1951 H   0  0  0  0  0  0  0  0  0  0  0  0
   19.7404   18.0903   23.5409 C   0  0  0  0  0  0  0  0  0  0  0  0
   18.9793   18.1387   24.3320 H   0  0  0  0  0  0  0  0  0  0  0  0
   20.7134   18.0839   24.0504 H   0  0  0  0  0  0  0  0  0  0  0  0
   19.5651   16.7584   22.7613 C   0  0  0  0  0  0  0  0  0  0  0  0
   20.3554   16.6418   22.0112 H   0  0  0  0  0  0  0  0  0  0  0  0
   19.6693   15.9158   23.4548 H   0  0  0  0  0  0  0  0  0  0  0  0
   18.2115   16.6138   22.0717 C   0  0  0  0  0  0  0  0  0  0  0  0
   17.2337   16.4155   22.7660 O   0  5  0  0  0  0  0  0  0  0  0  0
   18.1723   16.6849   20.8591 O   0  0  0  0  0  0  0  0  0  0  0  0
  1  2  1  0  0  0  0
  1  3  1  0  0  0  0
  1  4  2  0  0  0  0
  4  5  1  0  0  0  0
  4  6  1  0  0  0  0
  6  7  1  0  0  0  0
  6  8  1  0  0  0  0
  6  9  1  0  0  0  0
  9 10  1  0  0  0  0
  9 11  1  0  0  0  0
  9 12  1  0  0  0  0
 12 13  1  0  0  0  0
 12 14  1  0  0  0  0
 12 15  1  0  0  0  0
 15 16  1  0  0  0  0
 15 17  1  0  0  0  0
 15 18  1  0  0  0  0
 18 19  1  0  0  0  0
 18 20  2  0  0  0  0
M  END
> <VConfSearch Rank>
29

> <Conf_Id>
84

> <Delta U+W>
0.942

> <U+W>
-50.803

> <U>
10.196

> <W>
-60.999

> <W(PB)>
-63.182

> <W(SA)>
2.182

> <Valence>
9.837

> <Coulomb>
0.032

> <VdW>
0.328

> <VdW6>
-7.642

> <VdW12>
7.969

> <Bond>
0.151

> <Angle>
2.748

> <Pdih>
6.937

> <Idih>
0.001

> <Tether>
0.000

$$$$
VeraChem MOL file


 20 19  0  0  0  0  0  0  0  0999 V2000     
   19.4163   15.8254   22.6988 C   0  0  0  0  0  0  0  0  0  0  0  0
   19.1049   15.0576   23.4050 H   0  0  0  0  0  0  0  0  0  0  0  0
   19.1266   15.6953   21.6573 H   0  0  0  0  0  0  0  0  0  0  0  0
   20.1239   16.8850   23.0990 C   0  0  0  0  0  0  0  0  0  0  0  0
   20.4030   16.9968   24.1465 H   0  0  0  0  0  0  0  0  0  0  0  0
   20.5918   17.9892   22.1773 C   0  0  0  0  0  0  0  0  0  0  0  0
   20.4968   17.6752   21.1288 H   0  0  0  0  0  0  0  0  0  0  0  0
   21.6577   18.1869   22.3527 H   0  0  0  0  0  0  0  0  0  0  0  0
   19.7813   19.2830   22.4011 C   0  0  0  0  0  0  0  0  0  0  0  0
   18.7156   19.0764   22.2301 H   0  0  0  0  0  0  0  0  0  0  0  0
   19.8791   19.5999   23.4485 H   0  0  0  0  0  0  0  0  0  0  0  0
   20.2497   20.4229   21.4686 C   0  0  0  0  0  0  0  0  0  0  0  0
   20.1399   20.1145   20.4195 H   0  0  0  0  0  0  0  0  0  0  0  0
   21.3197   20.6090   21.6331 H   0  0  0  0  0  0  0  0  0  0  0  0
   19.4682   21.7422   21.7004 C   0  0  0  0  0  0  0  0  0  0  0  0
   19.5458   22.0492   22.7504 H   0  0  0  0  0  0  0  0  0  0  0  0
   19.9163   22.5437   21.1014 H   0  0  0  0  0  0  0  0  0  0  0  0
   17.9914   21.6626   21.3239 C   0  0  0  0  0  0  0  0  0  0  0  0
   17.1718   21.5955   22.2187 O   0  5  0  0  0  0  0  0  0  0  0  0
   17.6997   21.6831   20.1442 O   0  0  0  0  0  0  0  0  0  0  0  0
  1  2  1  0  0  0  0
  1  3  1  0  0  0  0
  1  4  2  0  0  0  0
  4  5  1  0  0  0  0
  4  6  1  0  0  0  0
  6  7  1  0  0  0  0
  6  8  1  0  0  0  0
  6  9  1  0  0  0  0
  9 10  1  0  0  0  0
  9 11  1  0  0  0  0
  9 12  1  0  0  0  0
 12 13  1  0  0  0  0
 12 14  1  0  0  0  0
 12 15  1  0  0  0  0
 15 16  1  0  0  0  0
 15 17  1  0  0  0  0
 15 18  1  0  0  0  0
 18 19  1  0  0  0  0
 18 20  2  0  0  0  0
M  END
> <VConfSearch Rank>
30

> <Conf_Id>
81

> <Delta U+W>
-0.051

> <U+W>
-51.796

> <U>
9.412

> <W>
-61.209

> <W(PB)>
-63.452

> <W(SA)>
2.243

> <Valence>
9.329

> <Coulomb>
-0.323

> <VdW>
0.406

> <VdW6>
-6.640

> <VdW12>
7.046

> <Bond>
0.105

> <Angle>
2.401

> <Pdih>
6.823

> <Idih>
0.000

> <Tether>
0.000

$$$$
VeraChem MOL file


 20 19  0  0  0  0  0  0  0  0999 V2000     
   19.7449   16.0360   20.9394 C   0  0  0  0  0  0  0  0  0  0  0  0
   20.5837   15.9646   20.2491 H   0  0  0  0  0  0  0  0  0  0  0  0
   19.3185   15.1046   21.3081 H   0  0  0  0  0  0  0  0  0  0  0  0
   19.2568   17.2182   21.3238 C   0  0  0  0  0  0  0  0  0  0  0  0
   18.4150   17.2676   22.0138 H   0  0  0  0  0  0  0  0  0  0  0  0
   19.7935   18.5520   20.8499 C   0  0  0  0  0  0  0  0  0  0  0  0
   18.9634   19.2179   20.5809 H   0  0  0  0  0  0  0  0  0  0  0  0
   20.3744   18.4110   19.9285 H   0  0  0  0  0  0  0  0  0  0  0  0
   20.7008   19.2320   21.9030 C   0  0  0  0  0  0  0  0  0  0  0  0
   21.5692   18.5861   22.0915 H   0  0  0  0  0  0  0  0  0  0  0  0
   21.1009   20.1636   21.4797 H   0  0  0  0  0  0  0  0  0  0  0  0
   20.0062   19.5416   23.2542 C   0  0  0  0  0  0  0  0  0  0  0  0
   20.7422   19.9949   23.9324 H   0  0  0  0  0  0  0  0  0  0  0  0
   19.6941   18.6022   23.7294 H   0  0  0  0  0  0  0  0  0  0  0  0
   18.7806   20.4893   23.1445 C   0  0  0  0  0  0  0  0  0  0  0  0
   17.9930   20.0331   22.5341 H   0  0  0  0  0  0  0  0  0  0  0  0
   18.3506   20.6434   24.1410 H   0  0  0  0  0  0  0  0  0  0  0  0
   19.1069   21.8659   22.5726 C   0  0  0  0  0  0  0  0  0  0  0  0
   18.7199   22.1307   21.4514 O   0  5  0  0  0  0  0  0  0  0  0  0
   19.7256   22.6442   23.2718 O   0  0  0  0  0  0  0  0  0  0  0  0
  1  2  1  0  0  0  0
  1  3  1  0  0  0  0
  1  4  2  0  0  0  0
  4  5  1  0  0  0  0
  4  6  1  0  0  0  0
  6  7  1  0  0  0  0
  6  8  1  0  0  0  0
  6  9  1  0  0  0  0
  9 10  1  0  0  0  0
  9 11  1  0  0  0  0
  9 12  1  0  0  0  0
 12 13  1  0  0  0  0
 12 14  1  0  0  0  0
 12 15  1  0  0  0  0
 15 16  1  0  0  0  0
 15 17  1  0  0  0  0
 15 18  1  0  0  0  0
 18 19  1  0  0  0  0
 18 20  2  0  0  0  0
M  END
> <VConfSearch Rank>
31

> <Conf_Id>
86

> <Delta U+W>
1.248

> <U+W>
-50.498

> <U>
10.404

> <W>
-60.901

> <W(PB)>
-63.061

> <W(SA)>
2.159

> <Valence>
10.021

> <Coulomb>
0.094

> <VdW>
0.289

> <VdW6>
-8.409

> <VdW12>
8.698

> <Bond>
0.179

> <Angle>
2.939

> <Pdih>
6.902

> <Idih>
0.001

> <Tether>
0.000

$$$$
VeraChem MOL file


 20 19  0  0  0  0  0  0  0  0999 V2000     
   20.8270   18.1248   24.8190 C   0  0  0  0  0  0  0  0  0  0  0  0
   21.7170   17.6743   25.2550 H   0  0  0  0  0  0  0  0  0  0  0  0
   20.5030   19.0838   25.2199 H   0  0  0  0  0  0  0  0  0  0  0  0
   20.1632   17.5230   23.8285 C   0  0  0  0  0  0  0  0  0  0  0  0
   20.5055   16.5642   23.4400 H   0  0  0  0  0  0  0  0  0  0  0  0
   18.9205   18.0871   23.1730 C   0  0  0  0  0  0  0  0  0  0  0  0
   18.5317   18.9381   23.7487 H   0  0  0  0  0  0  0  0  0  0  0  0
   18.1326   17.3224   23.1806 H   0  0  0  0  0  0  0  0  0  0  0  0
   19.1749   18.5256   21.7132 C   0  0  0  0  0  0  0  0  0  0  0  0
   19.5675   17.6761   21.1377 H   0  0  0  0  0  0  0  0  0  0  0  0
   18.2143   18.7971   21.2543 H   0  0  0  0  0  0  0  0  0  0  0  0
   20.1492   19.7230   21.6107 C   0  0  0  0  0  0  0  0  0  0  0  0
   21.1122   19.4506   22.0630 H   0  0  0  0  0  0  0  0  0  0  0  0
   19.7581   20.5711   22.1896 H   0  0  0  0  0  0  0  0  0  0  0  0
   20.3941   20.1691   20.1458 C   0  0  0  0  0  0  0  0  0  0  0  0
   21.1799   20.9333   20.1222 H   0  0  0  0  0  0  0  0  0  0  0  0
   20.7553   19.3236   19.5478 H   0  0  0  0  0  0  0  0  0  0  0  0
   19.1636   20.7588   19.4626 C   0  0  0  0  0  0  0  0  0  0  0  0
   18.8349   21.8920   19.7541 O   0  5  0  0  0  0  0  0  0  0  0  0
   18.5732   20.0753   18.6494 O   0  0  0  0  0  0  0  0  0  0  0  0
  1  2  1  0  0  0  0
  1  3  1  0  0  0  0
  1  4  2  0  0  0  0
  4  5  1  0  0  0  0
  4  6  1  0  0  0  0
  6  7  1  0  0  0  0
  6  8  1  0  0  0  0
  6  9  1  0  0  0  0
  9 10  1  0  0  0  0
  9 11  1  0  0  0  0
  9 12  1  0  0  0  0
 12 13  1  0  0  0  0
 12 14  1  0  0  0  0
 12 15  1  0  0  0  0
 15 16  1  0  0  0  0
 15 17  1  0  0  0  0
 15 18  1  0  0  0  0
 18 19  1  0  0  0  0
 18 20  2  0  0  0  0
M  END
> <VConfSearch Rank>
32

> <Conf_Id>
28

> <Delta U+W>
0.446

> <U+W>
-51.299

> <U>
9.295

> <W>
-60.594

> <W(PB)>
-62.806

> <W(SA)>
2.212

> <Valence>
9.495

> <Coulomb>
-0.610

> <VdW>
0.409

> <VdW6>
-7.332

> <VdW12>
7.741

> <Bond>
0.126

> <Angle>
2.497

> <Pdih>
6.872

> <Idih>
0.000

> <Tether>
0.000

$$$$
VeraChem MOL file


 20 19  0  0  0  0  0  0  0  0999 V2000     
   17.8810   19.6278   19.7108 C   0  0  0  0  0  0  0  0  0  0  0  0
   17.9655   20.5899   20.2117 H   0  0  0  0  0  0  0  0  0  0  0  0
   17.3546   19.6146   18.7580 H   0  0  0  0  0  0  0  0  0  0  0  0
   18.3958   18.5040   20.2228 C   0  0  0  0  0  0  0  0  0  0  0  0
   18.2810   17.5703   19.6728 H   0  0  0  0  0  0  0  0  0  0  0  0
   19.1507   18.3650   21.5343 C   0  0  0  0  0  0  0  0  0  0  0  0
   20.1662   18.0122   21.3135 H   0  0  0  0  0  0  0  0  0  0  0  0
   18.6798   17.5702   22.1279 H   0  0  0  0  0  0  0  0  0  0  0  0
   19.2213   19.6557   22.3874 C   0  0  0  0  0  0  0  0  0  0  0  0
   19.7700   20.4323   21.8369 H   0  0  0  0  0  0  0  0  0  0  0  0
   18.2034   20.0389   22.5414 H   0  0  0  0  0  0  0  0  0  0  0  0
   19.8735   19.4432   23.7761 C   0  0  0  0  0  0  0  0  0  0  0  0
   19.2907   18.7023   24.3400 H   0  0  0  0  0  0  0  0  0  0  0  0
   19.8083   20.3816   24.3439 H   0  0  0  0  0  0  0  0  0  0  0  0
   21.3593   18.9929   23.7284 C   0  0  0  0  0  0  0  0  0  0  0  0
   21.7300   18.8578   24.7512 H   0  0  0  0  0  0  0  0  0  0  0  0
   21.4536   18.0195   23.2340 H   0  0  0  0  0  0  0  0  0  0  0  0
   22.2900   19.9851   23.0369 C   0  0  0  0  0  0  0  0  0  0  0  0
   22.5312   21.0337   23.6024 O   0  5  0  0  0  0  0  0  0  0  0  0
   22.7658   19.6756   21.9624 O   0  0  0  0  0  0  0  0  0  0  0  0
  1  2  1  0  0  0  0
  1  3  1  0  0  0  0
  1  4  2  0  0  0  0
  4  5  1  0  0  0  0
  4  6  1  0  0  0  0
  6  7  1  0  0  0  0
  6  8  1  0  0  0  0
  6  9  1  0  0  0  0
  9 10  1  0  0  0  0
  9 11  1  0  0  0  0
  9 12  1  0  0  0  0
 12 13  1  0  0  0  0
 12 14  1  0  0  0  0
 12 15  1  0  0  0  0
 15 16  1  0  0  0  0
 15 17  1  0  0  0  0
 15 18  1  0  0  0  0
 18 19  1  0  0  0  0
 18 20  2  0  0  0  0
M  END
> <VConfSearch Rank>
33

> <Conf_Id>
53

> <Delta U+W>
0.549

> <U+W>
-51.197

> <U>
10.870

> <W>
-62.067

> <W(PB)>
-64.228

> <W(SA)>
2.161

> <Valence>
8.803

> <Coulomb>
1.020

> <VdW>
1.048

> <VdW6>
-8.312

> <VdW12>
9.360

> <Bond>
0.212

> <Angle>
3.379

> <Pdih>
5.211

> <Idih>
0.001

> <Tether>
0.000

$$$$
VeraChem MOL file


 20 19  0  0  0  0  0  0  0  0999 V2000     
   22.3375   18.6518   21.1320 C   0  0  0  0  0  0  0  0  0  0  0  0
   22.2309   19.7342   21.1500 H   0  0  0  0  0  0  0  0  0  0  0  0
   23.0330   18.2358   20.4052 H   0  0  0  0  0  0  0  0  0  0  0  0
   21.6567   17.8553   21.9630 C   0  0  0  0  0  0  0  0  0  0  0  0
   21.8027   16.7770   21.9053 H   0  0  0  0  0  0  0  0  0  0  0  0
   20.6545   18.2970   23.0168 C   0  0  0  0  0  0  0  0  0  0  0  0
   21.1571   18.3197   23.9927 H   0  0  0  0  0  0  0  0  0  0  0  0
   19.8807   17.5254   23.1194 H   0  0  0  0  0  0  0  0  0  0  0  0
   19.9661   19.6641   22.7659 C   0  0  0  0  0  0  0  0  0  0  0  0
   19.3280   19.8976   23.6291 H   0  0  0  0  0  0  0  0  0  0  0  0
   20.7261   20.4559   22.7388 H   0  0  0  0  0  0  0  0  0  0  0  0
   19.1081   19.7326   21.4752 C   0  0  0  0  0  0  0  0  0  0  0  0
   19.7476   19.5733   20.5976 H   0  0  0  0  0  0  0  0  0  0  0  0
   18.7028   20.7489   21.3761 H   0  0  0  0  0  0  0  0  0  0  0  0
   17.9300   18.7214   21.4302 C   0  0  0  0  0  0  0  0  0  0  0  0
   17.3869   18.8395   20.4854 H   0  0  0  0  0  0  0  0  0  0  0  0
   18.3050   17.6917   21.4447 H   0  0  0  0  0  0  0  0  0  0  0  0
   16.9185   18.8906   22.5600 C   0  0  0  0  0  0  0  0  0  0  0  0
   16.8878   18.0499   23.4371 O   0  5  0  0  0  0  0  0  0  0  0  0
   16.1744   19.8511   22.5230 O   0  0  0  0  0  0  0  0  0  0  0  0
  1  2  1  0  0  0  0
  1  3  1  0  0  0  0
  1  4  2  0  0  0  0
  4  5  1  0  0  0  0
  4  6  1  0  0  0  0
  6  7  1  0  0  0  0
  6  8  1  0  0  0  0
  6  9  1  0  0  0  0
  9 10  1  0  0  0  0
  9 11  1  0  0  0  0
  9 12  1  0  0  0  0
 12 13  1  0  0  0  0
 12 14  1  0  0  0  0
 12 15  1  0  0  0  0
 15 16  1  0  0  0  0
 15 17  1  0  0  0  0
 15 18  1  0  0  0  0
 18 19  1  0  0  0  0
 18 20  2  0  0  0  0
M  END
> <VConfSearch Rank>
34

> <Conf_Id>
66

> <Delta U+W>
1.737

> <U+W>
-50.008

> <U>
11.091

> <W>
-61.099

> <W(PB)>
-63.213

> <W(SA)>
2.114

> <Valence>
9.664

> <Coulomb>
0.658

> <VdW>
0.769

> <VdW6>
-9.171

> <VdW12>
9.940

> <Bond>
0.244

> <Angle>
3.658

> <Pdih>
5.762

> <Idih>
0.001

> <Tether>
0.000

$$$$
VeraChem MOL file


 20 19  0  0  0  0  0  0  0  0999 V2000     
   21.0581   19.8274   19.8422 C   0  0  0  0  0  0  0  0  0  0  0  0
   21.6681   19.0293   20.2596 H   0  0  0  0  0  0  0  0  0  0  0  0
   21.0593   19.9345   18.7590 H   0  0  0  0  0  0  0  0  0  0  0  0
   20.3382   20.6514   20.6113 C   0  0  0  0  0  0  0  0  0  0  0  0
   19.7465   21.4359   20.1403 H   0  0  0  0  0  0  0  0  0  0  0  0
   20.2373   20.6162   22.1276 C   0  0  0  0  0  0  0  0  0  0  0  0
   19.2248   20.9183   22.4232 H   0  0  0  0  0  0  0  0  0  0  0  0
   20.8935   21.3939   22.5403 H   0  0  0  0  0  0  0  0  0  0  0  0
   20.5737   19.2587   22.7985 C   0  0  0  0  0  0  0  0  0  0  0  0
   21.6067   18.9775   22.5545 H   0  0  0  0  0  0  0  0  0  0  0  0
   20.5527   19.3904   23.8889 H   0  0  0  0  0  0  0  0  0  0  0  0
   19.6213   18.0955   22.4207 C   0  0  0  0  0  0  0  0  0  0  0  0
   19.9989   17.1714   22.8795 H   0  0  0  0  0  0  0  0  0  0  0  0
   19.6377   17.9284   21.3356 H   0  0  0  0  0  0  0  0  0  0  0  0
   18.1579   18.3177   22.8831 C   0  0  0  0  0  0  0  0  0  0  0  0
   18.1285   18.5362   23.9571 H   0  0  0  0  0  0  0  0  0  0  0  0
   17.7160   19.1749   22.3628 H   0  0  0  0  0  0  0  0  0  0  0  0
   17.2674   17.1077   22.6234 C   0  0  0  0  0  0  0  0  0  0  0  0
   16.6652   17.0525   21.5693 O   0  5  0  0  0  0  0  0  0  0  0  0
   17.2104   16.2444   23.4768 O   0  0  0  0  0  0  0  0  0  0  0  0
  1  2  1  0  0  0  0
  1  3  1  0  0  0  0
  1  4  2  0  0  0  0
  4  5  1  0  0  0  0
  4  6  1  0  0  0  0
  6  7  1  0  0  0  0
  6  8  1  0  0  0  0
  6  9  1  0  0  0  0
  9 10  1  0  0  0  0
  9 11  1  0  0  0  0
  9 12  1  0  0  0  0
 12 13  1  0  0  0  0
 12 14  1  0  0  0  0
 12 15  1  0  0  0  0
 15 16  1  0  0  0  0
 15 17  1  0  0  0  0
 15 18  1  0  0  0  0
 18 19  1  0  0  0  0
 18 20  2  0  0  0  0
M  END
> <VConfSearch Rank>
35

> <Conf_Id>
64

> <Delta U+W>
0.366

> <U+W>
-51.379

> <U>
10.000

> <W>
-61.379

> <W(PB)>
-63.541

> <W(SA)>
2.162

> <Valence>
9.398

> <Coulomb>
-0.504

> <VdW>
1.105

> <VdW6>
-7.975

> <VdW12>
9.080

> <Bond>
0.216

> <Angle>
3.417

> <Pdih>
5.765

> <Idih>
0.001

> <Tether>
0.000

$$$$
VeraChem MOL file


 20 19  0  0  0  0  0  0  0  0999 V2000     
   17.2321   18.3802   20.9346 C   0  0  0  0  0  0  0  0  0  0  0  0
   16.8578   19.3058   21.3690 H   0  0  0  0  0  0  0  0  0  0  0  0
   16.5955   17.5000   21.0056 H   0  0  0  0  0  0  0  0  0  0  0  0
   18.4270   18.3219   20.3406 C   0  0  0  0  0  0  0  0  0  0  0  0
   18.7841   17.3848   19.9143 H   0  0  0  0  0  0  0  0  0  0  0  0
   19.3664   19.5013   20.2045 C   0  0  0  0  0  0  0  0  0  0  0  0
   18.8545   20.4360   20.4709 H   0  0  0  0  0  0  0  0  0  0  0  0
   19.6664   19.6015   19.1529 H   0  0  0  0  0  0  0  0  0  0  0  0
   20.6353   19.3427   21.0720 C   0  0  0  0  0  0  0  0  0  0  0  0
   21.1468   18.4074   20.8059 H   0  0  0  0  0  0  0  0  0  0  0  0
   21.3308   20.1597   20.8359 H   0  0  0  0  0  0  0  0  0  0  0  0
   20.3280   19.3589   22.5869 C   0  0  0  0  0  0  0  0  0  0  0  0
   19.6538   18.5293   22.8407 H   0  0  0  0  0  0  0  0  0  0  0  0
   19.8014   20.2873   22.8477 H   0  0  0  0  0  0  0  0  0  0  0  0
   21.6169   19.2445   23.4376 C   0  0  0  0  0  0  0  0  0  0  0  0
   22.1476   18.3155   23.1972 H   0  0  0  0  0  0  0  0  0  0  0  0
   22.2962   20.0747   23.2099 H   0  0  0  0  0  0  0  0  0  0  0  0
   21.3397   19.2579   24.9366 C   0  0  0  0  0  0  0  0  0  0  0  0
   21.2950   20.3327   25.5020 O   0  5  0  0  0  0  0  0  0  0  0  0
   21.1618   18.1944   25.4970 O   0  0  0  0  0  0  0  0  0  0  0  0
  1  2  1  0  0  0  0
  1  3  1  0  0  0  0
  1  4  2  0  0  0  0
  4  5  1  0  0  0  0
  4  6  1  0  0  0  0
  6  7  1  0  0  0  0
  6  8  1  0  0  0  0
  6  9  1  0  0  0  0
  9 10  1  0  0  0  0
  9 11  1  0  0  0  0
  9 12  1  0  0  0  0
 12 13  1  0  0  0  0
 12 14  1  0  0  0  0
 12 15  1  0  0  0  0
 15 16  1  0  0  0  0
 15 17  1  0  0  0  0
 15 18  1  0  0  0  0
 18 19  1  0  0  0  0
 18 20  2  0  0  0  0
M  END
> <VConfSearch Rank>
36

> <Conf_Id>
42

> <Delta U+W>
-0.601

> <U+W>
-52.347

> <U>
8.428

> <W>
-60.774

> <W(PB)>
-62.982

> <W(SA)>
2.208

> <Valence>
9.231

> <Coulomb>
-1.304

> <VdW>
0.501

> <VdW6>
-6.515

> <VdW12>
7.016

> <Bond>
0.103

> <Angle>
2.328

> <Pdih>
6.799

> <Idih>
0.000

> <Tether>
0.000

$$$$
VeraChem MOL file


 20 19  0  0  0  0  0  0  0  0999 V2000     
   20.4970   20.0111   19.2695 C   0  0  0  0  0  0  0  0  0  0  0  0
   21.1705   20.7987   19.6032 H   0  0  0  0  0  0  0  0  0  0  0  0
   19.9251   20.1922   18.3611 H   0  0  0  0  0  0  0  0  0  0  0  0
   20.3715   18.8672   19.9476 C   0  0  0  0  0  0  0  0  0  0  0  0
   19.6895   18.0925   19.5981 H   0  0  0  0  0  0  0  0  0  0  0  0
   21.1308   18.5446   21.2170 C   0  0  0  0  0  0  0  0  0  0  0  0
   21.9278   19.2807   21.3887 H   0  0  0  0  0  0  0  0  0  0  0  0
   21.6272   17.5720   21.1009 H   0  0  0  0  0  0  0  0  0  0  0  0
   20.2059   18.4871   22.4536 C   0  0  0  0  0  0  0  0  0  0  0  0
   19.4135   17.7454   22.2825 H   0  0  0  0  0  0  0  0  0  0  0  0
   20.7865   18.1313   23.3156 H   0  0  0  0  0  0  0  0  0  0  0  0
   19.5792   19.8599   22.7944 C   0  0  0  0  0  0  0  0  0  0  0  0
   18.9608   20.2088   21.9559 H   0  0  0  0  0  0  0  0  0  0  0  0
   20.3796   20.6005   22.9251 H   0  0  0  0  0  0  0  0  0  0  0  0
   18.7160   19.8177   24.0820 C   0  0  0  0  0  0  0  0  0  0  0  0
   19.3112   19.4486   24.9259 H   0  0  0  0  0  0  0  0  0  0  0  0
   18.3943   20.8334   24.3407 H   0  0  0  0  0  0  0  0  0  0  0  0
   17.4611   18.9581   23.9587 C   0  0  0  0  0  0  0  0  0  0  0  0
   17.4638   17.8578   24.4748 O   0  5  0  0  0  0  0  0  0  0  0  0
   16.5067   19.4201   23.3647 O   0  0  0  0  0  0  0  0  0  0  0  0
  1  2  1  0  0  0  0
  1  3  1  0  0  0  0
  1  4  2  0  0  0  0
  4  5  1  0  0  0  0
  4  6  1  0  0  0  0
  6  7  1  0  0  0  0
  6  8  1  0  0  0  0
  6  9  1  0  0  0  0
  9 10  1  0  0  0  0
  9 11  1  0  0  0  0
  9 12  1  0  0  0  0
 12 13  1  0  0  0  0
 12 14  1  0  0  0  0
 12 15  1  0  0  0  0
 15 16  1  0  0  0  0
 15 17  1  0  0  0  0
 15 18  1  0  0  0  0
 18 19  1  0  0  0  0
 18 20  2  0  0  0  0
M  END
> <VConfSearch Rank>
37

> <Conf_Id>
68

> <Delta U+W>
0.492

> <U+W>
-51.253

> <U>
10.179

> <W>
-61.432

> <W(PB)>
-63.627

> <W(SA)>
2.195

> <Valence>
9.483

> <Coulomb>
0.361

> <VdW>
0.335

> <VdW6>
-7.385

> <VdW12>
7.720

> <Bond>
0.125

> <Angle>
2.487

> <Pdih>
6.870

> <Idih>
0.001

> <Tether>
0.000

$$$$
VeraChem MOL file


 20 19  0  0  0  0  0  0  0  0999 V2000     
   21.5341   17.4272   23.9359 C   0  0  0  0  0  0  0  0  0  0  0  0
   22.4730   17.9785   23.9410 H   0  0  0  0  0  0  0  0  0  0  0  0
   21.5896   16.3422   24.0065 H   0  0  0  0  0  0  0  0  0  0  0  0
   20.3581   18.0534   23.8431 C   0  0  0  0  0  0  0  0  0  0  0  0
   19.4301   17.4824   23.8425 H   0  0  0  0  0  0  0  0  0  0  0  0
   20.2034   19.5563   23.7477 C   0  0  0  0  0  0  0  0  0  0  0  0
   21.1215   20.0464   24.0992 H   0  0  0  0  0  0  0  0  0  0  0  0
   19.4001   19.8929   24.4166 H   0  0  0  0  0  0  0  0  0  0  0  0
   19.9124   20.0271   22.3049 C   0  0  0  0  0  0  0  0  0  0  0  0
   19.9410   21.1249   22.2778 H   0  0  0  0  0  0  0  0  0  0  0  0
   20.7140   19.6769   21.6398 H   0  0  0  0  0  0  0  0  0  0  0  0
   18.5405   19.5421   21.7791 C   0  0  0  0  0  0  0  0  0  0  0  0
   17.7532   19.8557   22.4777 H   0  0  0  0  0  0  0  0  0  0  0  0
   18.5165   18.4442   21.7468 H   0  0  0  0  0  0  0  0  0  0  0  0
   18.2132   20.0987   20.3692 C   0  0  0  0  0  0  0  0  0  0  0  0
   17.1884   19.8220   20.0950 H   0  0  0  0  0  0  0  0  0  0  0  0
   18.2554   21.1946   20.3747 H   0  0  0  0  0  0  0  0  0  0  0  0
   19.1360   19.5816   19.2693 C   0  0  0  0  0  0  0  0  0  0  0  0
   18.9489   18.4576   18.8467 O   0  5  0  0  0  0  0  0  0  0  0  0
   20.0041   20.3221   18.8506 O   0  0  0  0  0  0  0  0  0  0  0  0
  1  2  1  0  0  0  0
  1  3  1  0  0  0  0
  1  4  2  0  0  0  0
  4  5  1  0  0  0  0
  4  6  1  0  0  0  0
  6  7  1  0  0  0  0
  6  8  1  0  0  0  0
  6  9  1  0  0  0  0
  9 10  1  0  0  0  0
  9 11  1  0  0  0  0
  9 12  1  0  0  0  0
 12 13  1  0  0  0  0
 12 14  1  0  0  0  0
 12 15  1  0  0  0  0
 15 16  1  0  0  0  0
 15 17  1  0  0  0  0
 15 18  1  0  0  0  0
 18 19  1  0  0  0  0
 18 20  2  0  0  0  0
M  END
> <VConfSearch Rank>
38

> <Conf_Id>
87

> <Delta U+W>
0.339

> <U+W>
-51.407

> <U>
10.461

> <W>
-61.867

> <W(PB)>
-64.045

> <W(SA)>
2.178

> <Valence>
9.555

> <Coulomb>
0.483

> <VdW>
0.423

> <VdW6>
-7.223

> <VdW12>
7.646

> <Bond>
0.126

> <Angle>
2.492

> <Pdih>
6.936

> <Idih>
0.001

> <Tether>
0.000

$$$$
VeraChem MOL file


 20 19  0  0  0  0  0  0  0  0999 V2000     
   19.0001   21.5474   22.8552 C   0  0  0  0  0  0  0  0  0  0  0  0
   18.1411   21.3996   23.5076 H   0  0  0  0  0  0  0  0  0  0  0  0
   19.7209   22.3121   23.1393 H   0  0  0  0  0  0  0  0  0  0  0  0
   19.1667   20.8177   21.7491 C   0  0  0  0  0  0  0  0  0  0  0  0
   20.0282   20.9865   21.1041 H   0  0  0  0  0  0  0  0  0  0  0  0
   18.1996   19.7484   21.2876 C   0  0  0  0  0  0  0  0  0  0  0  0
   18.3454   19.5388   20.2196 H   0  0  0  0  0  0  0  0  0  0  0  0
   17.1779   20.1415   21.3772 H   0  0  0  0  0  0  0  0  0  0  0  0
   18.2930   18.4349   22.1032 C   0  0  0  0  0  0  0  0  0  0  0  0
   18.3352   18.6618   23.1773 H   0  0  0  0  0  0  0  0  0  0  0  0
   17.3598   17.8760   21.9500 H   0  0  0  0  0  0  0  0  0  0  0  0
   19.4679   17.5045   21.7093 C   0  0  0  0  0  0  0  0  0  0  0  0
   19.4305   17.2911   20.6322 H   0  0  0  0  0  0  0  0  0  0  0  0
   19.3294   16.5406   22.2184 H   0  0  0  0  0  0  0  0  0  0  0  0
   20.8687   18.0551   22.0805 C   0  0  0  0  0  0  0  0  0  0  0  0
   21.1064   18.9387   21.4797 H   0  0  0  0  0  0  0  0  0  0  0  0
   20.8902   18.3595   23.1336 H   0  0  0  0  0  0  0  0  0  0  0  0
   21.9808   17.0365   21.8581 C   0  0  0  0  0  0  0  0  0  0  0  0
   22.5057   16.9893   20.7631 O   0  5  0  0  0  0  0  0  0  0  0  0
   22.2790   16.3023   22.7795 O   0  0  0  0  0  0  0  0  0  0  0  0
  1  2  1  0  0  0  0
  1  3  1  0  0  0  0
  1  4  2  0  0  0  0
  4  5  1  0  0  0  0
  4  6  1  0  0  0  0
  6  7  1  0  0  0  0
  6  8  1  0  0  0  0
  6  9  1  0  0  0  0
  9 10  1  0  0  0  0
  9 11  1  0  0  0  0
  9 12  1  0  0  0  0
 12 13  1  0  0  0  0
 12 14  1  0  0  0  0
 12 15  1  0  0  0  0
 15 16  1  0  0  0  0
 15 17  1  0  0  0  0
 15 18  1  0  0  0  0
 18 19  1  0  0  0  0
 18 20  2  0  0  0  0
M  END
> <VConfSearch Rank>
39

> <Conf_Id>
51

> <Delta U+W>
1.709

> <U+W>
-50.036

> <U>
10.643

> <W>
-60.679

> <W(PB)>
-62.882

> <W(SA)>
2.203

> <Valence>
11.231

> <Coulomb>
-1.077

> <VdW>
0.489

> <VdW6>
-7.546

> <VdW12>
8.035

> <Bond>
0.159

> <Angle>
3.005

> <Pdih>
8.065

> <Idih>
0.002

> <Tether>
0.000

$$$$
VeraChem MOL file


 20 19  0  0  0  0  0  0  0  0999 V2000     
   21.3449   21.2721   22.5422 C   0  0  0  0  0  0  0  0  0  0  0  0
   20.7615   22.1421   22.2454 H   0  0  0  0  0  0  0  0  0  0  0  0
   22.4199   21.3073   22.3747 H   0  0  0  0  0  0  0  0  0  0  0  0
   20.7655   20.2001   23.0889 C   0  0  0  0  0  0  0  0  0  0  0  0
   21.3675   19.3426   23.3876 H   0  0  0  0  0  0  0  0  0  0  0  0
   19.2807   20.0879   23.3618 C   0  0  0  0  0  0  0  0  0  0  0  0
   18.9401   21.0250   23.8227 H   0  0  0  0  0  0  0  0  0  0  0  0
   19.0889   19.3033   24.1059 H   0  0  0  0  0  0  0  0  0  0  0  0
   18.4347   19.8308   22.0901 C   0  0  0  0  0  0  0  0  0  0  0  0
   17.3964   20.1113   22.3136 H   0  0  0  0  0  0  0  0  0  0  0  0
   18.7597   20.4993   21.2811 H   0  0  0  0  0  0  0  0  0  0  0  0
   18.4285   18.3619   21.5965 C   0  0  0  0  0  0  0  0  0  0  0  0
   17.6652   18.2655   20.8120 H   0  0  0  0  0  0  0  0  0  0  0  0
   18.1167   17.6951   22.4121 H   0  0  0  0  0  0  0  0  0  0  0  0
   19.7838   17.8777   21.0203 C   0  0  0  0  0  0  0  0  0  0  0  0
   20.1522   18.5867   20.2693 H   0  0  0  0  0  0  0  0  0  0  0  0
   20.5385   17.8172   21.8108 H   0  0  0  0  0  0  0  0  0  0  0  0
   19.6904   16.5027   20.3691 C   0  0  0  0  0  0  0  0  0  0  0  0
   19.8617   15.5234   21.0681 O   0  5  0  0  0  0  0  0  0  0  0  0
   19.4284   16.4457   19.1838 O   0  0  0  0  0  0  0  0  0  0  0  0
  1  2  1  0  0  0  0
  1  3  1  0  0  0  0
  1  4  2  0  0  0  0
  4  5  1  0  0  0  0
  4  6  1  0  0  0  0
  6  7  1  0  0  0  0
  6  8  1  0  0  0  0
  6  9  1  0  0  0  0
  9 10  1  0  0  0  0
  9 11  1  0  0  0  0
  9 12  1  0  0  0  0
 12 13  1  0  0  0  0
 12 14  1  0  0  0  0
 12 15  1  0  0  0  0
 15 16  1  0  0  0  0
 15 17  1  0  0  0  0
 15 18  1  0  0  0  0
 18 19  1  0  0  0  0
 18 20  2  0  0  0  0
M  END
> <VConfSearch Rank>
40

> <Conf_Id>
91

> <Delta U+W>
1.604

> <U+W>
-50.141

> <U>
10.644

> <W>
-60.786

> <W(PB)>
-62.965

> <W(SA)>
2.179

> <Valence>
11.230

> <Coulomb>
-1.075

> <VdW>
0.489

> <VdW6>
-7.547

> <VdW12>
8.036

> <Bond>
0.159

> <Angle>
3.006

> <Pdih>
8.064

> <Idih>
0.002

> <Tether>
0.000

$$$$
VeraChem MOL file


 20 19  0  0  0  0  0  0  0  0999 V2000     
   22.6780   20.2985   23.8093 C   0  0  0  0  0  0  0  0  0  0  0  0
   22.4756   19.5338   24.5576 H   0  0  0  0  0  0  0  0  0  0  0  0
   23.2707   21.1577   24.1188 H   0  0  0  0  0  0  0  0  0  0  0  0
   22.2169   20.1919   22.5605 C   0  0  0  0  0  0  0  0  0  0  0  0
   22.4301   20.9690   21.8268 H   0  0  0  0  0  0  0  0  0  0  0  0
   21.3895   19.0294   22.0587 C   0  0  0  0  0  0  0  0  0  0  0  0
   21.4446   18.1902   22.7654 H   0  0  0  0  0  0  0  0  0  0  0  0
   21.8020   18.6685   21.1070 H   0  0  0  0  0  0  0  0  0  0  0  0
   19.9150   19.4391   21.8615 C   0  0  0  0  0  0  0  0  0  0  0  0
   19.5085   19.8033   22.8152 H   0  0  0  0  0  0  0  0  0  0  0  0
   19.8600   20.2755   21.1511 H   0  0  0  0  0  0  0  0  0  0  0  0
   19.0558   18.2638   21.3462 C   0  0  0  0  0  0  0  0  0  0  0  0
   19.1100   17.4271   22.0565 H   0  0  0  0  0  0  0  0  0  0  0  0
   19.4626   17.8984   20.3931 H   0  0  0  0  0  0  0  0  0  0  0  0
   17.5728   18.6761   21.1488 C   0  0  0  0  0  0  0  0  0  0  0  0
   17.1585   19.0358   22.0979 H   0  0  0  0  0  0  0  0  0  0  0  0
   17.5107   19.5067   20.4360 H   0  0  0  0  0  0  0  0  0  0  0  0
   16.6499   17.5680   20.6393 C   0  0  0  0  0  0  0  0  0  0  0  0
   15.4810   17.8536   20.4710 O   0  5  0  0  0  0  0  0  0  0  0  0
   17.1010   16.4598   20.4224 O   0  0  0  0  0  0  0  0  0  0  0  0
  1  2  1  0  0  0  0
  1  3  1  0  0  0  0
  1  4  2  0  0  0  0
  4  5  1  0  0  0  0
  4  6  1  0  0  0  0
  6  7  1  0  0  0  0
  6  8  1  0  0  0  0
  6  9  1  0  0  0  0
  9 10  1  0  0  0  0
  9 11  1  0  0  0  0
  9 12  1  0  0  0  0
 12 13  1  0  0  0  0
 12 14  1  0  0  0  0
 12 15  1  0  0  0  0
 15 16  1  0  0  0  0
 15 17  1  0  0  0  0
 15 18  1  0  0  0  0
 18 19  1  0  0  0  0
 18 20  2  0  0  0  0
M  END
> <VConfSearch Rank>
41

> <Conf_Id>
33

> <Delta U+W>
0.000

> <U+W>
-51.745

> <U>
7.593

> <W>
-59.338

> <W(PB)>
-61.574

> <W(SA)>
2.236

> <Valence>
9.570

> <Coulomb>
-3.091

> <VdW>
1.114

> <VdW6>
-6.064

> <VdW12>
7.178

> <Bond>
0.117

> <Angle>
2.692

> <Pdih>
6.761

> <Idih>
0.000

> <Tether>
0.000

$$$$
VeraChem MOL file


 20 19  0  0  0  0  0  0  0  0999 V2000     
   22.8540   18.3717   20.2548 C   0  0  0  0  0  0  0  0  0  0  0  0
   23.3087   19.1795   20.8261 H   0  0  0  0  0  0  0  0  0  0  0  0
   23.4370   17.9439   19.4409 H   0  0  0  0  0  0  0  0  0  0  0  0
   21.6285   17.9219   20.5366 C   0  0  0  0  0  0  0  0  0  0  0  0
   21.1912   17.1129   19.9519 H   0  0  0  0  0  0  0  0  0  0  0  0
   20.7611   18.4653   21.6502 C   0  0  0  0  0  0  0  0  0  0  0  0
   21.3623   19.0791   22.3346 H   0  0  0  0  0  0  0  0  0  0  0  0
   20.3654   17.6282   22.2391 H   0  0  0  0  0  0  0  0  0  0  0  0
   19.5990   19.3126   21.0852 C   0  0  0  0  0  0  0  0  0  0  0  0
   20.0150   20.0917   20.4315 H   0  0  0  0  0  0  0  0  0  0  0  0
   18.9585   18.6850   20.4505 H   0  0  0  0  0  0  0  0  0  0  0  0
   18.7419   19.9925   22.1794 C   0  0  0  0  0  0  0  0  0  0  0  0
   18.0163   20.6600   21.6942 H   0  0  0  0  0  0  0  0  0  0  0  0
   19.3791   20.6311   22.8068 H   0  0  0  0  0  0  0  0  0  0  0  0
   17.9725   18.9880   23.0761 C   0  0  0  0  0  0  0  0  0  0  0  0
   17.3652   18.3166   22.4575 H   0  0  0  0  0  0  0  0  0  0  0  0
   18.6708   18.3642   23.6452 H   0  0  0  0  0  0  0  0  0  0  0  0
   17.0483   19.6771   24.0735 C   0  0  0  0  0  0  0  0  0  0  0  0
   17.5013   19.9831   25.1588 O   0  5  0  0  0  0  0  0  0  0  0  0
   15.9052   19.9076   23.7318 O   0  0  0  0  0  0  0  0  0  0  0  0
  1  2  1  0  0  0  0
  1  3  1  0  0  0  0
  1  4  2  0  0  0  0
  4  5  1  0  0  0  0
  4  6  1  0  0  0  0
  6  7  1  0  0  0  0
  6  8  1  0  0  0  0
  6  9  1  0  0  0  0
  9 10  1  0  0  0  0
  9 11  1  0  0  0  0
  9 12  1  0  0  0  0
 12 13  1  0  0  0  0
 12 14  1  0  0  0  0
 12 15  1  0  0  0  0
 15 16  1  0  0  0  0
 15 17  1  0  0  0  0
 15 18  1  0  0  0  0
 18 19  1  0  0  0  0
 18 20  2  0  0  0  0
M  END
> <VConfSearch Rank>
42

> <Conf_Id>
37

> <Delta U+W>
-0.384

> <U+W>
-52.130

> <U>
7.491

> <W>
-59.621

> <W(PB)>
-61.853

> <W(SA)>
2.232

> <Valence>
9.604

> <Coulomb>
-2.799

> <VdW>
0.686

> <VdW6>
-6.435

> <VdW12>
7.121

> <Bond>
0.124

> <Angle>
2.493

> <Pdih>
6.986

> <Idih>
0.001

> <Tether>
0.000

$$$$
VeraChem MOL file


 20 19  0  0  0  0  0  0  0  0999 V2000     
   19.9984   16.3112   23.8669 C   0  0  0  0  0  0  0  0  0  0  0  0
   20.0844   15.4376   24.5107 H   0  0  0  0  0  0  0  0  0  0  0  0
   19.0607   16.4342   23.3291 H   0  0  0  0  0  0  0  0  0  0  0  0
   21.0094   17.1803   23.7560 C   0  0  0  0  0  0  0  0  0  0  0  0
   21.9248   17.0032   24.3202 H   0  0  0  0  0  0  0  0  0  0  0  0
   21.0374   18.4374   22.9027 C   0  0  0  0  0  0  0  0  0  0  0  0
   21.8895   18.3764   22.2126 H   0  0  0  0  0  0  0  0  0  0  0  0
   21.2428   19.2995   23.5512 H   0  0  0  0  0  0  0  0  0  0  0  0
   19.7476   18.7076   22.0932 C   0  0  0  0  0  0  0  0  0  0  0  0
   19.5477   17.8573   21.4267 H   0  0  0  0  0  0  0  0  0  0  0  0
   18.8939   18.7904   22.7799 H   0  0  0  0  0  0  0  0  0  0  0  0
   19.8580   20.0001   21.2553 C   0  0  0  0  0  0  0  0  0  0  0  0
   20.7105   19.9236   20.5661 H   0  0  0  0  0  0  0  0  0  0  0  0
   20.0581   20.8548   21.9165 H   0  0  0  0  0  0  0  0  0  0  0  0
   18.5676   20.2729   20.4437 C   0  0  0  0  0  0  0  0  0  0  0  0
   18.3607   19.4343   19.7681 H   0  0  0  0  0  0  0  0  0  0  0  0
   17.7082   20.3654   21.1186 H   0  0  0  0  0  0  0  0  0  0  0  0
   18.6521   21.5448   19.6076 C   0  0  0  0  0  0  0  0  0  0  0  0
   19.0893   21.4600   18.4770 O   0  5  0  0  0  0  0  0  0  0  0  0
   18.2970   22.5900   20.1158 O   0  0  0  0  0  0  0  0  0  0  0  0
  1  2  1  0  0  0  0
  1  3  1  0  0  0  0
  1  4  2  0  0  0  0
  4  5  1  0  0  0  0
  4  6  1  0  0  0  0
  6  7  1  0  0  0  0
  6  8  1  0  0  0  0
  6  9  1  0  0  0  0
  9 10  1  0  0  0  0
  9 11  1  0  0  0  0
  9 12  1  0  0  0  0
 12 13  1  0  0  0  0
 12 14  1  0  0  0  0
 12 15  1  0  0  0  0
 15 16  1  0  0  0  0
 15 17  1  0  0  0  0
 15 18  1  0  0  0  0
 18 19  1  0  0  0  0
 18 20  2  0  0  0  0
M  END
> <VConfSearch Rank>
43

> <Conf_Id>
44

> <Delta U+W>
-1.440

> <U+W>
-53.185

> <U>
6.572

> <W>
-59.757

> <W(PB)>
-62.007

> <W(SA)>
2.249

> <Valence>
7.989

> <Coulomb>
-2.697

> <VdW>
1.281

> <VdW6>
-6.467

> <VdW12>
7.748

> <Bond>
0.136

> <Angle>
2.854

> <Pdih>
4.997

> <Idih>
0.001

> <Tether>
0.000

$$$$
VeraChem MOL file


 20 19  0  0  0  0  0  0  0  0999 V2000     
   19.5625   20.3144   25.1454 C   0  0  0  0  0  0  0  0  0  0  0  0
   18.8879   21.0048   24.6414 H   0  0  0  0  0  0  0  0  0  0  0  0
   19.8883   20.5764   26.1506 H   0  0  0  0  0  0  0  0  0  0  0  0
   19.9787   19.1905   24.5560 C   0  0  0  0  0  0  0  0  0  0  0  0
   20.6545   18.5132   25.0778 H   0  0  0  0  0  0  0  0  0  0  0  0
   19.5684   18.7604   23.1651 C   0  0  0  0  0  0  0  0  0  0  0  0
   18.6985   19.3432   22.8362 H   0  0  0  0  0  0  0  0  0  0  0  0
   19.2565   17.7077   23.1840 H   0  0  0  0  0  0  0  0  0  0  0  0
   20.7315   18.9386   22.1634 C   0  0  0  0  0  0  0  0  0  0  0  0
   21.0066   20.0007   22.1046 H   0  0  0  0  0  0  0  0  0  0  0  0
   21.6153   18.4105   22.5472 H   0  0  0  0  0  0  0  0  0  0  0  0
   20.4142   18.4031   20.7468 C   0  0  0  0  0  0  0  0  0  0  0  0
   20.1483   17.3384   20.8029 H   0  0  0  0  0  0  0  0  0  0  0  0
   21.3253   18.4632   20.1354 H   0  0  0  0  0  0  0  0  0  0  0  0
   19.2815   19.1827   20.0296 C   0  0  0  0  0  0  0  0  0  0  0  0
   18.3330   19.0678   20.5661 H   0  0  0  0  0  0  0  0  0  0  0  0
   19.5152   20.2538   20.0064 H   0  0  0  0  0  0  0  0  0  0  0  0
   19.0617   18.7156   18.5952 C   0  0  0  0  0  0  0  0  0  0  0  0
   19.6937   19.2599   17.7115 O   0  5  0  0  0  0  0  0  0  0  0  0
   18.2792   17.8063   18.4014 O   0  0  0  0  0  0  0  0  0  0  0  0
  1  2  1  0  0  0  0
  1  3  1  0  0  0  0
  1  4  2  0  0  0  0
  4  5  1  0  0  0  0
  4  6  1  0  0  0  0
  6  7  1  0  0  0  0
  6  8  1  0  0  0  0
  6  9  1  0  0  0  0
  9 10  1  0  0  0  0
  9 11  1  0  0  0  0
  9 12  1  0  0  0  0
 12 13  1  0  0  0  0
 12 14  1  0  0  0  0
 12 15  1  0  0  0  0
 15 16  1  0  0  0  0
 15 17  1  0  0  0  0
 15 18  1  0  0  0  0
 18 19  1  0  0  0  0
 18 20  2  0  0  0  0
M  END
> <VConfSearch Rank>
44

> <Conf_Id>
38

> <Delta U+W>
-0.381

> <U+W>
-52.126

> <U>
7.601

> <W>
-59.727

> <W(PB)>
-61.964

> <W(SA)>
2.236

> <Valence>
9.602

> <Coulomb>
-2.686

> <VdW>
0.685

> <VdW6>
-6.453

> <VdW12>
7.139

> <Bond>
0.125

> <Angle>
2.485

> <Pdih>
6.991

> <Idih>
0.001

> <Tether>
0.000

$$$$
VeraChem MOL file


 20 19  0  0  0  0  0  0  0  0999 V2000     
   22.0707   20.5896   19.7324 C   0  0  0  0  0  0  0  0  0  0  0  0
   22.0081   19.7257   19.0727 H   0  0  0  0  0  0  0  0  0  0  0  0
   22.4315   21.5227   19.3030 H   0  0  0  0  0  0  0  0  0  0  0  0
   21.7174   20.5128   21.0181 C   0  0  0  0  0  0  0  0  0  0  0  0
   21.7867   21.3898   21.6613 H   0  0  0  0  0  0  0  0  0  0  0  0
   21.2088   19.2535   21.6838 C   0  0  0  0  0  0  0  0  0  0  0  0
   21.7493   19.0921   22.6261 H   0  0  0  0  0  0  0  0  0  0  0  0
   21.4112   18.3797   21.0495 H   0  0  0  0  0  0  0  0  0  0  0  0
   19.6945   19.3449   21.9656 C   0  0  0  0  0  0  0  0  0  0  0  0
   19.4950   20.2181   22.6020 H   0  0  0  0  0  0  0  0  0  0  0  0
   19.1577   19.5110   21.0214 H   0  0  0  0  0  0  0  0  0  0  0  0
   19.1588   18.0663   22.6488 C   0  0  0  0  0  0  0  0  0  0  0  0
   19.6864   17.9030   23.5989 H   0  0  0  0  0  0  0  0  0  0  0  0
   19.3765   17.1975   22.0129 H   0  0  0  0  0  0  0  0  0  0  0  0
   17.6319   18.1265   22.9131 C   0  0  0  0  0  0  0  0  0  0  0  0
   17.0926   18.3172   21.9773 H   0  0  0  0  0  0  0  0  0  0  0  0
   17.2860   17.1556   23.2867 H   0  0  0  0  0  0  0  0  0  0  0  0
   17.2208   19.1818   23.9360 C   0  0  0  0  0  0  0  0  0  0  0  0
   16.6972   20.2016   23.5327 O   0  5  0  0  0  0  0  0  0  0  0  0
   17.4257   18.9499   25.1113 O   0  0  0  0  0  0  0  0  0  0  0  0
  1  2  1  0  0  0  0
  1  3  1  0  0  0  0
  1  4  2  0  0  0  0
  4  5  1  0  0  0  0
  4  6  1  0  0  0  0
  6  7  1  0  0  0  0
  6  8  1  0  0  0  0
  6  9  1  0  0  0  0
  9 10  1  0  0  0  0
  9 11  1  0  0  0  0
  9 12  1  0  0  0  0
 12 13  1  0  0  0  0
 12 14  1  0  0  0  0
 12 15  1  0  0  0  0
 15 16  1  0  0  0  0
 15 17  1  0  0  0  0
 15 18  1  0  0  0  0
 18 19  1  0  0  0  0
 18 20  2  0  0  0  0
M  END
> <VConfSearch Rank>
45

> <Conf_Id>
58

> <Delta U+W>
0.019

> <U+W>
-51.727

> <U>
8.963

> <W>
-60.690

> <W(PB)>
-62.934

> <W(SA)>
2.244

> <Valence>
9.327

> <Coulomb>
-0.780

> <VdW>
0.417

> <VdW6>
-6.635

> <VdW12>
7.052

> <Bond>
0.105

> <Angle>
2.399

> <Pdih>
6.822

> <Idih>
0.000

> <Tether>
0.000

$$$$
VeraChem MOL file


 20 19  0  0  0  0  0  0  0  0999 V2000     
   22.1620   16.8561   20.9421 C   0  0  0  0  0  0  0  0  0  0  0  0
   21.5095   16.0111   21.1562 H   0  0  0  0  0  0  0  0  0  0  0  0
   23.2317   16.6616   20.8868 H   0  0  0  0  0  0  0  0  0  0  0  0
   21.6736   18.0852   20.7566 C   0  0  0  0  0  0  0  0  0  0  0  0
   22.3441   18.9177   20.5443 H   0  0  0  0  0  0  0  0  0  0  0  0
   20.2024   18.4311   20.8175 C   0  0  0  0  0  0  0  0  0  0  0  0
   19.5949   17.5167   20.7780 H   0  0  0  0  0  0  0  0  0  0  0  0
   19.9293   19.0304   19.9387 H   0  0  0  0  0  0  0  0  0  0  0  0
   19.8674   19.2162   22.1030 C   0  0  0  0  0  0  0  0  0  0  0  0
   20.1464   18.6155   22.9797 H   0  0  0  0  0  0  0  0  0  0  0  0
   20.4746   20.1313   22.1389 H   0  0  0  0  0  0  0  0  0  0  0  0
   18.3675   19.5803   22.1796 C   0  0  0  0  0  0  0  0  0  0  0  0
   17.7685   18.6611   22.1272 H   0  0  0  0  0  0  0  0  0  0  0  0
   18.0875   20.1903   21.3094 H   0  0  0  0  0  0  0  0  0  0  0  0
   18.0049   20.3438   23.4798 C   0  0  0  0  0  0  0  0  0  0  0  0
   16.9176   20.4717   23.5386 H   0  0  0  0  0  0  0  0  0  0  0  0
   18.3039   19.7593   24.3583 H   0  0  0  0  0  0  0  0  0  0  0  0
   18.6335   21.7307   23.5803 C   0  0  0  0  0  0  0  0  0  0  0  0
   18.1567   22.6251   22.9097 O   0  5  0  0  0  0  0  0  0  0  0  0
   19.5750   21.8831   24.3335 O   0  0  0  0  0  0  0  0  0  0  0  0
  1  2  1  0  0  0  0
  1  3  1  0  0  0  0
  1  4  2  0  0  0  0
  4  5  1  0  0  0  0
  4  6  1  0  0  0  0
  6  7  1  0  0  0  0
  6  8  1  0  0  0  0
  6  9  1  0  0  0  0
  9 10  1  0  0  0  0
  9 11  1  0  0  0  0
  9 12  1  0  0  0  0
 12 13  1  0  0  0  0
 12 14  1  0  0  0  0
 12 15  1  0  0  0  0
 15 16  1  0  0  0  0
 15 17  1  0  0  0  0
 15 18  1  0  0  0  0
 18 19  1  0  0  0  0
 18 20  2  0  0  0  0
M  END
> <VConfSearch Rank>
46

> <Conf_Id>
54

> <Delta U+W>
-0.048

> <U+W>
-51.793

> <U>
8.964

> <W>
-60.756

> <W(PB)>
-63.007

> <W(SA)>
2.251

> <Valence>
9.327

> <Coulomb>
-0.780

> <VdW>
0.417

> <VdW6>
-6.635

> <VdW12>
7.052

> <Bond>
0.105

> <Angle>
2.399

> <Pdih>
6.822

> <Idih>
0.000

> <Tether>
0.000

$$$$
VeraChem MOL file


 20 19  0  0  0  0  0  0  0  0999 V2000     
   18.5473   19.8792   25.0455 C   0  0  0  0  0  0  0  0  0  0  0  0
   18.6594   19.4368   26.0338 H   0  0  0  0  0  0  0  0  0  0  0  0
   18.5038   20.9655   24.9845 H   0  0  0  0  0  0  0  0  0  0  0  0
   18.4695   19.1159   23.9524 C   0  0  0  0  0  0  0  0  0  0  0  0
   18.5116   18.0303   24.0362 H   0  0  0  0  0  0  0  0  0  0  0  0
   18.3064   19.6595   22.5489 C   0  0  0  0  0  0  0  0  0  0  0  0
   17.9152   20.6850   22.5927 H   0  0  0  0  0  0  0  0  0  0  0  0
   17.5587   19.0688   22.0030 H   0  0  0  0  0  0  0  0  0  0  0  0
   19.6370   19.6709   21.7630 C   0  0  0  0  0  0  0  0  0  0  0  0
   19.4793   20.2000   20.8132 H   0  0  0  0  0  0  0  0  0  0  0  0
   20.3864   20.2481   22.3218 H   0  0  0  0  0  0  0  0  0  0  0  0
   20.1778   18.2501   21.4748 C   0  0  0  0  0  0  0  0  0  0  0  0
   19.4227   17.6678   20.9287 H   0  0  0  0  0  0  0  0  0  0  0  0
   20.3563   17.7264   22.4231 H   0  0  0  0  0  0  0  0  0  0  0  0
   21.4985   18.2692   20.6620 C   0  0  0  0  0  0  0  0  0  0  0  0
   22.2524   18.8754   21.1787 H   0  0  0  0  0  0  0  0  0  0  0  0
   21.9014   17.2519   20.5939 H   0  0  0  0  0  0  0  0  0  0  0  0
   21.3434   18.7942   19.2375 C   0  0  0  0  0  0  0  0  0  0  0  0
   21.7423   19.9153   18.9901 O   0  5  0  0  0  0  0  0  0  0  0  0
   20.8367   18.0626   18.4098 O   0  0  0  0  0  0  0  0  0  0  0  0
  1  2  1  0  0  0  0
  1  3  1  0  0  0  0
  1  4  2  0  0  0  0
  4  5  1  0  0  0  0
  4  6  1  0  0  0  0
  6  7  1  0  0  0  0
  6  8  1  0  0  0  0
  6  9  1  0  0  0  0
  9 10  1  0  0  0  0
  9 11  1  0  0  0  0
  9 12  1  0  0  0  0
 12 13  1  0  0  0  0
 12 14  1  0  0  0  0
 12 15  1  0  0  0  0
 15 16  1  0  0  0  0
 15 17  1  0  0  0  0
 15 18  1  0  0  0  0
 18 19  1  0  0  0  0
 18 20  2  0  0  0  0
M  END
> <VConfSearch Rank>
47

> <Conf_Id>
27

> <Delta U+W>
0.478

> <U+W>
-51.267

> <U>
9.192

> <W>
-60.459

> <W(PB)>
-62.649

> <W(SA)>
2.190

> <Valence>
9.572

> <Coulomb>
-0.884

> <VdW>
0.504

> <VdW6>
-7.168

> <VdW12>
7.672

> <Bond>
0.127

> <Angle>
2.504

> <Pdih>
6.941

> <Idih>
0.001

> <Tether>
0.000

$$$$
VeraChem MOL file


 20 19  0  0  0  0  0  0  0  0999 V2000     
   19.8734   15.5166   22.5274 C   0  0  0  0  0  0  0  0  0  0  0  0
   19.4455   15.3499   23.5146 H   0  0  0  0  0  0  0  0  0  0  0  0
   20.6450   14.8255   22.1924 H   0  0  0  0  0  0  0  0  0  0  0  0
   19.4726   16.5303   21.7557 C   0  0  0  0  0  0  0  0  0  0  0  0
   19.9120   16.6772   20.7695 H   0  0  0  0  0  0  0  0  0  0  0  0
   18.4025   17.5252   22.1517 C   0  0  0  0  0  0  0  0  0  0  0  0
   17.7881   17.1061   22.9600 H   0  0  0  0  0  0  0  0  0  0  0  0
   17.7222   17.6989   21.3072 H   0  0  0  0  0  0  0  0  0  0  0  0
   18.9968   18.8699   22.6278 C   0  0  0  0  0  0  0  0  0  0  0  0
   18.1847   19.4952   23.0232 H   0  0  0  0  0  0  0  0  0  0  0  0
   19.6883   18.6880   23.4621 H   0  0  0  0  0  0  0  0  0  0  0  0
   19.7256   19.6375   21.5011 C   0  0  0  0  0  0  0  0  0  0  0  0
   19.0402   19.7958   20.6570 H   0  0  0  0  0  0  0  0  0  0  0  0
   20.5658   19.0396   21.1225 H   0  0  0  0  0  0  0  0  0  0  0  0
   20.2597   21.0065   21.9899 C   0  0  0  0  0  0  0  0  0  0  0  0
   19.4332   21.6266   22.3573 H   0  0  0  0  0  0  0  0  0  0  0  0
   20.9554   20.8646   22.8256 H   0  0  0  0  0  0  0  0  0  0  0  0
   20.9845   21.7834   20.8967 C   0  0  0  0  0  0  0  0  0  0  0  0
   22.1810   21.6137   20.7692 O   0  5  0  0  0  0  0  0  0  0  0  0
   20.3303   22.5245   20.1900 O   0  0  0  0  0  0  0  0  0  0  0  0
  1  2  1  0  0  0  0
  1  3  1  0  0  0  0
  1  4  2  0  0  0  0
  4  5  1  0  0  0  0
  4  6  1  0  0  0  0
  6  7  1  0  0  0  0
  6  8  1  0  0  0  0
  6  9  1  0  0  0  0
  9 10  1  0  0  0  0
  9 11  1  0  0  0  0
  9 12  1  0  0  0  0
 12 13  1  0  0  0  0
 12 14  1  0  0  0  0
 12 15  1  0  0  0  0
 15 16  1  0  0  0  0
 15 17  1  0  0  0  0
 15 18  1  0  0  0  0
 18 19  1  0  0  0  0
 18 20  2  0  0  0  0
M  END
> <VConfSearch Rank>
48

> <Conf_Id>
41

> <Delta U+W>
-0.634

> <U+W>
-52.379

> <U>
7.828

> <W>
-60.207

> <W(PB)>
-62.449

> <W(SA)>
2.242

> <Valence>
9.300

> <Coulomb>
-2.080

> <VdW>
0.608

> <VdW6>
-6.341

> <VdW12>
6.949

> <Bond>
0.103

> <Angle>
2.334

> <Pdih>
6.862

> <Idih>
0.001

> <Tether>
0.000

$$$$
VeraChem MOL file


 20 19  0  0  0  0  0  0  0  0999 V2000     
   19.9155   22.1275   20.8940 C   0  0  0  0  0  0  0  0  0  0  0  0
   20.0618   22.7759   20.0317 H   0  0  0  0  0  0  0  0  0  0  0  0
   19.3335   22.5227   21.7250 H   0  0  0  0  0  0  0  0  0  0  0  0
   20.4298   20.8954   20.9261 C   0  0  0  0  0  0  0  0  0  0  0  0
   21.0090   20.5181   20.0835 H   0  0  0  0  0  0  0  0  0  0  0  0
   20.2697   19.9395   22.0873 C   0  0  0  0  0  0  0  0  0  0  0  0
   19.9083   20.4764   22.9747 H   0  0  0  0  0  0  0  0  0  0  0  0
   21.2507   19.5200   22.3453 H   0  0  0  0  0  0  0  0  0  0  0  0
   19.2863   18.8006   21.7367 C   0  0  0  0  0  0  0  0  0  0  0  0
   18.3435   19.2419   21.3853 H   0  0  0  0  0  0  0  0  0  0  0  0
   19.6854   18.2164   20.8961 H   0  0  0  0  0  0  0  0  0  0  0  0
   18.9768   17.8616   22.9287 C   0  0  0  0  0  0  0  0  0  0  0  0
   18.2158   17.1330   22.6165 H   0  0  0  0  0  0  0  0  0  0  0  0
   18.5269   18.4463   23.7424 H   0  0  0  0  0  0  0  0  0  0  0  0
   20.2092   17.0912   23.4763 C   0  0  0  0  0  0  0  0  0  0  0  0
   20.9596   17.7881   23.8665 H   0  0  0  0  0  0  0  0  0  0  0  0
   19.8995   16.4646   24.3208 H   0  0  0  0  0  0  0  0  0  0  0  0
   20.8770   16.1764   22.4535 C   0  0  0  0  0  0  0  0  0  0  0  0
   20.2972   15.1576   22.1323 O   0  5  0  0  0  0  0  0  0  0  0  0
   21.9658   16.4964   22.0187 O   0  0  0  0  0  0  0  0  0  0  0  0
  1  2  1  0  0  0  0
  1  3  1  0  0  0  0
  1  4  2  0  0  0  0
  4  5  1  0  0  0  0
  4  6  1  0  0  0  0
  6  7  1  0  0  0  0
  6  8  1  0  0  0  0
  6  9  1  0  0  0  0
  9 10  1  0  0  0  0
  9 11  1  0  0  0  0
  9 12  1  0  0  0  0
 12 13  1  0  0  0  0
 12 14  1  0  0  0  0
 12 15  1  0  0  0  0
 15 16  1  0  0  0  0
 15 17  1  0  0  0  0
 15 18  1  0  0  0  0
 18 19  1  0  0  0  0
 18 20  2  0  0  0  0
M  END
> <VConfSearch Rank>
49

> <Conf_Id>
84

> <Delta U+W>
0.942

> <U+W>
-50.803

> <U>
10.196

> <W>
-60.999

> <W(PB)>
-63.182

> <W(SA)>
2.182

> <Valence>
9.837

> <Coulomb>
0.032

> <VdW>
0.328

> <VdW6>
-7.642

> <VdW12>
7.969

> <Bond>
0.151

> <Angle>
2.748

> <Pdih>
6.937

> <Idih>
0.001

> <Tether>
0.000

$$$$
VeraChem MOL file


 20 19  0  0  0  0  0  0  0  0999 V2000     
   16.6775   19.0124   23.8742 C   0  0  0  0  0  0  0  0  0  0  0  0
   16.0058   19.5142   24.5687 H   0  0  0  0  0  0  0  0  0  0  0  0
   16.2320   18.5346   23.0031 H   0  0  0  0  0  0  0  0  0  0  0  0
   17.9960   18.9883   24.0852 C   0  0  0  0  0  0  0  0  0  0  0  0
   18.4220   19.4735   24.9631 H   0  0  0  0  0  0  0  0  0  0  0  0
   18.9892   18.3114   23.1669 C   0  0  0  0  0  0  0  0  0  0  0  0
   18.4673   17.6434   22.4683 H   0  0  0  0  0  0  0  0  0  0  0  0
   19.6672   17.6823   23.7591 H   0  0  0  0  0  0  0  0  0  0  0  0
   19.8084   19.3485   22.3704 C   0  0  0  0  0  0  0  0  0  0  0  0
   19.1237   19.9783   21.7855 H   0  0  0  0  0  0  0  0  0  0  0  0
   20.3340   20.0145   23.0685 H   0  0  0  0  0  0  0  0  0  0  0  0
   20.8311   18.6727   21.4292 C   0  0  0  0  0  0  0  0  0  0  0  0
   20.3073   18.0165   20.7202 H   0  0  0  0  0  0  0  0  0  0  0  0
   21.4984   18.0309   22.0202 H   0  0  0  0  0  0  0  0  0  0  0  0
   21.6869   19.6993   20.6427 C   0  0  0  0  0  0  0  0  0  0  0  0
   22.1953   20.3796   21.3366 H   0  0  0  0  0  0  0  0  0  0  0  0
   22.4694   19.1725   20.0840 H   0  0  0  0  0  0  0  0  0  0  0  0
   20.8918   20.5309   19.6401 C   0  0  0  0  0  0  0  0  0  0  0  0
   20.6463   21.6882   19.9181 O   0  5  0  0  0  0  0  0  0  0  0  0
   20.5502   20.0015   18.6008 O   0  0  0  0  0  0  0  0  0  0  0  0
  1  2  1  0  0  0  0
  1  3  1  0  0  0  0
  1  4  2  0  0  0  0
  4  5  1  0  0  0  0
  4  6  1  0  0  0  0
  6  7  1  0  0  0  0
  6  8  1  0  0  0  0
  6  9  1  0  0  0  0
  9 10  1  0  0  0  0
  9 11  1  0  0  0  0
  9 12  1  0  0  0  0
 12 13  1  0  0  0  0
 12 14  1  0  0  0  0
 12 15  1  0  0  0  0
 15 16  1  0  0  0  0
 15 17  1  0  0  0  0
 15 18  1  0  0  0  0
 18 19  1  0  0  0  0
 18 20  2  0  0  0  0
M  END
> <VConfSearch Rank>
50

> <Conf_Id>
81

> <Delta U+W>
-0.051

> <U+W>
-51.796

> <U>
9.412

> <W>
-61.209

> <W(PB)>
-63.452

> <W(SA)>
2.243

> <Valence>
9.329

> <Coulomb>
-0.323

> <VdW>
0.406

> <VdW6>
-6.640

> <VdW12>
7.046

> <Bond>
0.105

> <Angle>
2.401

> <Pdih>
6.823

> <Idih>
0.000

> <Tether>
0.000

$$$$
VeraChem MOL file


 20 19  0  0  0  0  0  0  0  0999 V2000     
   16.8687   20.5398   22.8538 C   0  0  0  0  0  0  0  0  0  0  0  0
   16.5312   21.1081   21.9886 H   0  0  0  0  0  0  0  0  0  0  0  0
   16.1458   20.3583   23.6473 H   0  0  0  0  0  0  0  0  0  0  0  0
   18.1192   20.0789   22.9407 C   0  0  0  0  0  0  0  0  0  0  0  0
   18.4375   19.5141   23.8165 H   0  0  0  0  0  0  0  0  0  0  0  0
   19.1788   20.2962   21.8817 C   0  0  0  0  0  0  0  0  0  0  0  0
   20.1259   20.5916   22.3514 H   0  0  0  0  0  0  0  0  0  0  0  0
   18.8902   21.1367   21.2363 H   0  0  0  0  0  0  0  0  0  0  0  0
   19.3925   19.0467   20.9941 C   0  0  0  0  0  0  0  0  0  0  0  0
   18.4547   18.8223   20.4677 H   0  0  0  0  0  0  0  0  0  0  0  0
   20.1291   19.2854   20.2148 H   0  0  0  0  0  0  0  0  0  0  0  0
   19.8511   17.7786   21.7595 C   0  0  0  0  0  0  0  0  0  0  0  0
   19.9454   16.9505   21.0436 H   0  0  0  0  0  0  0  0  0  0  0  0
   19.0704   17.4774   22.4705 H   0  0  0  0  0  0  0  0  0  0  0  0
   21.1974   17.9371   22.5175 C   0  0  0  0  0  0  0  0  0  0  0  0
   21.1153   18.7063   23.2938 H   0  0  0  0  0  0  0  0  0  0  0  0
   21.4358   16.9999   23.0336 H   0  0  0  0  0  0  0  0  0  0  0  0
   22.3827   18.2748   21.6177 C   0  0  0  0  0  0  0  0  0  0  0  0
   22.8487   19.3958   21.6748 O   0  5  0  0  0  0  0  0  0  0  0  0
   22.8201   17.4007   20.8952 O   0  0  0  0  0  0  0  0  0  0  0  0
  1  2  1  0  0  0  0
  1  3  1  0  0  0  0
  1  4  2  0  0  0  0
  4  5  1  0  0  0  0
  4  6  1  0  0  0  0
  6  7  1  0  0  0  0
  6  8  1  0  0  0  0
  6  9  1  0  0  0  0
  9 10  1  0  0  0  0
  9 11  1  0  0  0  0
  9 12  1  0  0  0  0
 12 13  1  0  0  0  0
 12 14  1  0  0  0  0
 12 15  1  0  0  0  0
 15 16  1  0  0  0  0
 15 17  1  0  0  0  0
 15 18  1  0  0  0  0
 18 19  1  0  0  0  0
 18 20  2  0  0  0  0
M  END
> <VConfSearch Rank>
51

> <Conf_Id>
86

> <Delta U+W>
1.248

> <U+W>
-50.498

> <U>
10.404

> <W>
-60.901

> <W(PB)>
-63.061

> <W(SA)>
2.159

> <Valence>
10.021

> <Coulomb>
0.094

> <VdW>
0.289

> <VdW6>
-8.409

> <VdW12>
8.698

> <Bond>
0.179

> <Angle>
2.939

> <Pdih>
6.902

> <Idih>
0.001

> <Tether>
0.000

$$$$
VeraChem MOL file


 20 19  0  0  0  0  0  0  0  0999 V2000     
   20.6779   16.0654   21.8065 C   0  0  0  0  0  0  0  0  0  0  0  0
   20.2511   15.0784   21.9762 H   0  0  0  0  0  0  0  0  0  0  0  0
   21.0619   16.2810   20.8108 H   0  0  0  0  0  0  0  0  0  0  0  0
   20.7236   16.9750   22.7835 C   0  0  0  0  0  0  0  0  0  0  0  0
   20.3317   16.7399   23.7727 H   0  0  0  0  0  0  0  0  0  0  0  0
   21.3003   18.3656   22.6231 C   0  0  0  0  0  0  0  0  0  0  0  0
   21.8486   18.4502   21.6751 H   0  0  0  0  0  0  0  0  0  0  0  0
   22.0328   18.5442   23.4214 H   0  0  0  0  0  0  0  0  0  0  0  0
   20.2138   19.4625   22.6898 C   0  0  0  0  0  0  0  0  0  0  0  0
   19.6623   19.3762   23.6360 H   0  0  0  0  0  0  0  0  0  0  0  0
   20.7052   20.4450   22.7027 H   0  0  0  0  0  0  0  0  0  0  0  0
   19.2267   19.3981   21.5002 C   0  0  0  0  0  0  0  0  0  0  0  0
   18.7297   18.4189   21.4901 H   0  0  0  0  0  0  0  0  0  0  0  0
   19.7791   19.4807   20.5539 H   0  0  0  0  0  0  0  0  0  0  0  0
   18.1442   20.5068   21.5626 C   0  0  0  0  0  0  0  0  0  0  0  0
   17.4045   20.3412   20.7706 H   0  0  0  0  0  0  0  0  0  0  0  0
   17.6051   20.4565   22.5163 H   0  0  0  0  0  0  0  0  0  0  0  0
   18.6924   21.9201   21.3865 C   0  0  0  0  0  0  0  0  0  0  0  0
   18.9985   22.2801   20.2668 O   0  5  0  0  0  0  0  0  0  0  0  0
   18.7882   22.6274   22.3702 O   0  0  0  0  0  0  0  0  0  0  0  0
  1  2  1  0  0  0  0
  1  3  1  0  0  0  0
  1  4  2  0  0  0  0
  4  5  1  0  0  0  0
  4  6  1  0  0  0  0
  6  7  1  0  0  0  0
  6  8  1  0  0  0  0
  6  9  1  0  0  0  0
  9 10  1  0  0  0  0
  9 11  1  0  0  0  0
  9 12  1  0  0  0  0
 12 13  1  0  0  0  0
 12 14  1  0  0  0  0
 12 15  1  0  0  0  0
 15 16  1  0  0  0  0
 15 17  1  0  0  0  0
 15 18  1  0  0  0  0
 18 19  1  0  0  0  0
 18 20  2  0  0  0  0
M  END
> <VConfSearch Rank>
52

> <Conf_Id>
28

> <Delta U+W>
0.446

> <U+W>
-51.299

> <U>
9.295

> <W>
-60.594

> <W(PB)>
-62.806

> <W(SA)>
2.212

> <Valence>
9.495

> <Coulomb>
-0.610

> <VdW>
0.409

> <VdW6>
-7.332

> <VdW12>
7.741

> <Bond>
0.126

> <Angle>
2.497

> <Pdih>
6.872

> <Idih>
0.000

> <Tether>
0.000

$$$$
VeraChem MOL file


 20 19  0  0  0  0  0  0  0  0999 V2000     
   22.8843   19.7839   21.8607 C   0  0  0  0  0  0  0  0  0  0  0  0
   22.4974   20.4948   22.5876 H   0  0  0  0  0  0  0  0  0  0  0  0
   23.9657   19.7414   21.7427 H   0  0  0  0  0  0  0  0  0  0  0  0
   22.0864   18.9884   21.1392 C   0  0  0  0  0  0  0  0  0  0  0  0
   22.5334   18.2944   20.4278 H   0  0  0  0  0  0  0  0  0  0  0  0
   20.5686   18.9345   21.1914 C   0  0  0  0  0  0  0  0  0  0  0  0
   20.2689   17.9291   21.5139 H   0  0  0  0  0  0  0  0  0  0  0  0
   20.1779   19.0510   20.1718 H   0  0  0  0  0  0  0  0  0  0  0  0
   19.9085   19.9943   22.1077 C   0  0  0  0  0  0  0  0  0  0  0  0
   20.2239   19.8312   23.1475 H   0  0  0  0  0  0  0  0  0  0  0  0
   20.2715   20.9907   21.8214 H   0  0  0  0  0  0  0  0  0  0  0  0
   18.3616   20.0017   22.0284 C   0  0  0  0  0  0  0  0  0  0  0  0
   18.0532   20.2150   20.9960 H   0  0  0  0  0  0  0  0  0  0  0  0
   17.9809   20.8314   22.6401 H   0  0  0  0  0  0  0  0  0  0  0  0
   17.6856   18.6852   22.5000 C   0  0  0  0  0  0  0  0  0  0  0  0
   16.5982   18.7795   22.3980 H   0  0  0  0  0  0  0  0  0  0  0  0
   17.9847   17.8459   21.8620 H   0  0  0  0  0  0  0  0  0  0  0  0
   17.9740   18.3217   23.9538 C   0  0  0  0  0  0  0  0  0  0  0  0
   17.4673   19.0010   24.8252 O   0  5  0  0  0  0  0  0  0  0  0  0
   18.6795   17.3578   24.1773 O   0  0  0  0  0  0  0  0  0  0  0  0
  1  2  1  0  0  0  0
  1  3  1  0  0  0  0
  1  4  2  0  0  0  0
  4  5  1  0  0  0  0
  4  6  1  0  0  0  0
  6  7  1  0  0  0  0
  6  8  1  0  0  0  0
  6  9  1  0  0  0  0
  9 10  1  0  0  0  0
  9 11  1  0  0  0  0
  9 12  1  0  0  0  0
 12 13  1  0  0  0  0
 12 14  1  0  0  0  0
 12 15  1  0  0  0  0
 15 16  1  0  0  0  0
 15 17  1  0  0  0  0
 15 18  1  0  0  0  0
 18 19  1  0  0  0  0
 18 20  2  0  0  0  0
M  END
> <VConfSearch Rank>
53

> <Conf_Id>
53

> <Delta U+W>
0.549

> <U+W>
-51.197

> <U>
10.870

> <W>
-62.067

> <W(PB)>
-64.228

> <W(SA)>
2.161

> <Valence>
8.803

> <Coulomb>
1.020

> <VdW>
1.048

> <VdW6>
-8.312

> <VdW12>
9.360

> <Bond>
0.212

> <Angle>
3.379

> <Pdih>
5.211

> <Idih>
0.001

> <Tether>
0.000

$$$$
VeraChem MOL file


 20 19  0  0  0  0  0  0  0  0999 V2000     
   19.8001   21.1224   20.3775 C   0  0  0  0  0  0  0  0  0  0  0  0
   18.7319   20.9177   20.3598 H   0  0  0  0  0  0  0  0  0  0  0  0
   20.2255   21.6042   19.4991 H   0  0  0  0  0  0  0  0  0  0  0  0
   20.5680   20.8080   21.4264 C   0  0  0  0  0  0  0  0  0  0  0  0
   21.6327   21.0377   21.3941 H   0  0  0  0  0  0  0  0  0  0  0  0
   20.1110   20.1316   22.7084 C   0  0  0  0  0  0  0  0  0  0  0  0
   19.9615   20.9003   23.4779 H   0  0  0  0  0  0  0  0  0  0  0  0
   20.9272   19.5067   23.0930 H   0  0  0  0  0  0  0  0  0  0  0  0
   18.8291   19.2654   22.5972 C   0  0  0  0  0  0  0  0  0  0  0  0
   18.5680   18.8976   23.5989 H   0  0  0  0  0  0  0  0  0  0  0  0
   17.9870   19.8979   22.2872 H   0  0  0  0  0  0  0  0  0  0  0  0
   18.9437   18.0555   21.6330 C   0  0  0  0  0  0  0  0  0  0  0  0
   19.1321   18.4129   20.6126 H   0  0  0  0  0  0  0  0  0  0  0  0
   17.9746   17.5390   21.6005 H   0  0  0  0  0  0  0  0  0  0  0  0
   20.0423   17.0270   22.0174 C   0  0  0  0  0  0  0  0  0  0  0  0
   20.0521   16.2150   21.2812 H   0  0  0  0  0  0  0  0  0  0  0  0
   21.0346   17.4906   21.9799 H   0  0  0  0  0  0  0  0  0  0  0  0
   19.8496   16.3920   23.3915 C   0  0  0  0  0  0  0  0  0  0  0  0
   20.6074   16.7125   24.2861 O   0  5  0  0  0  0  0  0  0  0  0  0
   18.9563   15.5787   23.5261 O   0  0  0  0  0  0  0  0  0  0  0  0
  1  2  1  0  0  0  0
  1  3  1  0  0  0  0
  1  4  2  0  0  0  0
  4  5  1  0  0  0  0
  4  6  1  0  0  0  0
  6  7  1  0  0  0  0
  6  8  1  0  0  0  0
  6  9  1  0  0  0  0
  9 10  1  0  0  0  0
  9 11  1  0  0  0  0
  9 12  1  0  0  0  0
 12 13  1  0  0  0  0
 12 14  1  0  0  0  0
 12 15  1  0  0  0  0
 15 16  1  0  0  0  0
 15 17  1  0  0  0  0
 15 18  1  0  0  0  0
 18 19  1  0  0  0  0
 18 20  2  0  0  0  0
M  END
> <VConfSearch Rank>
54

> <Conf_Id>
66

> <Delta U+W>
1.737

> <U+W>
-50.008

> <U>
11.091

> <W>
-61.099

> <W(PB)>
-63.213

> <W(SA)>
2.114

> <Valence>
9.664

> <Coulomb>
0.658

> <VdW>
0.769

> <VdW6>
-9.171

> <VdW12>
9.940

> <Bond>
0.244

> <Angle>
3.658

> <Pdih>
5.762

> <Idih>
0.001

> <Tether>
0.000

$$$$
VeraChem MOL file


 20 19  0  0  0  0  0  0  0  0999 V2000     
   22.0721   18.0290   22.1712 C   0  0  0  0  0  0  0  0  0  0  0  0
   21.6026   17.3314   21.4812 H   0  0  0  0  0  0  0  0  0  0  0  0
   23.1277   18.2434   22.0144 H   0  0  0  0  0  0  0  0  0  0  0  0
   21.3986   18.6012   23.1751 C   0  0  0  0  0  0  0  0  0  0  0  0
   21.9194   19.2911   23.8386 H   0  0  0  0  0  0  0  0  0  0  0  0
   19.9292   18.4009   23.5087 C   0  0  0  0  0  0  0  0  0  0  0  0
   19.5225   19.3418   23.9000 H   0  0  0  0  0  0  0  0  0  0  0  0
   19.8534   17.6935   24.3450 H   0  0  0  0  0  0  0  0  0  0  0  0
   19.0301   17.9093   22.3441 C   0  0  0  0  0  0  0  0  0  0  0  0
   19.3970   16.9388   21.9851 H   0  0  0  0  0  0  0  0  0  0  0  0
   18.0215   17.7183   22.7350 H   0  0  0  0  0  0  0  0  0  0  0  0
   18.9218   18.8918   21.1500 C   0  0  0  0  0  0  0  0  0  0  0  0
   18.3369   18.4112   20.3538 H   0  0  0  0  0  0  0  0  0  0  0  0
   19.9160   19.0857   20.7263 H   0  0  0  0  0  0  0  0  0  0  0  0
   18.2487   20.2401   21.5159 C   0  0  0  0  0  0  0  0  0  0  0  0
   17.2749   20.0623   21.9873 H   0  0  0  0  0  0  0  0  0  0  0  0
   18.8632   20.7944   22.2342 H   0  0  0  0  0  0  0  0  0  0  0  0
   18.0289   21.1376   20.3032 C   0  0  0  0  0  0  0  0  0  0  0  0
   18.8992   21.9341   20.0119 O   0  5  0  0  0  0  0  0  0  0  0  0
   16.9983   21.0066   19.6726 O   0  0  0  0  0  0  0  0  0  0  0  0
  1  2  1  0  0  0  0
  1  3  1  0  0  0  0
  1  4  2  0  0  0  0
  4  5  1  0  0  0  0
  4  6  1  0  0  0  0
  6  7  1  0  0  0  0
  6  8  1  0  0  0  0
  6  9  1  0  0  0  0
  9 10  1  0  0  0  0
  9 11  1  0  0  0  0
  9 12  1  0  0  0  0
 12 13  1  0  0  0  0
 12 14  1  0  0  0  0
 12 15  1  0  0  0  0
 15 16  1  0  0  0  0
 15 17  1  0  0  0  0
 15 18  1  0  0  0  0
 18 19  1  0  0  0  0
 18 20  2  0  0  0  0
M  END
> <VConfSearch Rank>
55

> <Conf_Id>
64

> <Delta U+W>
0.366

> <U+W>
-51.379

> <U>
10.000

> <W>
-61.379

> <W(PB)>
-63.541

> <W(SA)>
2.162

> <Valence>
9.398

> <Coulomb>
-0.504

> <VdW>
1.105

> <VdW6>
-7.975

> <VdW12>
9.080

> <Bond>
0.216

> <Angle>
3.417

> <Pdih>
5.765

> <Idih>
0.001

> <Tether>
0.000

$$$$
VeraChem MOL file


 20 19  0  0  0  0  0  0  0  0999 V2000     
   21.5179   18.1162   24.3393 C   0  0  0  0  0  0  0  0  0  0  0  0
   21.2494   19.0354   24.8573 H   0  0  0  0  0  0  0  0  0  0  0  0
   22.5351   17.7491   24.4645 H   0  0  0  0  0  0  0  0  0  0  0  0
   20.6376   17.4635   23.5758 C   0  0  0  0  0  0  0  0  0  0  0  0
   20.9273   16.5462   23.0638 H   0  0  0  0  0  0  0  0  0  0  0  0
   19.2087   17.9120   23.3538 C   0  0  0  0  0  0  0  0  0  0  0  0
   18.9420   18.7144   24.0550 H   0  0  0  0  0  0  0  0  0  0  0  0
   18.5322   17.0745   23.5699 H   0  0  0  0  0  0  0  0  0  0  0  0
   18.9631   18.3902   21.9051 C   0  0  0  0  0  0  0  0  0  0  0  0
   19.2306   17.5878   21.2038 H   0  0  0  0  0  0  0  0  0  0  0  0
   17.8894   18.5799   21.7714 H   0  0  0  0  0  0  0  0  0  0  0  0
   19.7527   19.6732   21.5586 C   0  0  0  0  0  0  0  0  0  0  0  0
   20.8308   19.4886   21.6627 H   0  0  0  0  0  0  0  0  0  0  0  0
   19.4965   20.4691   22.2715 H   0  0  0  0  0  0  0  0  0  0  0  0
   19.4573   20.1605   20.1187 C   0  0  0  0  0  0  0  0  0  0  0  0
   19.7201   19.3805   19.3941 H   0  0  0  0  0  0  0  0  0  0  0  0
   18.3868   20.3663   20.0003 H   0  0  0  0  0  0  0  0  0  0  0  0
   20.2253   21.4256   19.7529 C   0  0  0  0  0  0  0  0  0  0  0  0
   19.7182   22.4993   20.0115 O   0  5  0  0  0  0  0  0  0  0  0  0
   21.3163   21.3043   19.2317 O   0  0  0  0  0  0  0  0  0  0  0  0
  1  2  1  0  0  0  0
  1  3  1  0  0  0  0
  1  4  2  0  0  0  0
  4  5  1  0  0  0  0
  4  6  1  0  0  0  0
  6  7  1  0  0  0  0
  6  8  1  0  0  0  0
  6  9  1  0  0  0  0
  9 10  1  0  0  0  0
  9 11  1  0  0  0  0
  9 12  1  0  0  0  0
 12 13  1  0  0  0  0
 12 14  1  0  0  0  0
 12 15  1  0  0  0  0
 15 16  1  0  0  0  0
 15 17  1  0  0  0  0
 15 18  1  0  0  0  0
 18 19  1  0  0  0  0
 18 20  2  0  0  0  0
M  END
> <VConfSearch Rank>
56

> <Conf_Id>
42

> <Delta U+W>
-0.601

> <U+W>
-52.347

> <U>
8.428

> <W>
-60.774

> <W(PB)>
-62.982

> <W(SA)>
2.208

> <Valence>
9.231

> <Coulomb>
-1.304

> <VdW>
0.501

> <VdW6>
-6.515

> <VdW12>
7.016

> <Bond>
0.103

> <Angle>
2.328

> <Pdih>
6.799

> <Idih>
0.000

> <Tether>
0.000

$$$$
VeraChem MOL file


 20 19  0  0  0  0  0  0  0  0999 V2000     
   20.2553   20.7097   24.6370 C   0  0  0  0  0  0  0  0  0  0  0  0
   19.4817   20.1893   25.1992 H   0  0  0  0  0  0  0  0  0  0  0  0
   20.4124   21.7639   24.8583 H   0  0  0  0  0  0  0  0  0  0  0  0
   20.9829   20.0836   23.7082 C   0  0  0  0  0  0  0  0  0  0  0  0
   21.7506   20.6235   23.1545 H   0  0  0  0  0  0  0  0  0  0  0  0
   20.8215   18.6228   23.3449 C   0  0  0  0  0  0  0  0  0  0  0  0
   20.1766   18.1122   24.0729 H   0  0  0  0  0  0  0  0  0  0  0  0
   21.8009   18.1292   23.3990 H   0  0  0  0  0  0  0  0  0  0  0  0
   20.2461   18.4333   21.9233 C   0  0  0  0  0  0  0  0  0  0  0  0
   20.8963   18.9390   21.1961 H   0  0  0  0  0  0  0  0  0  0  0  0
   20.2668   17.3644   21.6710 H   0  0  0  0  0  0  0  0  0  0  0  0
   18.7972   18.9590   21.7910 C   0  0  0  0  0  0  0  0  0  0  0  0
   18.7685   20.0374   22.0001 H   0  0  0  0  0  0  0  0  0  0  0  0
   18.1660   18.4745   22.5481 H   0  0  0  0  0  0  0  0  0  0  0  0
   18.1934   18.6953   20.3872 C   0  0  0  0  0  0  0  0  0  0  0  0
   18.2353   17.6252   20.1511 H   0  0  0  0  0  0  0  0  0  0  0  0
   17.1346   18.9798   20.3846 H   0  0  0  0  0  0  0  0  0  0  0  0
   18.8773   19.4688   19.2634 C   0  0  0  0  0  0  0  0  0  0  0  0
   19.6487   18.8707   18.5393 O   0  5  0  0  0  0  0  0  0  0  0  0
   18.6058   20.6460   19.1308 O   0  0  0  0  0  0  0  0  0  0  0  0
  1  2  1  0  0  0  0
  1  3  1  0  0  0  0
  1  4  2  0  0  0  0
  4  5  1  0  0  0  0
  4  6  1  0  0  0  0
  6  7  1  0  0  0  0
  6  8  1  0  0  0  0
  6  9  1  0  0  0  0
  9 10  1  0  0  0  0
  9 11  1  0  0  0  0
  9 12  1  0  0  0  0
 12 13  1  0  0  0  0
 12 14  1  0  0  0  0
 12 15  1  0  0  0  0
 15 16  1  0  0  0  0
 15 17  1  0  0  0  0
 15 18  1  0  0  0  0
 18 19  1  0  0  0  0
 18 20  2  0  0  0  0
M  END
> <VConfSearch Rank>
57

> <Conf_Id>
68

> <Delta U+W>
0.492

> <U+W>
-51.253

> <U>
10.179

> <W>
-61.432

> <W(PB)>
-63.627

> <W(SA)>
2.195

> <Valence>
9.483

> <Coulomb>
0.361

> <VdW>
0.335

> <VdW6>
-7.385

> <VdW12>
7.720

> <Bond>
0.125

> <Angle>
2.487

> <Pdih>
6.870

> <Idih>
0.001

> <Tether>
0.000

$$$$
VeraChem MOL file


 20 19  0  0  0  0  0  0  0  0999 V2000     
   18.0013   16.9109   20.6791 C   0  0  0  0  0  0  0  0  0  0  0  0
   18.1431   16.0717   21.3581 H   0  0  0  0  0  0  0  0  0  0  0  0
   17.8910   16.6854   19.6198 H   0  0  0  0  0  0  0  0  0  0  0  0
   17.9671   18.1698   21.1239 C   0  0  0  0  0  0  0  0  0  0  0  0
   17.8214   18.9949   20.4273 H   0  0  0  0  0  0  0  0  0  0  0  0
   18.1073   18.5582   22.5803 C   0  0  0  0  0  0  0  0  0  0  0  0
   17.9006   17.6876   23.2175 H   0  0  0  0  0  0  0  0  0  0  0  0
   17.3546   19.3145   22.8399 H   0  0  0  0  0  0  0  0  0  0  0  0
   19.5190   19.0912   22.9135 C   0  0  0  0  0  0  0  0  0  0  0  0
   19.5977   19.2308   24.0002 H   0  0  0  0  0  0  0  0  0  0  0  0
   20.2671   18.3340   22.6404 H   0  0  0  0  0  0  0  0  0  0  0  0
   19.8393   20.4291   22.2055 C   0  0  0  0  0  0  0  0  0  0  0  0
   19.0583   21.1628   22.4466 H   0  0  0  0  0  0  0  0  0  0  0  0
   19.8201   20.2923   21.1157 H   0  0  0  0  0  0  0  0  0  0  0  0
   21.2175   21.0066   22.6204 C   0  0  0  0  0  0  0  0  0  0  0  0
   21.3431   22.0043   22.1835 H   0  0  0  0  0  0  0  0  0  0  0  0
   21.2656   21.1285   23.7092 H   0  0  0  0  0  0  0  0  0  0  0  0
   22.4047   20.1588   22.1726 C   0  0  0  0  0  0  0  0  0  0  0  0
   22.7495   20.2260   21.0091 O   0  5  0  0  0  0  0  0  0  0  0  0
   22.9653   19.4694   23.0018 O   0  0  0  0  0  0  0  0  0  0  0  0
  1  2  1  0  0  0  0
  1  3  1  0  0  0  0
  1  4  2  0  0  0  0
  4  5  1  0  0  0  0
  4  6  1  0  0  0  0
  6  7  1  0  0  0  0
  6  8  1  0  0  0  0
  6  9  1  0  0  0  0
  9 10  1  0  0  0  0
  9 11  1  0  0  0  0
  9 12  1  0  0  0  0
 12 13  1  0  0  0  0
 12 14  1  0  0  0  0
 12 15  1  0  0  0  0
 15 16  1  0  0  0  0
 15 17  1  0  0  0  0
 15 18  1  0  0  0  0
 18 19  1  0  0  0  0
 18 20  2  0  0  0  0
M  END
> <VConfSearch Rank>
58

> <Conf_Id>
87

> <Delta U+W>
0.339

> <U+W>
-51.407

> <U>
10.461

> <W>
-61.867

> <W(PB)>
-64.045

> <W(SA)>
2.178

> <Valence>
9.555

> <Coulomb>
0.483

> <VdW>
0.423

> <VdW6>
-7.223

> <VdW12>
7.646

> <Bond>
0.126

> <Angle>
2.492

> <Pdih>
6.936

> <Idih>
0.001

> <Tether>
0.000

$$$$
VeraChem MOL file


 20 19  0  0  0  0  0  0  0  0999 V2000     
   17.7241   18.9317   19.8166 C   0  0  0  0  0  0  0  0  0  0  0  0
   18.3491   18.7342   18.9471 H   0  0  0  0  0  0  0  0  0  0  0  0
   16.7229   18.5043   19.8229 H   0  0  0  0  0  0  0  0  0  0  0  0
   18.1677   19.6679   20.8387 C   0  0  0  0  0  0  0  0  0  0  0  0
   17.5241   19.8620   21.6960 H   0  0  0  0  0  0  0  0  0  0  0  0
   19.5412   20.3023   20.8910 C   0  0  0  0  0  0  0  0  0  0  0  0
   19.5559   21.1177   21.6263 H   0  0  0  0  0  0  0  0  0  0  0  0
   19.7438   20.7735   19.9197 H   0  0  0  0  0  0  0  0  0  0  0  0
   20.6778   19.2945   21.1939 C   0  0  0  0  0  0  0  0  0  0  0  0
   20.5514   18.3906   20.5825 H   0  0  0  0  0  0  0  0  0  0  0  0
   21.6248   19.7472   20.8697 H   0  0  0  0  0  0  0  0  0  0  0  0
   20.8281   18.9101   22.6875 C   0  0  0  0  0  0  0  0  0  0  0  0
   20.9403   19.8171   23.2972 H   0  0  0  0  0  0  0  0  0  0  0  0
   21.7622   18.3434   22.8049 H   0  0  0  0  0  0  0  0  0  0  0  0
   19.6636   18.0516   23.2446 C   0  0  0  0  0  0  0  0  0  0  0  0
   18.7389   18.6360   23.2830 H   0  0  0  0  0  0  0  0  0  0  0  0
   19.4801   17.1906   22.5910 H   0  0  0  0  0  0  0  0  0  0  0  0
   19.9356   17.5303   24.6510 C   0  0  0  0  0  0  0  0  0  0  0  0
   19.6133   18.2263   25.5937 O   0  5  0  0  0  0  0  0  0  0  0  0
   20.4817   16.4509   24.7673 O   0  0  0  0  0  0  0  0  0  0  0  0
  1  2  1  0  0  0  0
  1  3  1  0  0  0  0
  1  4  2  0  0  0  0
  4  5  1  0  0  0  0
  4  6  1  0  0  0  0
  6  7  1  0  0  0  0
  6  8  1  0  0  0  0
  6  9  1  0  0  0  0
  9 10  1  0  0  0  0
  9 11  1  0  0  0  0
  9 12  1  0  0  0  0
 12 13  1  0  0  0  0
 12 14  1  0  0  0  0
 12 15  1  0  0  0  0
 15 16  1  0  0  0  0
 15 17  1  0  0  0  0
 15 18  1  0  0  0  0
 18 19  1  0  0  0  0
 18 20  2  0  0  0  0
M  END
> <VConfSearch Rank>
59

> <Conf_Id>
51

> <Delta U+W>
1.709

> <U+W>
-50.036

> <U>
10.643

> <W>
-60.679

> <W(PB)>
-62.882

> <W(SA)>
2.203

> <Valence>
11.231

> <Coulomb>
-1.077

> <VdW>
0.489

> <VdW6>
-7.546

> <VdW12>
8.035

> <Bond>
0.159

> <Angle>
3.005

> <Pdih>
8.065

> <Idih>
0.002

> <Tether>
0.000

$$$$
VeraChem MOL file


 20 19  0  0  0  0  0  0  0  0999 V2000     
   21.2504   21.0844   20.7592 C   0  0  0  0  0  0  0  0  0  0  0  0
   21.2476   20.8012   19.7079 H   0  0  0  0  0  0  0  0  0  0  0  0
   22.1714   21.4991   21.1652 H   0  0  0  0  0  0  0  0  0  0  0  0
   20.1671   20.9274   21.5244 C   0  0  0  0  0  0  0  0  0  0  0  0
   20.1866   21.2252   22.5721 H   0  0  0  0  0  0  0  0  0  0  0  0
   18.8516   20.3700   21.0239 C   0  0  0  0  0  0  0  0  0  0  0  0
   18.6159   20.8452   20.0621 H   0  0  0  0  0  0  0  0  0  0  0  0
   18.0360   20.6520   21.7030 H   0  0  0  0  0  0  0  0  0  0  0  0
   18.8662   18.8344   20.8218 C   0  0  0  0  0  0  0  0  0  0  0  0
   18.0378   18.5752   20.1486 H   0  0  0  0  0  0  0  0  0  0  0  0
   19.7844   18.5329   20.2993 H   0  0  0  0  0  0  0  0  0  0  0  0
   18.6949   18.0039   22.1188 C   0  0  0  0  0  0  0  0  0  0  0  0
   18.5404   16.9531   21.8370 H   0  0  0  0  0  0  0  0  0  0  0  0
   17.7834   18.3178   22.6457 H   0  0  0  0  0  0  0  0  0  0  0  0
   19.9041   18.0765   23.0862 C   0  0  0  0  0  0  0  0  0  0  0  0
   20.8341   17.8559   22.5489 H   0  0  0  0  0  0  0  0  0  0  0  0
   20.0004   19.0824   23.5071 H   0  0  0  0  0  0  0  0  0  0  0  0
   19.7865   17.1010   24.2516 C   0  0  0  0  0  0  0  0  0  0  0  0
   19.2119   17.4727   25.2558 O   0  5  0  0  0  0  0  0  0  0  0  0
   20.2547   15.9876   24.1174 O   0  0  0  0  0  0  0  0  0  0  0  0
  1  2  1  0  0  0  0
  1  3  1  0  0  0  0
  1  4  2  0  0  0  0
  4  5  1  0  0  0  0
  4  6  1  0  0  0  0
  6  7  1  0  0  0  0
  6  8  1  0  0  0  0
  6  9  1  0  0  0  0
  9 10  1  0  0  0  0
  9 11  1  0  0  0  0
  9 12  1  0  0  0  0
 12 13  1  0  0  0  0
 12 14  1  0  0  0  0
 12 15  1  0  0  0  0
 15 16  1  0  0  0  0
 15 17  1  0  0  0  0
 15 18  1  0  0  0  0
 18 19  1  0  0  0  0
 18 20  2  0  0  0  0
M  END
> <VConfSearch Rank>
60

> <Conf_Id>
91

> <Delta U+W>
1.604

> <U+W>
-50.141

> <U>
10.644

> <W>
-60.786

> <W(PB)>
-62.965

> <W(SA)>
2.179

> <Valence>
11.230

> <Coulomb>
-1.075

> <VdW>
0.489

> <VdW6>
-7.547

> <VdW12>
8.036

> <Bond>
0.159

> <Angle>
3.006

> <Pdih>
8.064

> <Idih>
0.002

> <Tether>
0.000

$$$$
VeraChem MOL file


 20 19  0  0  0  0  0  0  0  0999 V2000     
   16.1336   18.8701   21.5252 C   0  0  0  0  0  0  0  0  0  0  0  0
   16.1543   19.9201   21.2377 H   0  0  0  0  0  0  0  0  0  0  0  0
   15.1872   18.4669   21.8817 H   0  0  0  0  0  0  0  0  0  0  0  0
   17.2247   18.1038   21.4477 C   0  0  0  0  0  0  0  0  0  0  0  0
   17.1828   17.0551   21.7412 H   0  0  0  0  0  0  0  0  0  0  0  0
   18.5712   18.5928   20.9625 C   0  0  0  0  0  0  0  0  0  0  0  0
   18.4633   19.5591   20.4513 H   0  0  0  0  0  0  0  0  0  0  0  0
   18.9736   17.8875   20.2231 H   0  0  0  0  0  0  0  0  0  0  0  0
   19.5658   18.7389   22.1331 C   0  0  0  0  0  0  0  0  0  0  0  0
   19.1566   19.4421   22.8718 H   0  0  0  0  0  0  0  0  0  0  0  0
   19.6768   17.7711   22.6412 H   0  0  0  0  0  0  0  0  0  0  0  0
   20.9478   19.2349   21.6546 C   0  0  0  0  0  0  0  0  0  0  0  0
   20.8376   20.2031   21.1467 H   0  0  0  0  0  0  0  0  0  0  0  0
   21.3570   18.5327   20.9149 H   0  0  0  0  0  0  0  0  0  0  0  0
   21.9476   19.3825   22.8323 C   0  0  0  0  0  0  0  0  0  0  0  0
   21.5484   20.0870   23.5714 H   0  0  0  0  0  0  0  0  0  0  0  0
   22.0674   18.4182   23.3400 H   0  0  0  0  0  0  0  0  0  0  0  0
   23.3444   19.8706   22.4451 C   0  0  0  0  0  0  0  0  0  0  0  0
   24.1556   19.9972   23.3408 O   0  5  0  0  0  0  0  0  0  0  0  0
   23.5973   20.1123   21.2805 O   0  0  0  0  0  0  0  0  0  0  0  0
  1  2  1  0  0  0  0
  1  3  1  0  0  0  0
  1  4  2  0  0  0  0
  4  5  1  0  0  0  0
  4  6  1  0  0  0  0
  6  7  1  0  0  0  0
  6  8  1  0  0  0  0
  6  9  1  0  0  0  0
  9 10  1  0  0  0  0
  9 11  1  0  0  0  0
  9 12  1  0  0  0  0
 12 13  1  0  0  0  0
 12 14  1  0  0  0  0
 12 15  1  0  0  0  0
 15 16  1  0  0  0  0
 15 17  1  0  0  0  0
 15 18  1  0  0  0  0
 18 19  1  0  0  0  0
 18 20  2  0  0  0  0
M  END
> <VConfSearch Rank>
61

> <Conf_Id>
33

> <Delta U+W>
0.000

> <U+W>
-51.745

> <U>
7.593

> <W>
-59.338

> <W(PB)>
-61.574

> <W(SA)>
2.236

> <Valence>
9.570

> <Coulomb>
-3.091

> <VdW>
1.114

> <VdW6>
-6.064

> <VdW12>
7.178

> <Bond>
0.117

> <Angle>
2.692

> <Pdih>
6.761

> <Idih>
0.000

> <Tether>
0.000

$$$$
VeraChem MOL file


 20 19  0  0  0  0  0  0  0  0999 V2000     
   16.8467   17.6428   20.1696 C   0  0  0  0  0  0  0  0  0  0  0  0
   16.6132   18.6344   19.7852 H   0  0  0  0  0  0  0  0  0  0  0  0
   16.1041   16.8605   20.0219 H   0  0  0  0  0  0  0  0  0  0  0  0
   17.9969   17.3921   20.8004 C   0  0  0  0  0  0  0  0  0  0  0  0
   18.2110   16.3927   21.1784 H   0  0  0  0  0  0  0  0  0  0  0  0
   19.0744   18.4258   21.0416 C   0  0  0  0  0  0  0  0  0  0  0  0
   18.8969   19.3120   20.4172 H   0  0  0  0  0  0  0  0  0  0  0  0
   20.0443   18.0124   20.7376 H   0  0  0  0  0  0  0  0  0  0  0  0
   19.1187   18.8445   22.5284 C   0  0  0  0  0  0  0  0  0  0  0  0
   18.1159   19.1751   22.8325 H   0  0  0  0  0  0  0  0  0  0  0  0
   19.3596   17.9720   23.1511 H   0  0  0  0  0  0  0  0  0  0  0  0
   20.1233   19.9849   22.8189 C   0  0  0  0  0  0  0  0  0  0  0  0
   20.0098   20.2959   23.8667 H   0  0  0  0  0  0  0  0  0  0  0  0
   19.8756   20.8630   22.2065 H   0  0  0  0  0  0  0  0  0  0  0  0
   21.6016   19.5844   22.5758 C   0  0  0  0  0  0  0  0  0  0  0  0
   21.8489   18.6831   23.1493 H   0  0  0  0  0  0  0  0  0  0  0  0
   21.7709   19.3540   21.5179 H   0  0  0  0  0  0  0  0  0  0  0  0
   22.5822   20.6817   22.9735 C   0  0  0  0  0  0  0  0  0  0  0  0
   22.8844   21.5115   22.1387 O   0  5  0  0  0  0  0  0  0  0  0  0
   23.0029   20.6894   24.1136 O   0  0  0  0  0  0  0  0  0  0  0  0
  1  2  1  0  0  0  0
  1  3  1  0  0  0  0
  1  4  2  0  0  0  0
  4  5  1  0  0  0  0
  4  6  1  0  0  0  0
  6  7  1  0  0  0  0
  6  8  1  0  0  0  0
  6  9  1  0  0  0  0
  9 10  1  0  0  0  0
  9 11  1  0  0  0  0
  9 12  1  0  0  0  0
 12 13  1  0  0  0  0
 12 14  1  0  0  0  0
 12 15  1  0  0  0  0
 15 16  1  0  0  0  0
 15 17  1  0  0  0  0
 15 18  1  0  0  0  0
 18 19  1  0  0  0  0
 18 20  2  0  0  0  0
M  END
> <VConfSearch Rank>
62

> <Conf_Id>
37

> <Delta U+W>
-0.384

> <U+W>
-52.130

> <U>
7.491

> <W>
-59.621

> <W(PB)>
-61.853

> <W(SA)>
2.232

> <Valence>
9.604

> <Coulomb>
-2.799

> <VdW>
0.686

> <VdW6>
-6.435

> <VdW12>
7.121

> <Bond>
0.124

> <Angle>
2.493

> <Pdih>
6.986

> <Idih>
0.001

> <Tether>
0.000

$$$$
VeraChem MOL file


 20 19  0  0  0  0  0  0  0  0999 V2000     
   17.2366   17.0151   21.0551 C   0  0  0  0  0  0  0  0  0  0  0  0
   16.4010   16.3666   20.7975 H   0  0  0  0  0  0  0  0  0  0  0  0
   17.9520   17.2313   20.2645 H   0  0  0  0  0  0  0  0  0  0  0  0
   17.3598   17.5123   22.2910 C   0  0  0  0  0  0  0  0  0  0  0  0
   16.6105   17.2596   23.0410 H   0  0  0  0  0  0  0  0  0  0  0  0
   18.4643   18.4249   22.7972 C   0  0  0  0  0  0  0  0  0  0  0  0
   18.9510   17.9461   23.6575 H   0  0  0  0  0  0  0  0  0  0  0  0
   18.0100   19.3451   23.1885 H   0  0  0  0  0  0  0  0  0  0  0  0
   19.5387   18.7959   21.7484 C   0  0  0  0  0  0  0  0  0  0  0  0
   20.0118   17.8802   21.3680 H   0  0  0  0  0  0  0  0  0  0  0  0
   19.0606   19.2943   20.8939 H   0  0  0  0  0  0  0  0  0  0  0  0
   20.6216   19.7233   22.3419 C   0  0  0  0  0  0  0  0  0  0  0  0
   21.1037   19.2303   23.1975 H   0  0  0  0  0  0  0  0  0  0  0  0
   20.1544   20.6415   22.7244 H   0  0  0  0  0  0  0  0  0  0  0  0
   21.6986   20.0963   21.2936 C   0  0  0  0  0  0  0  0  0  0  0  0
   22.1845   19.1907   20.9110 H   0  0  0  0  0  0  0  0  0  0  0  0
   21.2352   20.6019   20.4378 H   0  0  0  0  0  0  0  0  0  0  0  0
   22.7798   21.0122   21.8559 C   0  0  0  0  0  0  0  0  0  0  0  0
   23.7579   20.5004   22.3637 O   0  5  0  0  0  0  0  0  0  0  0  0
   22.6060   22.2130   21.7891 O   0  0  0  0  0  0  0  0  0  0  0  0
  1  2  1  0  0  0  0
  1  3  1  0  0  0  0
  1  4  2  0  0  0  0
  4  5  1  0  0  0  0
  4  6  1  0  0  0  0
  6  7  1  0  0  0  0
  6  8  1  0  0  0  0
  6  9  1  0  0  0  0
  9 10  1  0  0  0  0
  9 11  1  0  0  0  0
  9 12  1  0  0  0  0
 12 13  1  0  0  0  0
 12 14  1  0  0  0  0
 12 15  1  0  0  0  0
 15 16  1  0  0  0  0
 15 17  1  0  0  0  0
 15 18  1  0  0  0  0
 18 19  1  0  0  0  0
 18 20  2  0  0  0  0
M  END
> <VConfSearch Rank>
63

> <Conf_Id>
44

> <Delta U+W>
-1.440

> <U+W>
-53.185

> <U>
6.572

> <W>
-59.757

> <W(PB)>
-62.007

> <W(SA)>
2.249

> <Valence>
7.989

> <Coulomb>
-2.697

> <VdW>
1.281

> <VdW6>
-6.467

> <VdW12>
7.748

> <Bond>
0.136

> <Angle>
2.854

> <Pdih>
4.997

> <Idih>
0.001

> <Tether>
0.000

$$$$
VeraChem MOL file


 20 19  0  0  0  0  0  0  0  0999 V2000     
   20.0479   22.4728   22.4543 C   0  0  0  0  0  0  0  0  0  0  0  0
   19.6720   22.1740   23.4316 H   0  0  0  0  0  0  0  0  0  0  0  0
   20.0260   23.5340   22.2122 H   0  0  0  0  0  0  0  0  0  0  0  0
   20.5159   21.5757   21.5827 C   0  0  0  0  0  0  0  0  0  0  0  0
   20.8871   21.8958   20.6093 H   0  0  0  0  0  0  0  0  0  0  0  0
   20.5789   20.0880   21.8486 C   0  0  0  0  0  0  0  0  0  0  0  0
   20.4481   19.8952   22.9211 H   0  0  0  0  0  0  0  0  0  0  0  0
   21.5730   19.7088   21.5769 H   0  0  0  0  0  0  0  0  0  0  0  0
   19.4981   19.3337   21.0418 C   0  0  0  0  0  0  0  0  0  0  0  0
   18.5015   19.6751   21.3536 H   0  0  0  0  0  0  0  0  0  0  0  0
   19.5980   19.5980   19.9801 H   0  0  0  0  0  0  0  0  0  0  0  0
   19.5879   17.7949   21.1771 C   0  0  0  0  0  0  0  0  0  0  0  0
   20.5809   17.4509   20.8564 H   0  0  0  0  0  0  0  0  0  0  0  0
   18.8641   17.3381   20.4879 H   0  0  0  0  0  0  0  0  0  0  0  0
   19.3005   17.2817   22.6121 C   0  0  0  0  0  0  0  0  0  0  0  0
   20.0603   17.6460   23.3126 H   0  0  0  0  0  0  0  0  0  0  0  0
   18.3302   17.6554   22.9604 H   0  0  0  0  0  0  0  0  0  0  0  0
   19.2806   15.7600   22.7005 C   0  0  0  0  0  0  0  0  0  0  0  0
   18.2227   15.1889   22.5230 O   0  5  0  0  0  0  0  0  0  0  0  0
   20.3271   15.1845   22.9249 O   0  0  0  0  0  0  0  0  0  0  0  0
  1  2  1  0  0  0  0
  1  3  1  0  0  0  0
  1  4  2  0  0  0  0
  4  5  1  0  0  0  0
  4  6  1  0  0  0  0
  6  7  1  0  0  0  0
  6  8  1  0  0  0  0
  6  9  1  0  0  0  0
  9 10  1  0  0  0  0
  9 11  1  0  0  0  0
  9 12  1  0  0  0  0
 12 13  1  0  0  0  0
 12 14  1  0  0  0  0
 12 15  1  0  0  0  0
 15 16  1  0  0  0  0
 15 17  1  0  0  0  0
 15 18  1  0  0  0  0
 18 19  1  0  0  0  0
 18 20  2  0  0  0  0
M  END
> <VConfSearch Rank>
64

> <Conf_Id>
38

> <Delta U+W>
-0.381

> <U+W>
-52.126

> <U>
7.601

> <W>
-59.727

> <W(PB)>
-61.964

> <W(SA)>
2.236

> <Valence>
9.602

> <Coulomb>
-2.686

> <VdW>
0.685

> <VdW6>
-6.453

> <VdW12>
7.139

> <Bond>
0.125

> <Angle>
2.485

> <Pdih>
6.991

> <Idih>
0.001

> <Tether>
0.000

$$$$
VeraChem MOL file


 20 19  0  0  0  0  0  0  0  0999 V2000     
   20.6824   17.4105   24.9449 C   0  0  0  0  0  0  0  0  0  0  0  0
   20.3465   16.4611   24.5308 H   0  0  0  0  0  0  0  0  0  0  0  0
   21.4182   17.3750   25.7465 H   0  0  0  0  0  0  0  0  0  0  0  0
   20.2145   18.5752   24.4887 C   0  0  0  0  0  0  0  0  0  0  0  0
   20.5645   19.5145   24.9164 H   0  0  0  0  0  0  0  0  0  0  0  0
   19.1930   18.7030   23.3806 C   0  0  0  0  0  0  0  0  0  0  0  0
   18.3969   19.3922   23.6926 H   0  0  0  0  0  0  0  0  0  0  0  0
   18.7147   17.7325   23.1906 H   0  0  0  0  0  0  0  0  0  0  0  0
   19.8435   19.2194   22.0801 C   0  0  0  0  0  0  0  0  0  0  0  0
   20.3191   20.1911   22.2723 H   0  0  0  0  0  0  0  0  0  0  0  0
   20.6424   18.5300   21.7739 H   0  0  0  0  0  0  0  0  0  0  0  0
   18.8121   19.3586   20.9377 C   0  0  0  0  0  0  0  0  0  0  0  0
   18.0170   20.0558   21.2367 H   0  0  0  0  0  0  0  0  0  0  0  0
   18.3312   18.3866   20.7634 H   0  0  0  0  0  0  0  0  0  0  0  0
   19.4524   19.8478   19.6127 C   0  0  0  0  0  0  0  0  0  0  0  0
   20.2674   19.1768   19.3153 H   0  0  0  0  0  0  0  0  0  0  0  0
   18.7056   19.8151   18.8107 H   0  0  0  0  0  0  0  0  0  0  0  0
   19.9932   21.2735   19.6747 C   0  0  0  0  0  0  0  0  0  0  0  0
   21.1963   21.4306   19.7448 O   0  5  0  0  0  0  0  0  0  0  0  0
   19.1958   22.1900   19.6399 O   0  0  0  0  0  0  0  0  0  0  0  0
  1  2  1  0  0  0  0
  1  3  1  0  0  0  0
  1  4  2  0  0  0  0
  4  5  1  0  0  0  0
  4  6  1  0  0  0  0
  6  7  1  0  0  0  0
  6  8  1  0  0  0  0
  6  9  1  0  0  0  0
  9 10  1  0  0  0  0
  9 11  1  0  0  0  0
  9 12  1  0  0  0  0
 12 13  1  0  0  0  0
 12 14  1  0  0  0  0
 12 15  1  0  0  0  0
 15 16  1  0  0  0  0
 15 17  1  0  0  0  0
 15 18  1  0  0  0  0
 18 19  1  0  0  0  0
 18 20  2  0  0  0  0
M  END
> <VConfSearch Rank>
65

> <Conf_Id>
58

> <Delta U+W>
0.019

> <U+W>
-51.727

> <U>
8.963

> <W>
-60.690

> <W(PB)>
-62.934

> <W(SA)>
2.244

> <Valence>
9.327

> <Coulomb>
-0.780

> <VdW>
0.417

> <VdW6>
-6.635

> <VdW12>
7.052

> <Bond>
0.105

> <Angle>
2.399

> <Pdih>
6.822

> <Idih>
0.000

> <Tether>
0.000

$$$$
VeraChem MOL file


 20 19  0  0  0  0  0  0  0  0999 V2000     
   22.3135   18.7873   24.4759 C   0  0  0  0  0  0  0  0  0  0  0  0
   22.5798   17.8024   24.0956 H   0  0  0  0  0  0  0  0  0  0  0  0
   22.5915   19.0198   25.5025 H   0  0  0  0  0  0  0  0  0  0  0  0
   21.6686   19.6773   23.7171 C   0  0  0  0  0  0  0  0  0  0  0  0
   21.4104   20.6574   24.1174 H   0  0  0  0  0  0  0  0  0  0  0  0
   21.2513   19.4262   22.2852 C   0  0  0  0  0  0  0  0  0  0  0  0
   21.7651   18.5397   21.8892 H   0  0  0  0  0  0  0  0  0  0  0  0
   21.5575   20.2751   21.6591 H   0  0  0  0  0  0  0  0  0  0  0  0
   19.7250   19.2277   22.1763 C   0  0  0  0  0  0  0  0  0  0  0  0
   19.4219   18.3809   22.8075 H   0  0  0  0  0  0  0  0  0  0  0  0
   19.2135   20.1166   22.5708 H   0  0  0  0  0  0  0  0  0  0  0  0
   19.2811   18.9729   20.7181 C   0  0  0  0  0  0  0  0  0  0  0  0
   19.8089   18.0924   20.3274 H   0  0  0  0  0  0  0  0  0  0  0  0
   19.5733   19.8231   20.0860 H   0  0  0  0  0  0  0  0  0  0  0  0
   17.7530   18.7405   20.5919 C   0  0  0  0  0  0  0  0  0  0  0  0
   17.5104   18.4487   19.5634 H   0  0  0  0  0  0  0  0  0  0  0  0
   17.4410   17.9119   21.2391 H   0  0  0  0  0  0  0  0  0  0  0  0
   16.9094   19.9666   20.9295 C   0  0  0  0  0  0  0  0  0  0  0  0
   16.8511   20.8638   20.1118 O   0  5  0  0  0  0  0  0  0  0  0  0
   16.3246   19.9878   21.9946 O   0  0  0  0  0  0  0  0  0  0  0  0
  1  2  1  0  0  0  0
  1  3  1  0  0  0  0
  1  4  2  0  0  0  0
  4  5  1  0  0  0  0
  4  6  1  0  0  0  0
  6  7  1  0  0  0  0
  6  8  1  0  0  0  0
  6  9  1  0  0  0  0
  9 10  1  0  0  0  0
  9 11  1  0  0  0  0
  9 12  1  0  0  0  0
 12 13  1  0  0  0  0
 12 14  1  0  0  0  0
 12 15  1  0  0  0  0
 15 16  1  0  0  0  0
 15 17  1  0  0  0  0
 15 18  1  0  0  0  0
 18 19  1  0  0  0  0
 18 20  2  0  0  0  0
M  END
> <VConfSearch Rank>
66

> <Conf_Id>
54

> <Delta U+W>
-0.048

> <U+W>
-51.793

> <U>
8.964

> <W>
-60.756

> <W(PB)>
-63.007

> <W(SA)>
2.251

> <Valence>
9.327

> <Coulomb>
-0.780

> <VdW>
0.417

> <VdW6>
-6.635

> <VdW12>
7.052

> <Bond>
0.105

> <Angle>
2.399

> <Pdih>
6.822

> <Idih>
0.000

> <Tether>
0.000

$$$$
VeraChem MOL file


 20 19  0  0  0  0  0  0  0  0999 V2000     
   17.5955   20.0694   19.6130 C   0  0  0  0  0  0  0  0  0  0  0  0
   17.5683   20.9155   18.9284 H   0  0  0  0  0  0  0  0  0  0  0  0
   17.2401   19.1106   19.2391 H   0  0  0  0  0  0  0  0  0  0  0  0
   18.0507   20.2059   20.8611 C   0  0  0  0  0  0  0  0  0  0  0  0
   18.3985   21.1755   21.2162 H   0  0  0  0  0  0  0  0  0  0  0  0
   18.1115   19.0779   21.8690 C   0  0  0  0  0  0  0  0  0  0  0  0
   17.4290   18.2728   21.5648 H   0  0  0  0  0  0  0  0  0  0  0  0
   17.7553   19.4295   22.8465 H   0  0  0  0  0  0  0  0  0  0  0  0
   19.5344   18.4921   22.0125 C   0  0  0  0  0  0  0  0  0  0  0  0
   19.4832   17.5967   22.6472 H   0  0  0  0  0  0  0  0  0  0  0  0
   19.8929   18.1581   21.0291 H   0  0  0  0  0  0  0  0  0  0  0  0
   20.5400   19.4967   22.6236 C   0  0  0  0  0  0  0  0  0  0  0  0
   20.1745   19.8420   23.6007 H   0  0  0  0  0  0  0  0  0  0  0  0
   20.6091   20.3836   21.9802 H   0  0  0  0  0  0  0  0  0  0  0  0
   21.9586   18.8925   22.7902 C   0  0  0  0  0  0  0  0  0  0  0  0
   22.3237   18.5125   21.8283 H   0  0  0  0  0  0  0  0  0  0  0  0
   22.6559   19.6771   23.1068 H   0  0  0  0  0  0  0  0  0  0  0  0
   22.0382   17.7692   23.8201 C   0  0  0  0  0  0  0  0  0  0  0  0
   22.1262   16.6253   23.4191 O   0  5  0  0  0  0  0  0  0  0  0  0
   22.0207   18.0699   24.9975 O   0  0  0  0  0  0  0  0  0  0  0  0
  1  2  1  0  0  0  0
  1  3  1  0  0  0  0
  1  4  2  0  0  0  0
  4  5  1  0  0  0  0
  4  6  1  0  0  0  0
  6  7  1  0  0  0  0
  6  8  1  0  0  0  0
  6  9  1  0  0  0  0
  9 10  1  0  0  0  0
  9 11  1  0  0  0  0
  9 12  1  0  0  0  0
 12 13  1  0  0  0  0
 12 14  1  0  0  0  0
 12 15  1  0  0  0  0
 15 16  1  0  0  0  0
 15 17  1  0  0  0  0
 15 18  1  0  0  0  0
 18 19  1  0  0  0  0
 18 20  2  0  0  0  0
M  END
> <VConfSearch Rank>
67

> <Conf_Id>
27

> <Delta U+W>
0.478

> <U+W>
-51.267

> <U>
9.192

> <W>
-60.459

> <W(PB)>
-62.649

> <W(SA)>
2.190

> <Valence>
9.572

> <Coulomb>
-0.884

> <VdW>
0.504

> <VdW6>
-7.168

> <VdW12>
7.672

> <Bond>
0.127

> <Angle>
2.504

> <Pdih>
6.941

> <Idih>
0.001

> <Tether>
0.000

$$$$
VeraChem MOL file


 20 19  0  0  0  0  0  0  0  0999 V2000     
   19.0604   17.1499   19.0847 C   0  0  0  0  0  0  0  0  0  0  0  0
   17.9779   17.0917   18.9833 H   0  0  0  0  0  0  0  0  0  0  0  0
   19.6490   16.3480   18.6423 H   0  0  0  0  0  0  0  0  0  0  0  0
   19.6472   18.1621   19.7287 C   0  0  0  0  0  0  0  0  0  0  0  0
   20.7325   18.2025   19.8159 H   0  0  0  0  0  0  0  0  0  0  0  0
   18.8951   19.3132   20.3621 C   0  0  0  0  0  0  0  0  0  0  0  0
   17.8874   19.3796   19.9300 H   0  0  0  0  0  0  0  0  0  0  0  0
   19.3943   20.2622   20.1245 H   0  0  0  0  0  0  0  0  0  0  0  0
   18.7676   19.1603   21.8946 C   0  0  0  0  0  0  0  0  0  0  0  0
   18.1044   19.9492   22.2747 H   0  0  0  0  0  0  0  0  0  0  0  0
   18.2819   18.2023   22.1264 H   0  0  0  0  0  0  0  0  0  0  0  0
   20.1287   19.2473   22.6226 C   0  0  0  0  0  0  0  0  0  0  0  0
   20.6247   20.1944   22.3692 H   0  0  0  0  0  0  0  0  0  0  0  0
   20.7894   18.4391   22.2805 H   0  0  0  0  0  0  0  0  0  0  0  0
   19.9661   19.1503   24.1596 C   0  0  0  0  0  0  0  0  0  0  0  0
   19.3222   19.9594   24.5246 H   0  0  0  0  0  0  0  0  0  0  0  0
   19.4827   18.2038   24.4299 H   0  0  0  0  0  0  0  0  0  0  0  0
   21.2954   19.2322   24.9015 C   0  0  0  0  0  0  0  0  0  0  0  0
   21.8933   18.1978   25.1235 O   0  5  0  0  0  0  0  0  0  0  0  0
   21.7064   20.3298   25.2223 O   0  0  0  0  0  0  0  0  0  0  0  0
  1  2  1  0  0  0  0
  1  3  1  0  0  0  0
  1  4  2  0  0  0  0
  4  5  1  0  0  0  0
  4  6  1  0  0  0  0
  6  7  1  0  0  0  0
  6  8  1  0  0  0  0
  6  9  1  0  0  0  0
  9 10  1  0  0  0  0
  9 11  1  0  0  0  0
  9 12  1  0  0  0  0
 12 13  1  0  0  0  0
 12 14  1  0  0  0  0
 12 15  1  0  0  0  0
 15 16  1  0  0  0  0
 15 17  1  0  0  0  0
 15 18  1  0  0  0  0
 18 19  1  0  0  0  0
 18 20  2  0  0  0  0
M  END
> <VConfSearch Rank>
68

> <Conf_Id>
41

> <Delta U+W>
-0.634

> <U+W>
-52.379

> <U>
7.828

> <W>
-60.207

> <W(PB)>
-62.449

> <W(SA)>
2.242

> <Valence>
9.300

> <Coulomb>
-2.080

> <VdW>
0.608

> <VdW6>
-6.341

> <VdW12>
6.949

> <Bond>
0.103

> <Angle>
2.334

> <Pdih>
6.862

> <Idih>
0.001

> <Tether>
0.000

$$$$
VeraChem MOL file


 20 19  0  0  0  0  0  0  0  0999 V2000     
   17.0429   17.0147   22.1939 C   0  0  0  0  0  0  0  0  0  0  0  0
   15.9548   17.0258   22.1599 H   0  0  0  0  0  0  0  0  0  0  0  0
   17.5416   16.0726   21.9721 H   0  0  0  0  0  0  0  0  0  0  0  0
   17.7352   18.1167   22.4942 C   0  0  0  0  0  0  0  0  0  0  0  0
   17.2172   19.0502   22.7126 H   0  0  0  0  0  0  0  0  0  0  0  0
   19.2450   18.1777   22.5617 C   0  0  0  0  0  0  0  0  0  0  0  0
   19.6659   17.1634   22.5861 H   0  0  0  0  0  0  0  0  0  0  0  0
   19.5434   18.6698   23.4964 H   0  0  0  0  0  0  0  0  0  0  0  0
   19.8236   18.9478   21.3537 C   0  0  0  0  0  0  0  0  0  0  0  0
   19.4332   18.5014   20.4287 H   0  0  0  0  0  0  0  0  0  0  0  0
   19.4618   19.9851   21.3719 H   0  0  0  0  0  0  0  0  0  0  0  0
   21.3710   18.9322   21.2935 C   0  0  0  0  0  0  0  0  0  0  0  0
   21.6939   19.4316   20.3695 H   0  0  0  0  0  0  0  0  0  0  0  0
   21.7196   17.8933   21.2194 H   0  0  0  0  0  0  0  0  0  0  0  0
   22.0676   19.6182   22.5004 C   0  0  0  0  0  0  0  0  0  0  0  0
   21.8262   19.0976   23.4340 H   0  0  0  0  0  0  0  0  0  0  0  0
   23.1549   19.5488   22.3791 H   0  0  0  0  0  0  0  0  0  0  0  0
   21.7224   21.0959   22.6614 C   0  0  0  0  0  0  0  0  0  0  0  0
   22.1859   21.8827   21.8592 O   0  5  0  0  0  0  0  0  0  0  0  0
   21.0151   21.4239   23.5936 O   0  0  0  0  0  0  0  0  0  0  0  0
  1  2  1  0  0  0  0
  1  3  1  0  0  0  0
  1  4  2  0  0  0  0
  4  5  1  0  0  0  0
  4  6  1  0  0  0  0
  6  7  1  0  0  0  0
  6  8  1  0  0  0  0
  6  9  1  0  0  0  0
  9 10  1  0  0  0  0
  9 11  1  0  0  0  0
  9 12  1  0  0  0  0
 12 13  1  0  0  0  0
 12 14  1  0  0  0  0
 12 15  1  0  0  0  0
 15 16  1  0  0  0  0
 15 17  1  0  0  0  0
 15 18  1  0  0  0  0
 18 19  1  0  0  0  0
 18 20  2  0  0  0  0
M  END
> <VConfSearch Rank>
69

> <Conf_Id>
84

> <Delta U+W>
0.942

> <U+W>
-50.803

> <U>
10.196

> <W>
-60.999

> <W(PB)>
-63.182

> <W(SA)>
2.182

> <Valence>
9.837

> <Coulomb>
0.032

> <VdW>
0.328

> <VdW6>
-7.642

> <VdW12>
7.969

> <Bond>
0.151

> <Angle>
2.748

> <Pdih>
6.937

> <Idih>
0.001

> <Tether>
0.000

$$$$
VeraChem MOL file


 20 19  0  0  0  0  0  0  0  0999 V2000     
   20.0359   21.5378   24.6445 C   0  0  0  0  0  0  0  0  0  0  0  0
   19.5311   22.1680   25.3747 H   0  0  0  0  0  0  0  0  0  0  0  0
   20.8778   20.9421   24.9938 H   0  0  0  0  0  0  0  0  0  0  0  0
   19.6335   21.4979   23.3717 C   0  0  0  0  0  0  0  0  0  0  0  0
   18.7878   22.1014   23.0426 H   0  0  0  0  0  0  0  0  0  0  0  0
   20.2849   20.6489   22.3028 C   0  0  0  0  0  0  0  0  0  0  0  0
   21.2617   20.2847   22.6492 H   0  0  0  0  0  0  0  0  0  0  0  0
   20.4739   21.2620   21.4115 H   0  0  0  0  0  0  0  0  0  0  0  0
   19.3934   19.4472   21.9253 C   0  0  0  0  0  0  0  0  0  0  0  0
   19.2031   18.8420   22.8226 H   0  0  0  0  0  0  0  0  0  0  0  0
   18.4177   19.8108   21.5749 H   0  0  0  0  0  0  0  0  0  0  0  0
   20.0436   18.5709   20.8310 C   0  0  0  0  0  0  0  0  0  0  0  0
   21.0138   18.1939   21.1837 H   0  0  0  0  0  0  0  0  0  0  0  0
   20.2474   19.1885   19.9458 H   0  0  0  0  0  0  0  0  0  0  0  0
   19.1485   17.3749   20.4147 C   0  0  0  0  0  0  0  0  0  0  0  0
   18.1658   17.7336   20.0854 H   0  0  0  0  0  0  0  0  0  0  0  0
   19.6009   16.8587   19.5598 H   0  0  0  0  0  0  0  0  0  0  0  0
   18.9449   16.3394   21.5171 C   0  0  0  0  0  0  0  0  0  0  0  0
   17.8721   16.3089   22.0874 O   0  5  0  0  0  0  0  0  0  0  0  0
   19.8616   15.5817   21.7670 O   0  0  0  0  0  0  0  0  0  0  0  0
  1  2  1  0  0  0  0
  1  3  1  0  0  0  0
  1  4  2  0  0  0  0
  4  5  1  0  0  0  0
  4  6  1  0  0  0  0
  6  7  1  0  0  0  0
  6  8  1  0  0  0  0
  6  9  1  0  0  0  0
  9 10  1  0  0  0  0
  9 11  1  0  0  0  0
  9 12  1  0  0  0  0
 12 13  1  0  0  0  0
 12 14  1  0  0  0  0
 12 15  1  0  0  0  0
 15 16  1  0  0  0  0
 15 17  1  0  0  0  0
 15 18  1  0  0  0  0
 18 19  1  0  0  0  0
 18 20  2  0  0  0  0
M  END
> <VConfSearch Rank>
70

> <Conf_Id>
81

> <Delta U+W>
-0.051

> <U+W>
-51.796

> <U>
9.412

> <W>
-61.209

> <W(PB)>
-63.452

> <W(SA)>
2.243

> <Valence>
9.329

> <Coulomb>
-0.323

> <VdW>
0.406

> <VdW6>
-6.640

> <VdW12>
7.046

> <Bond>
0.105

> <Angle>
2.401

> <Pdih>
6.823

> <Idih>
0.000

> <Tether>
0.000

$$$$
VeraChem MOL file


 20 19  0  0  0  0  0  0  0  0999 V2000     
   19.2444   22.2896   22.3070 C   0  0  0  0  0  0  0  0  0  0  0  0
   18.2298   22.4615   22.6627 H   0  0  0  0  0  0  0  0  0  0  0  0
   19.9462   23.1192   22.3738 H   0  0  0  0  0  0  0  0  0  0  0  0
   19.6183   21.1076   21.8102 C   0  0  0  0  0  0  0  0  0  0  0  0
   20.6382   20.9571   21.4574 H   0  0  0  0  0  0  0  0  0  0  0  0
   18.6983   19.9124   21.6813 C   0  0  0  0  0  0  0  0  0  0  0  0
   18.8239   19.4449   20.6962 H   0  0  0  0  0  0  0  0  0  0  0  0
   17.6522   20.2443   21.7236 H   0  0  0  0  0  0  0  0  0  0  0  0
   18.9272   18.8670   22.7991 C   0  0  0  0  0  0  0  0  0  0  0  0
   18.7114   19.3341   23.7697 H   0  0  0  0  0  0  0  0  0  0  0  0
   18.1956   18.0556   22.6827 H   0  0  0  0  0  0  0  0  0  0  0  0
   20.3555   18.2652   22.8412 C   0  0  0  0  0  0  0  0  0  0  0  0
   20.4157   17.5607   23.6822 H   0  0  0  0  0  0  0  0  0  0  0  0
   21.0816   19.0597   23.0585 H   0  0  0  0  0  0  0  0  0  0  0  0
   20.7806   17.5273   21.5424 C   0  0  0  0  0  0  0  0  0  0  0  0
   20.8047   18.2210   20.6943 H   0  0  0  0  0  0  0  0  0  0  0  0
   21.8014   17.1452   21.6595 H   0  0  0  0  0  0  0  0  0  0  0  0
   19.8906   16.3421   21.1797 C   0  0  0  0  0  0  0  0  0  0  0  0
   19.1491   16.4497   20.2227 O   0  5  0  0  0  0  0  0  0  0  0  0
   19.9755   15.3348   21.8547 O   0  0  0  0  0  0  0  0  0  0  0  0
  1  2  1  0  0  0  0
  1  3  1  0  0  0  0
  1  4  2  0  0  0  0
  4  5  1  0  0  0  0
  4  6  1  0  0  0  0
  6  7  1  0  0  0  0
  6  8  1  0  0  0  0
  6  9  1  0  0  0  0
  9 10  1  0  0  0  0
  9 11  1  0  0  0  0
  9 12  1  0  0  0  0
 12 13  1  0  0  0  0
 12 14  1  0  0  0  0
 12 15  1  0  0  0  0
 15 16  1  0  0  0  0
 15 17  1  0  0  0  0
 15 18  1  0  0  0  0
 18 19  1  0  0  0  0
 18 20  2  0  0  0  0
M  END
> <VConfSearch Rank>
71

> <Conf_Id>
86

> <Delta U+W>
1.248

> <U+W>
-50.498

> <U>
10.404

> <W>
-60.901

> <W(PB)>
-63.061

> <W(SA)>
2.159

> <Valence>
10.021

> <Coulomb>
0.094

> <VdW>
0.289

> <VdW6>
-8.409

> <VdW12>
8.698

> <Bond>
0.179

> <Angle>
2.939

> <Pdih>
6.902

> <Idih>
0.001

> <Tether>
0.000

$$$$
VeraChem MOL file


 20 19  0  0  0  0  0  0  0  0999 V2000     
   18.7826   21.2755   23.9682 C   0  0  0  0  0  0  0  0  0  0  0  0
   18.8628   22.3540   24.0929 H   0  0  0  0  0  0  0  0  0  0  0  0
   17.7833   20.8556   23.8661 H   0  0  0  0  0  0  0  0  0  0  0  0
   19.8706   20.5013   23.9384 C   0  0  0  0  0  0  0  0  0  0  0  0
   20.8621   20.9418   24.0402 H   0  0  0  0  0  0  0  0  0  0  0  0
   19.8386   18.9973   23.7683 C   0  0  0  0  0  0  0  0  0  0  0  0
   18.8136   18.6173   23.8764 H   0  0  0  0  0  0  0  0  0  0  0  0
   20.4270   18.5331   24.5708 H   0  0  0  0  0  0  0  0  0  0  0  0
   20.4135   18.5487   22.4058 C   0  0  0  0  0  0  0  0  0  0  0  0
   21.4373   18.9316   22.2952 H   0  0  0  0  0  0  0  0  0  0  0  0
   20.4869   17.4525   22.3980 H   0  0  0  0  0  0  0  0  0  0  0  0
   19.5481   19.0135   21.2105 C   0  0  0  0  0  0  0  0  0  0  0  0
   19.4795   20.1096   21.2132 H   0  0  0  0  0  0  0  0  0  0  0  0
   18.5233   18.6336   21.3235 H   0  0  0  0  0  0  0  0  0  0  0  0
   20.1203   18.5525   19.8449 C   0  0  0  0  0  0  0  0  0  0  0  0
   19.5422   19.0090   19.0328 H   0  0  0  0  0  0  0  0  0  0  0  0
   21.1549   18.8982   19.7316 H   0  0  0  0  0  0  0  0  0  0  0  0
   20.0857   17.0413   19.6358 C   0  0  0  0  0  0  0  0  0  0  0  0
   19.0192   16.5250   19.3648 O   0  5  0  0  0  0  0  0  0  0  0  0
   21.1263   16.4217   19.7378 O   0  0  0  0  0  0  0  0  0  0  0  0
  1  2  1  0  0  0  0
  1  3  1  0  0  0  0
  1  4  2  0  0  0  0
  4  5  1  0  0  0  0
  4  6  1  0  0  0  0
  6  7  1  0  0  0  0
  6  8  1  0  0  0  0
  6  9  1  0  0  0  0
  9 10  1  0  0  0  0
  9 11  1  0  0  0  0
  9 12  1  0  0  0  0
 12 13  1  0  0  0  0
 12 14  1  0  0  0  0
 12 15  1  0  0  0  0
 15 16  1  0  0  0  0
 15 17  1  0  0  0  0
 15 18  1  0  0  0  0
 18 19  1  0  0  0  0
 18 20  2  0  0  0  0
M  END
> <VConfSearch Rank>
72

> <Conf_Id>
28

> <Delta U+W>
0.446

> <U+W>
-51.299

> <U>
9.295

> <W>
-60.594

> <W(PB)>
-62.806

> <W(SA)>
2.212

> <Valence>
9.495

> <Coulomb>
-0.610

> <VdW>
0.409

> <VdW6>
-7.332

> <VdW12>
7.741

> <Bond>
0.126

> <Angle>
2.497

> <Pdih>
6.872

> <Idih>
0.000

> <Tether>
0.000

$$$$
VeraChem MOL file


 20 19  0  0  0  0  0  0  0  0999 V2000     
   16.8544   20.1556   22.6906 C   0  0  0  0  0  0  0  0  0  0  0  0
   17.4699   20.5560   23.4933 H   0  0  0  0  0  0  0  0  0  0  0  0
   15.8198   20.4917   22.6504 H   0  0  0  0  0  0  0  0  0  0  0  0
   17.3284   19.2934   21.7840 C   0  0  0  0  0  0  0  0  0  0  0  0
   16.6636   18.9289   21.0012 H   0  0  0  0  0  0  0  0  0  0  0  0
   18.7400   18.7351   21.7114 C   0  0  0  0  0  0  0  0  0  0  0  0
   19.1872   19.0474   20.7589 H   0  0  0  0  0  0  0  0  0  0  0  0
   18.6824   17.6393   21.6703 H   0  0  0  0  0  0  0  0  0  0  0  0
   19.6664   19.1471   22.8820 C   0  0  0  0  0  0  0  0  0  0  0  0
   19.8029   20.2373   22.8787 H   0  0  0  0  0  0  0  0  0  0  0  0
   19.1763   18.8943   23.8321 H   0  0  0  0  0  0  0  0  0  0  0  0
   21.0490   18.4495   22.8504 C   0  0  0  0  0  0  0  0  0  0  0  0
   20.9068   17.3617   22.9046 H   0  0  0  0  0  0  0  0  0  0  0  0
   21.6073   18.7315   23.7538 H   0  0  0  0  0  0  0  0  0  0  0  0
   21.9137   18.7884   21.6054 C   0  0  0  0  0  0  0  0  0  0  0  0
   22.8631   18.2437   21.6644 H   0  0  0  0  0  0  0  0  0  0  0  0
   21.4199   18.4511   20.6871 H   0  0  0  0  0  0  0  0  0  0  0  0
   22.2500   20.2702   21.4640 C   0  0  0  0  0  0  0  0  0  0  0  0
   23.0344   20.7573   22.2545 O   0  5  0  0  0  0  0  0  0  0  0  0
   21.7362   20.8933   20.5558 O   0  0  0  0  0  0  0  0  0  0  0  0
  1  2  1  0  0  0  0
  1  3  1  0  0  0  0
  1  4  2  0  0  0  0
  4  5  1  0  0  0  0
  4  6  1  0  0  0  0
  6  7  1  0  0  0  0
  6  8  1  0  0  0  0
  6  9  1  0  0  0  0
  9 10  1  0  0  0  0
  9 11  1  0  0  0  0
  9 12  1  0  0  0  0
 12 13  1  0  0  0  0
 12 14  1  0  0  0  0
 12 15  1  0  0  0  0
 15 16  1  0  0  0  0
 15 17  1  0  0  0  0
 15 18  1  0  0  0  0
 18 19  1  0  0  0  0
 18 20  2  0  0  0  0
M  END
> <VConfSearch Rank>
73

> <Conf_Id>
53

> <Delta U+W>
0.549

> <U+W>
-51.197

> <U>
10.870

> <W>
-62.067

> <W(PB)>
-64.228

> <W(SA)>
2.161

> <Valence>
8.803

> <Coulomb>
1.020

> <VdW>
1.048

> <VdW6>
-8.312

> <VdW12>
9.360

> <Bond>
0.212

> <Angle>
3.379

> <Pdih>
5.211

> <Idih>
0.001

> <Tether>
0.000

$$$$
VeraChem MOL file


 20 19  0  0  0  0  0  0  0  0999 V2000     
   19.7825   21.2829   20.6159 C   0  0  0  0  0  0  0  0  0  0  0  0
   19.7642   21.6681   21.6330 H   0  0  0  0  0  0  0  0  0  0  0  0
   19.3533   21.9148   19.8404 H   0  0  0  0  0  0  0  0  0  0  0  0
   20.3106   20.0916   20.3150 C   0  0  0  0  0  0  0  0  0  0  0  0
   20.3061   19.7540   19.2790 H   0  0  0  0  0  0  0  0  0  0  0  0
   20.9347   19.1090   21.2921 C   0  0  0  0  0  0  0  0  0  0  0  0
   22.0261   19.2233   21.2573 H   0  0  0  0  0  0  0  0  0  0  0  0
   20.7498   18.0868   20.9377 H   0  0  0  0  0  0  0  0  0  0  0  0
   20.4571   19.2212   22.7635 C   0  0  0  0  0  0  0  0  0  0  0  0
   21.0337   18.5122   23.3731 H   0  0  0  0  0  0  0  0  0  0  0  0
   20.7075   20.2164   23.1536 H   0  0  0  0  0  0  0  0  0  0  0  0
   18.9443   18.9522   22.9782 C   0  0  0  0  0  0  0  0  0  0  0  0
   18.3551   19.7000   22.4323 H   0  0  0  0  0  0  0  0  0  0  0  0
   18.7091   19.0964   24.0416 H   0  0  0  0  0  0  0  0  0  0  0  0
   18.4756   17.5336   22.5535 C   0  0  0  0  0  0  0  0  0  0  0  0
   17.3990   17.4378   22.7364 H   0  0  0  0  0  0  0  0  0  0  0  0
   18.6209   17.3855   21.4774 H   0  0  0  0  0  0  0  0  0  0  0  0
   19.1664   16.3976   23.3023 C   0  0  0  0  0  0  0  0  0  0  0  0
   19.9713   15.7153   22.6993 O   0  5  0  0  0  0  0  0  0  0  0  0
   18.8672   16.2138   24.4660 O   0  0  0  0  0  0  0  0  0  0  0  0
  1  2  1  0  0  0  0
  1  3  1  0  0  0  0
  1  4  2  0  0  0  0
  4  5  1  0  0  0  0
  4  6  1  0  0  0  0
  6  7  1  0  0  0  0
  6  8  1  0  0  0  0
  6  9  1  0  0  0  0
  9 10  1  0  0  0  0
  9 11  1  0  0  0  0
  9 12  1  0  0  0  0
 12 13  1  0  0  0  0
 12 14  1  0  0  0  0
 12 15  1  0  0  0  0
 15 16  1  0  0  0  0
 15 17  1  0  0  0  0
 15 18  1  0  0  0  0
 18 19  1  0  0  0  0
 18 20  2  0  0  0  0
M  END
> <VConfSearch Rank>
74

> <Conf_Id>
66

> <Delta U+W>
1.737

> <U+W>
-50.008

> <U>
11.091

> <W>
-61.099

> <W(PB)>
-63.213

> <W(SA)>
2.114

> <Valence>
9.664

> <Coulomb>
0.658

> <VdW>
0.769

> <VdW6>
-9.171

> <VdW12>
9.940

> <Bond>
0.244

> <Angle>
3.658

> <Pdih>
5.762

> <Idih>
0.001

> <Tether>
0.000

$$$$
VeraChem MOL file


 20 19  0  0  0  0  0  0  0  0999 V2000     
   17.1358   19.1220   20.7738 C   0  0  0  0  0  0  0  0  0  0  0  0
   16.8734   19.2959   21.8150 H   0  0  0  0  0  0  0  0  0  0  0  0
   16.5372   19.6332   20.0219 H   0  0  0  0  0  0  0  0  0  0  0  0
   18.1412   18.3154   20.4168 C   0  0  0  0  0  0  0  0  0  0  0  0
   18.3592   18.1751   19.3584 H   0  0  0  0  0  0  0  0  0  0  0  0
   19.0594   17.5459   21.3524 C   0  0  0  0  0  0  0  0  0  0  0  0
   20.0607   17.4973   20.9066 H   0  0  0  0  0  0  0  0  0  0  0  0
   18.7207   16.5024   21.3952 H   0  0  0  0  0  0  0  0  0  0  0  0
   19.1773   18.1017   22.7958 C   0  0  0  0  0  0  0  0  0  0  0  0
   18.1868   18.0991   23.2695 H   0  0  0  0  0  0  0  0  0  0  0  0
   19.7911   17.4108   23.3897 H   0  0  0  0  0  0  0  0  0  0  0  0
   19.7912   19.5215   22.8953 C   0  0  0  0  0  0  0  0  0  0  0  0
   19.7486   19.8482   23.9435 H   0  0  0  0  0  0  0  0  0  0  0  0
   19.1850   20.2382   22.3256 H   0  0  0  0  0  0  0  0  0  0  0  0
   21.2626   19.5959   22.4114 C   0  0  0  0  0  0  0  0  0  0  0  0
   21.8724   18.8504   22.9354 H   0  0  0  0  0  0  0  0  0  0  0  0
   21.3266   19.3759   21.3398 H   0  0  0  0  0  0  0  0  0  0  0  0
   21.8907   20.9658   22.6424 C   0  0  0  0  0  0  0  0  0  0  0  0
   21.8158   21.7902   21.7528 O   0  5  0  0  0  0  0  0  0  0  0  0
   22.4265   21.1775   23.7124 O   0  0  0  0  0  0  0  0  0  0  0  0
  1  2  1  0  0  0  0
  1  3  1  0  0  0  0
  1  4  2  0  0  0  0
  4  5  1  0  0  0  0
  4  6  1  0  0  0  0
  6  7  1  0  0  0  0
  6  8  1  0  0  0  0
  6  9  1  0  0  0  0
  9 10  1  0  0  0  0
  9 11  1  0  0  0  0
  9 12  1  0  0  0  0
 12 13  1  0  0  0  0
 12 14  1  0  0  0  0
 12 15  1  0  0  0  0
 15 16  1  0  0  0  0
 15 17  1  0  0  0  0
 15 18  1  0  0  0  0
 18 19  1  0  0  0  0
 18 20  2  0  0  0  0
M  END
> <VConfSearch Rank>
75

> <Conf_Id>
64

> <Delta U+W>
0.366

> <U+W>
-51.379

> <U>
10.000

> <W>
-61.379

> <W(PB)>
-63.541

> <W(SA)>
2.162

> <Valence>
9.398

> <Coulomb>
-0.504

> <VdW>
1.105

> <VdW6>
-7.975

> <VdW12>
9.080

> <Bond>
0.216

> <Angle>
3.417

> <Pdih>
5.765

> <Idih>
0.001

> <Tether>
0.000

$$$$
VeraChem MOL file


 20 19  0  0  0  0  0  0  0  0999 V2000     
   22.4738   20.5121   21.3464 C   0  0  0  0  0  0  0  0  0  0  0  0
   21.9877   20.8796   20.4442 H   0  0  0  0  0  0  0  0  0  0  0  0
   23.5149   20.2044   21.2649 H   0  0  0  0  0  0  0  0  0  0  0  0
   21.8206   20.4361   22.5089 C   0  0  0  0  0  0  0  0  0  0  0  0
   22.3249   20.0629   23.3998 H   0  0  0  0  0  0  0  0  0  0  0  0
   20.3750   20.8439   22.6992 C   0  0  0  0  0  0  0  0  0  0  0  0
   20.0088   21.3912   21.8201 H   0  0  0  0  0  0  0  0  0  0  0  0
   20.3069   21.5386   23.5469 H   0  0  0  0  0  0  0  0  0  0  0  0
   19.4557   19.6322   22.9725 C   0  0  0  0  0  0  0  0  0  0  0  0
   19.8225   19.0845   23.8514 H   0  0  0  0  0  0  0  0  0  0  0  0
   18.4518   19.9990   23.2268 H   0  0  0  0  0  0  0  0  0  0  0  0
   19.3555   18.6748   21.7630 C   0  0  0  0  0  0  0  0  0  0  0  0
   20.3504   18.2798   21.5152 H   0  0  0  0  0  0  0  0  0  0  0  0
   19.0048   19.2284   20.8810 H   0  0  0  0  0  0  0  0  0  0  0  0
   18.3946   17.4929   22.0415 C   0  0  0  0  0  0  0  0  0  0  0  0
   18.7389   16.9227   22.9127 H   0  0  0  0  0  0  0  0  0  0  0  0
   17.3907   17.8674   22.2748 H   0  0  0  0  0  0  0  0  0  0  0  0
   18.2792   16.5334   20.8624 C   0  0  0  0  0  0  0  0  0  0  0  0
   17.4380   16.7636   20.0161 O   0  5  0  0  0  0  0  0  0  0  0  0
   19.0425   15.5892   20.8140 O   0  0  0  0  0  0  0  0  0  0  0  0
  1  2  1  0  0  0  0
  1  3  1  0  0  0  0
  1  4  2  0  0  0  0
  4  5  1  0  0  0  0
  4  6  1  0  0  0  0
  6  7  1  0  0  0  0
  6  8  1  0  0  0  0
  6  9  1  0  0  0  0
  9 10  1  0  0  0  0
  9 11  1  0  0  0  0
  9 12  1  0  0  0  0
 12 13  1  0  0  0  0
 12 14  1  0  0  0  0
 12 15  1  0  0  0  0
 15 16  1  0  0  0  0
 15 17  1  0  0  0  0
 15 18  1  0  0  0  0
 18 19  1  0  0  0  0
 18 20  2  0  0  0  0
M  END
> <VConfSearch Rank>
76

> <Conf_Id>
42

> <Delta U+W>
-0.601

> <U+W>
-52.347

> <U>
8.428

> <W>
-60.774

> <W(PB)>
-62.982

> <W(SA)>
2.208

> <Valence>
9.231

> <Coulomb>
-1.304

> <VdW>
0.501

> <VdW6>
-6.515

> <VdW12>
7.016

> <Bond>
0.103

> <Angle>
2.328

> <Pdih>
6.799

> <Idih>
0.000

> <Tether>
0.000

$$$$
VeraChem MOL file


 20 19  0  0  0  0  0  0  0  0999 V2000     
   20.6846   21.4575   23.8442 C   0  0  0  0  0  0  0  0  0  0  0  0
   21.7239   21.1393   23.7811 H   0  0  0  0  0  0  0  0  0  0  0  0
   20.3371   21.8479   24.7991 H   0  0  0  0  0  0  0  0  0  0  0  0
   19.8636   21.3703   22.7943 C   0  0  0  0  0  0  0  0  0  0  0  0
   18.8259   21.6917   22.8792 H   0  0  0  0  0  0  0  0  0  0  0  0
   20.2733   20.8379   21.4376 C   0  0  0  0  0  0  0  0  0  0  0  0
   21.3643   20.7233   21.3804 H   0  0  0  0  0  0  0  0  0  0  0  0
   19.9981   21.5700   20.6667 H   0  0  0  0  0  0  0  0  0  0  0  0
   19.5945   19.4893   21.1086 C   0  0  0  0  0  0  0  0  0  0  0  0
   18.5033   19.6079   21.1597 H   0  0  0  0  0  0  0  0  0  0  0  0
   19.8311   19.2158   20.0713 H   0  0  0  0  0  0  0  0  0  0  0  0
   20.0461   18.3484   22.0509 C   0  0  0  0  0  0  0  0  0  0  0  0
   19.7775   18.5901   23.0886 H   0  0  0  0  0  0  0  0  0  0  0  0
   21.1408   18.2656   22.0199 H   0  0  0  0  0  0  0  0  0  0  0  0
   19.4257   16.9794   21.6690 C   0  0  0  0  0  0  0  0  0  0  0  0
   19.6637   16.7324   20.6274 H   0  0  0  0  0  0  0  0  0  0  0  0
   19.8665   16.1914   22.2909 H   0  0  0  0  0  0  0  0  0  0  0  0
   17.9120   16.9127   21.8513 C   0  0  0  0  0  0  0  0  0  0  0  0
   17.2091   16.9894   20.8629 O   0  5  0  0  0  0  0  0  0  0  0  0
   17.4767   16.7672   22.9767 O   0  0  0  0  0  0  0  0  0  0  0  0
  1  2  1  0  0  0  0
  1  3  1  0  0  0  0
  1  4  2  0  0  0  0
  4  5  1  0  0  0  0
  4  6  1  0  0  0  0
  6  7  1  0  0  0  0
  6  8  1  0  0  0  0
  6  9  1  0  0  0  0
  9 10  1  0  0  0  0
  9 11  1  0  0  0  0
  9 12  1  0  0  0  0
 12 13  1  0  0  0  0
 12 14  1  0  0  0  0
 12 15  1  0  0  0  0
 15 16  1  0  0  0  0
 15 17  1  0  0  0  0
 15 18  1  0  0  0  0
 18 19  1  0  0  0  0
 18 20  2  0  0  0  0
M  END
> <VConfSearch Rank>
77

> <Conf_Id>
68

> <Delta U+W>
0.492

> <U+W>
-51.253

> <U>
10.179

> <W>
-61.432

> <W(PB)>
-63.627

> <W(SA)>
2.195

> <Valence>
9.483

> <Coulomb>
0.361

> <VdW>
0.335

> <VdW6>
-7.385

> <VdW12>
7.720

> <Bond>
0.125

> <Angle>
2.487

> <Pdih>
6.870

> <Idih>
0.001

> <Tether>
0.000

$$$$
VeraChem MOL file


 20 19  0  0  0  0  0  0  0  0999 V2000     
   16.4852   19.1344   22.4218 C   0  0  0  0  0  0  0  0  0  0  0  0
   16.3038   19.8366   23.2340 H   0  0  0  0  0  0  0  0  0  0  0  0
   15.8111   18.2840   22.3346 H   0  0  0  0  0  0  0  0  0  0  0  0
   17.4963   19.3041   21.5659 C   0  0  0  0  0  0  0  0  0  0  0  0
   17.6582   18.5907   20.7585 H   0  0  0  0  0  0  0  0  0  0  0  0
   18.4684   20.4633   21.6217 C   0  0  0  0  0  0  0  0  0  0  0  0
   18.0366   21.2809   22.2146 H   0  0  0  0  0  0  0  0  0  0  0  0
   18.6281   20.8665   20.6128 H   0  0  0  0  0  0  0  0  0  0  0  0
   19.8251   20.0634   22.2444 C   0  0  0  0  0  0  0  0  0  0  0  0
   20.4344   20.9678   22.3768 H   0  0  0  0  0  0  0  0  0  0  0  0
   19.6562   19.6504   23.2487 H   0  0  0  0  0  0  0  0  0  0  0  0
   20.6074   19.0464   21.3799 C   0  0  0  0  0  0  0  0  0  0  0  0
   20.7267   19.4494   20.3652 H   0  0  0  0  0  0  0  0  0  0  0  0
   20.0346   18.1138   21.2851 H   0  0  0  0  0  0  0  0  0  0  0  0
   22.0085   18.7248   21.9615 C   0  0  0  0  0  0  0  0  0  0  0  0
   22.5623   18.0948   21.2556 H   0  0  0  0  0  0  0  0  0  0  0  0
   22.5884   19.6472   22.0863 H   0  0  0  0  0  0  0  0  0  0  0  0
   21.9706   17.9892   23.2980 C   0  0  0  0  0  0  0  0  0  0  0  0
   21.7233   16.7993   23.2895 O   0  5  0  0  0  0  0  0  0  0  0  0
   22.2083   18.6198   24.3094 O   0  0  0  0  0  0  0  0  0  0  0  0
  1  2  1  0  0  0  0
  1  3  1  0  0  0  0
  1  4  2  0  0  0  0
  4  5  1  0  0  0  0
  4  6  1  0  0  0  0
  6  7  1  0  0  0  0
  6  8  1  0  0  0  0
  6  9  1  0  0  0  0
  9 10  1  0  0  0  0
  9 11  1  0  0  0  0
  9 12  1  0  0  0  0
 12 13  1  0  0  0  0
 12 14  1  0  0  0  0
 12 15  1  0  0  0  0
 15 16  1  0  0  0  0
 15 17  1  0  0  0  0
 15 18  1  0  0  0  0
 18 19  1  0  0  0  0
 18 20  2  0  0  0  0
M  END
> <VConfSearch Rank>
78

> <Conf_Id>
87

> <Delta U+W>
0.339

> <U+W>
-51.407

> <U>
10.461

> <W>
-61.867

> <W(PB)>
-64.045

> <W(SA)>
2.178

> <Valence>
9.555

> <Coulomb>
0.483

> <VdW>
0.423

> <VdW6>
-7.223

> <VdW12>
7.646

> <Bond>
0.126

> <Angle>
2.492

> <Pdih>
6.936

> <Idih>
0.001

> <Tether>
0.000

$$$$
VeraChem MOL file


 20 19  0  0  0  0  0  0  0  0999 V2000     
   18.6648   17.5057   19.6813 C   0  0  0  0  0  0  0  0  0  0  0  0
   18.6043   16.4791   20.0388 H   0  0  0  0  0  0  0  0  0  0  0  0
   17.9092   17.8352   18.9703 H   0  0  0  0  0  0  0  0  0  0  0  0
   19.6272   18.3319   20.0995 C   0  0  0  0  0  0  0  0  0  0  0  0
   19.6764   19.3531   19.7232 H   0  0  0  0  0  0  0  0  0  0  0  0
   20.7155   17.9377   21.0751 C   0  0  0  0  0  0  0  0  0  0  0  0
   21.5625   18.6328   21.0015 H   0  0  0  0  0  0  0  0  0  0  0  0
   21.1092   16.9561   20.7789 H   0  0  0  0  0  0  0  0  0  0  0  0
   20.2289   17.8485   22.5429 C   0  0  0  0  0  0  0  0  0  0  0  0
   19.2745   17.3064   22.5901 H   0  0  0  0  0  0  0  0  0  0  0  0
   20.9507   17.2362   23.1006 H   0  0  0  0  0  0  0  0  0  0  0  0
   20.1046   19.2096   23.2730 C   0  0  0  0  0  0  0  0  0  0  0  0
   21.0566   19.7547   23.2118 H   0  0  0  0  0  0  0  0  0  0  0  0
   19.9311   19.0133   24.3402 H   0  0  0  0  0  0  0  0  0  0  0  0
   18.9567   20.1106   22.7499 C   0  0  0  0  0  0  0  0  0  0  0  0
   19.1684   20.4513   21.7315 H   0  0  0  0  0  0  0  0  0  0  0  0
   18.0163   19.5475   22.7182 H   0  0  0  0  0  0  0  0  0  0  0  0
   18.7393   21.3489   23.6119 C   0  0  0  0  0  0  0  0  0  0  0  0
   19.3788   22.3490   23.3519 O   0  5  0  0  0  0  0  0  0  0  0  0
   17.9514   21.2750   24.5342 O   0  0  0  0  0  0  0  0  0  0  0  0
  1  2  1  0  0  0  0
  1  3  1  0  0  0  0
  1  4  2  0  0  0  0
  4  5  1  0  0  0  0
  4  6  1  0  0  0  0
  6  7  1  0  0  0  0
  6  8  1  0  0  0  0
  6  9  1  0  0  0  0
  9 10  1  0  0  0  0
  9 11  1  0  0  0  0
  9 12  1  0  0  0  0
 12 13  1  0  0  0  0
 12 14  1  0  0  0  0
 12 15  1  0  0  0  0
 15 16  1  0  0  0  0
 15 17  1  0  0  0  0
 15 18  1  0  0  0  0
 18 19  1  0  0  0  0
 18 20  2  0  0  0  0
M  END
> <VConfSearch Rank>
79

> <Conf_Id>
51

> <Delta U+W>
1.709

> <U+W>
-50.036

> <U>
10.643

> <W>
-60.679

> <W(PB)>
-62.882

> <W(SA)>
2.203

> <Valence>
11.231

> <Coulomb>
-1.077

> <VdW>
0.489

> <VdW6>
-7.546

> <VdW12>
8.035

> <Bond>
0.159

> <Angle>
3.005

> <Pdih>
8.065

> <Idih>
0.002

> <Tether>
0.000

$$$$
VeraChem MOL file


 20 19  0  0  0  0  0  0  0  0999 V2000     
   20.2704   16.3956   21.4883 C   0  0  0  0  0  0  0  0  0  0  0  0
   20.0380   15.9183   22.4388 H   0  0  0  0  0  0  0  0  0  0  0  0
   21.1302   16.0214   20.9353 H   0  0  0  0  0  0  0  0  0  0  0  0
   19.5317   17.4040   21.0178 C   0  0  0  0  0  0  0  0  0  0  0  0
   19.7748   17.8629   20.0602 H   0  0  0  0  0  0  0  0  0  0  0  0
   18.3175   17.9654   21.7264 C   0  0  0  0  0  0  0  0  0  0  0  0
   17.7010   17.1269   22.0774 H   0  0  0  0  0  0  0  0  0  0  0  0
   17.6881   18.5222   21.0194 H   0  0  0  0  0  0  0  0  0  0  0  0
   18.6678   18.8593   22.9419 C   0  0  0  0  0  0  0  0  0  0  0  0
   17.7765   18.9239   23.5807 H   0  0  0  0  0  0  0  0  0  0  0  0
   19.4419   18.3756   23.5533 H   0  0  0  0  0  0  0  0  0  0  0  0
   19.0967   20.3052   22.5865 C   0  0  0  0  0  0  0  0  0  0  0  0
   19.1433   20.8890   23.5163 H   0  0  0  0  0  0  0  0  0  0  0  0
   18.3269   20.7808   21.9635 H   0  0  0  0  0  0  0  0  0  0  0  0
   20.4720   20.4059   21.8781 C   0  0  0  0  0  0  0  0  0  0  0  0
   21.2320   19.8541   22.4442 H   0  0  0  0  0  0  0  0  0  0  0  0
   20.4233   19.9630   20.8784 H   0  0  0  0  0  0  0  0  0  0  0  0
   20.9500   21.8446   21.7197 C   0  0  0  0  0  0  0  0  0  0  0  0
   20.6134   22.4552   20.7243 O   0  5  0  0  0  0  0  0  0  0  0  0
   21.6297   22.3244   22.6056 O   0  0  0  0  0  0  0  0  0  0  0  0
  1  2  1  0  0  0  0
  1  3  1  0  0  0  0
  1  4  2  0  0  0  0
  4  5  1  0  0  0  0
  4  6  1  0  0  0  0
  6  7  1  0  0  0  0
  6  8  1  0  0  0  0
  6  9  1  0  0  0  0
  9 10  1  0  0  0  0
  9 11  1  0  0  0  0
  9 12  1  0  0  0  0
 12 13  1  0  0  0  0
 12 14  1  0  0  0  0
 12 15  1  0  0  0  0
 15 16  1  0  0  0  0
 15 17  1  0  0  0  0
 15 18  1  0  0  0  0
 18 19  1  0  0  0  0
 18 20  2  0  0  0  0
M  END
> <VConfSearch Rank>
80

> <Conf_Id>
91

> <Delta U+W>
1.604

> <U+W>
-50.141

> <U>
10.644

> <W>
-60.786

> <W(PB)>
-62.965

> <W(SA)>
2.179

> <Valence>
11.230

> <Coulomb>
-1.075

> <VdW>
0.489

> <VdW6>
-7.547

> <VdW12>
8.036

> <Bond>
0.159

> <Angle>
3.006

> <Pdih>
8.064

> <Idih>
0.002

> <Tether>
0.000

$$$$
VeraChem MOL file


 20 19  0  0  0  0  0  0  0  0999 V2000     
   20.5386   16.6345   24.6082 C   0  0  0  0  0  0  0  0  0  0  0  0
   21.4397   16.3463   24.0692 H   0  0  0  0  0  0  0  0  0  0  0  0
   20.1562   15.9384   25.3529 H   0  0  0  0  0  0  0  0  0  0  0  0
   19.9220   17.7942   24.3667 C   0  0  0  0  0  0  0  0  0  0  0  0
   19.0206   18.0634   24.9169 H   0  0  0  0  0  0  0  0  0  0  0  0
   20.3941   18.8097   23.3500 C   0  0  0  0  0  0  0  0  0  0  0  0
   21.4243   18.5871   23.0403 H   0  0  0  0  0  0  0  0  0  0  0  0
   20.4106   19.8078   23.8079 H   0  0  0  0  0  0  0  0  0  0  0  0
   19.4765   18.8243   22.1096 C   0  0  0  0  0  0  0  0  0  0  0  0
   19.4602   17.8227   21.6580 H   0  0  0  0  0  0  0  0  0  0  0  0
   18.4471   19.0515   22.4193 H   0  0  0  0  0  0  0  0  0  0  0  0
   19.9429   19.8585   21.0618 C   0  0  0  0  0  0  0  0  0  0  0  0
   20.9722   19.6317   20.7512 H   0  0  0  0  0  0  0  0  0  0  0  0
   19.9605   20.8602   21.5132 H   0  0  0  0  0  0  0  0  0  0  0  0
   19.0201   19.8724   19.8141 C   0  0  0  0  0  0  0  0  0  0  0  0
   19.0029   18.8771   19.3547 H   0  0  0  0  0  0  0  0  0  0  0  0
   17.9920   20.1045   20.1159 H   0  0  0  0  0  0  0  0  0  0  0  0
   19.4119   20.8711   18.7240 C   0  0  0  0  0  0  0  0  0  0  0  0
   18.7118   20.9119   17.7318 O   0  5  0  0  0  0  0  0  0  0  0  0
   20.3889   21.5786   18.8773 O   0  0  0  0  0  0  0  0  0  0  0  0
  1  2  1  0  0  0  0
  1  3  1  0  0  0  0
  1  4  2  0  0  0  0
  4  5  1  0  0  0  0
  4  6  1  0  0  0  0
  6  7  1  0  0  0  0
  6  8  1  0  0  0  0
  6  9  1  0  0  0  0
  9 10  1  0  0  0  0
  9 11  1  0  0  0  0
  9 12  1  0  0  0  0
 12 13  1  0  0  0  0
 12 14  1  0  0  0  0
 12 15  1  0  0  0  0
 15 16  1  0  0  0  0
 15 17  1  0  0  0  0
 15 18  1  0  0  0  0
 18 19  1  0  0  0  0
 18 20  2  0  0  0  0
M  END
> <VConfSearch Rank>
81

> <Conf_Id>
33

> <Delta U+W>
0.000

> <U+W>
-51.745

> <U>
7.593

> <W>
-59.338

> <W(PB)>
-61.574

> <W(SA)>
2.236

> <Valence>
9.570

> <Coulomb>
-3.091

> <VdW>
1.114

> <VdW6>
-6.064

> <VdW12>
7.178

> <Bond>
0.117

> <Angle>
2.692

> <Pdih>
6.761

> <Idih>
0.000

> <Tether>
0.000

$$$$
VeraChem MOL file


 20 19  0  0  0  0  0  0  0  0999 V2000     
   22.4831   20.3244   20.0007 C   0  0  0  0  0  0  0  0  0  0  0  0
   21.7817   20.8194   19.3310 H   0  0  0  0  0  0  0  0  0  0  0  0
   23.5310   20.3087   19.7061 H   0  0  0  0  0  0  0  0  0  0  0  0
   22.0776   19.7552   21.1389 C   0  0  0  0  0  0  0  0  0  0  0  0
   22.7958   19.2640   21.7950 H   0  0  0  0  0  0  0  0  0  0  0  0
   20.6416   19.7378   21.6135 C   0  0  0  0  0  0  0  0  0  0  0  0
   20.0438   20.4601   21.0412 H   0  0  0  0  0  0  0  0  0  0  0  0
   20.6055   20.0566   22.6628 H   0  0  0  0  0  0  0  0  0  0  0  0
   20.0255   18.3284   21.4657 C   0  0  0  0  0  0  0  0  0  0  0  0
   20.1492   17.9958   20.4258 H   0  0  0  0  0  0  0  0  0  0  0  0
   20.5825   17.6144   22.0879 H   0  0  0  0  0  0  0  0  0  0  0  0
   18.5219   18.2710   21.8265 C   0  0  0  0  0  0  0  0  0  0  0  0
   18.1402   17.2688   21.5869 H   0  0  0  0  0  0  0  0  0  0  0  0
   17.9616   18.9750   21.1959 H   0  0  0  0  0  0  0  0  0  0  0  0
   18.2320   18.5702   23.3203 C   0  0  0  0  0  0  0  0  0  0  0  0
   18.8189   17.9014   23.9612 H   0  0  0  0  0  0  0  0  0  0  0  0
   18.5192   19.5973   23.5718 H   0  0  0  0  0  0  0  0  0  0  0  0
   16.7606   18.3992   23.6804 C   0  0  0  0  0  0  0  0  0  0  0  0
   16.0246   19.3584   23.5579 O   0  5  0  0  0  0  0  0  0  0  0  0
   16.3851   17.3059   24.0551 O   0  0  0  0  0  0  0  0  0  0  0  0
  1  2  1  0  0  0  0
  1  3  1  0  0  0  0
  1  4  2  0  0  0  0
  4  5  1  0  0  0  0
  4  6  1  0  0  0  0
  6  7  1  0  0  0  0
  6  8  1  0  0  0  0
  6  9  1  0  0  0  0
  9 10  1  0  0  0  0
  9 11  1  0  0  0  0
  9 12  1  0  0  0  0
 12 13  1  0  0  0  0
 12 14  1  0  0  0  0
 12 15  1  0  0  0  0
 15 16  1  0  0  0  0
 15 17  1  0  0  0  0
 15 18  1  0  0  0  0
 18 19  1  0  0  0  0
 18 20  2  0  0  0  0
M  END
> <VConfSearch Rank>
82

> <Conf_Id>
37

> <Delta U+W>
-0.384

> <U+W>
-52.130

> <U>
7.491

> <W>
-59.621

> <W(PB)>
-61.853

> <W(SA)>
2.232

> <Valence>
9.604

> <Coulomb>
-2.799

> <VdW>
0.686

> <VdW6>
-6.435

> <VdW12>
7.121

> <Bond>
0.124

> <Angle>
2.493

> <Pdih>
6.986

> <Idih>
0.001

> <Tether>
0.000

$$$$
VeraChem MOL file


 20 19  0  0  0  0  0  0  0  0999 V2000     
   18.4153   19.1202   24.9542 C   0  0  0  0  0  0  0  0  0  0  0  0
   17.9846   19.1633   25.9531 H   0  0  0  0  0  0  0  0  0  0  0  0
   17.8152   18.6451   24.1811 H   0  0  0  0  0  0  0  0  0  0  0  0
   19.6267   19.6328   24.7098 C   0  0  0  0  0  0  0  0  0  0  0  0
   20.1804   20.0965   25.5259 H   0  0  0  0  0  0  0  0  0  0  0  0
   20.3547   19.6475   23.3761 C   0  0  0  0  0  0  0  0  0  0  0  0
   21.3231   19.1437   23.4972 H   0  0  0  0  0  0  0  0  0  0  0  0
   20.5927   20.6874   23.1154 H   0  0  0  0  0  0  0  0  0  0  0  0
   19.5862   18.9940   22.2038 C   0  0  0  0  0  0  0  0  0  0  0  0
   19.3632   17.9466   22.4497 H   0  0  0  0  0  0  0  0  0  0  0  0
   18.6249   19.5072   22.0638 H   0  0  0  0  0  0  0  0  0  0  0  0
   20.3931   19.0505   20.8883 C   0  0  0  0  0  0  0  0  0  0  0  0
   21.3564   18.5386   21.0218 H   0  0  0  0  0  0  0  0  0  0  0  0
   20.6196   20.0960   20.6367 H   0  0  0  0  0  0  0  0  0  0  0  0
   19.6257   18.3967   19.7128 C   0  0  0  0  0  0  0  0  0  0  0  0
   19.4033   17.3477   19.9424 H   0  0  0  0  0  0  0  0  0  0  0  0
   18.6665   18.9050   19.5574 H   0  0  0  0  0  0  0  0  0  0  0  0
   20.4024   18.4401   18.4018 C   0  0  0  0  0  0  0  0  0  0  0  0
   21.1494   17.5162   18.1469 O   0  5  0  0  0  0  0  0  0  0  0  0
   20.2548   19.4061   17.6794 O   0  0  0  0  0  0  0  0  0  0  0  0
  1  2  1  0  0  0  0
  1  3  1  0  0  0  0
  1  4  2  0  0  0  0
  4  5  1  0  0  0  0
  4  6  1  0  0  0  0
  6  7  1  0  0  0  0
  6  8  1  0  0  0  0
  6  9  1  0  0  0  0
  9 10  1  0  0  0  0
  9 11  1  0  0  0  0
  9 12  1  0  0  0  0
 12 13  1  0  0  0  0
 12 14  1  0  0  0  0
 12 15  1  0  0  0  0
 15 16  1  0  0  0  0
 15 17  1  0  0  0  0
 15 18  1  0  0  0  0
 18 19  1  0  0  0  0
 18 20  2  0  0  0  0
M  END
> <VConfSearch Rank>
83

> <Conf_Id>
44

> <Delta U+W>
-1.440

> <U+W>
-53.185

> <U>
6.572

> <W>
-59.757

> <W(PB)>
-62.007

> <W(SA)>
2.249

> <Valence>
7.989

> <Coulomb>
-2.697

> <VdW>
1.281

> <VdW6>
-6.467

> <VdW12>
7.748

> <Bond>
0.136

> <Angle>
2.854

> <Pdih>
4.997

> <Idih>
0.001

> <Tether>
0.000

$$$$
VeraChem MOL file


 20 19  0  0  0  0  0  0  0  0999 V2000     
   19.3980   16.0473   23.5779 C   0  0  0  0  0  0  0  0  0  0  0  0
   19.9068   15.6902   22.6840 H   0  0  0  0  0  0  0  0  0  0  0  0
   18.9259   15.3028   24.2168 H   0  0  0  0  0  0  0  0  0  0  0  0
   19.3502   17.3471   23.8813 C   0  0  0  0  0  0  0  0  0  0  0  0
   18.8352   17.6837   24.7808 H   0  0  0  0  0  0  0  0  0  0  0  0
   19.9825   18.4369   23.0444 C   0  0  0  0  0  0  0  0  0  0  0  0
   20.6918   17.9959   22.3324 H   0  0  0  0  0  0  0  0  0  0  0  0
   20.5603   19.1087   23.6932 H   0  0  0  0  0  0  0  0  0  0  0  0
   18.9082   19.2473   22.2848 C   0  0  0  0  0  0  0  0  0  0  0  0
   18.3669   18.5845   21.5956 H   0  0  0  0  0  0  0  0  0  0  0  0
   18.1662   19.6173   23.0056 H   0  0  0  0  0  0  0  0  0  0  0  0
   19.4817   20.4542   21.5046 C   0  0  0  0  0  0  0  0  0  0  0  0
   20.0152   21.1229   22.1942 H   0  0  0  0  0  0  0  0  0  0  0  0
   18.6458   21.0365   21.0927 H   0  0  0  0  0  0  0  0  0  0  0  0
   20.4255   20.0484   20.3428 C   0  0  0  0  0  0  0  0  0  0  0  0
   21.3185   19.5438   20.7281 H   0  0  0  0  0  0  0  0  0  0  0  0
   19.9183   19.3457   19.6709 H   0  0  0  0  0  0  0  0  0  0  0  0
   20.8887   21.2424   19.5159 C   0  0  0  0  0  0  0  0  0  0  0  0
   20.2162   21.5733   18.5593 O   0  5  0  0  0  0  0  0  0  0  0  0
   21.8990   21.8225   19.8616 O   0  0  0  0  0  0  0  0  0  0  0  0
  1  2  1  0  0  0  0
  1  3  1  0  0  0  0
  1  4  2  0  0  0  0
  4  5  1  0  0  0  0
  4  6  1  0  0  0  0
  6  7  1  0  0  0  0
  6  8  1  0  0  0  0
  6  9  1  0  0  0  0
  9 10  1  0  0  0  0
  9 11  1  0  0  0  0
  9 12  1  0  0  0  0
 12 13  1  0  0  0  0
 12 14  1  0  0  0  0
 12 15  1  0  0  0  0
 15 16  1  0  0  0  0
 15 17  1  0  0  0  0
 15 18  1  0  0  0  0
 18 19  1  0  0  0  0
 18 20  2  0  0  0  0
M  END
> <VConfSearch Rank>
84

> <Conf_Id>
38

> <Delta U+W>
-0.381

> <U+W>
-52.126

> <U>
7.601

> <W>
-59.727

> <W(PB)>
-61.964

> <W(SA)>
2.236

> <Valence>
9.602

> <Coulomb>
-2.686

> <VdW>
0.685

> <VdW6>
-6.453

> <VdW12>
7.139

> <Bond>
0.125

> <Angle>
2.485

> <Pdih>
6.991

> <Idih>
0.001

> <Tether>
0.000

$$$$
VeraChem MOL file


 20 19  0  0  0  0  0  0  0  0999 V2000     
   19.1378   16.7769   24.5565 C   0  0  0  0  0  0  0  0  0  0  0  0
   19.2717   17.4936   25.3652 H   0  0  0  0  0  0  0  0  0  0  0  0
   18.5766   15.8707   24.7780 H   0  0  0  0  0  0  0  0  0  0  0  0
   19.6388   16.9980   23.3384 C   0  0  0  0  0  0  0  0  0  0  0  0
   19.4928   16.2682   22.5424 H   0  0  0  0  0  0  0  0  0  0  0  0
   20.4281   18.2306   22.9572 C   0  0  0  0  0  0  0  0  0  0  0  0
   21.3452   17.9318   22.4321 H   0  0  0  0  0  0  0  0  0  0  0  0
   20.7425   18.7746   23.8583 H   0  0  0  0  0  0  0  0  0  0  0  0
   19.5976   19.1669   22.0546 C   0  0  0  0  0  0  0  0  0  0  0  0
   19.2864   18.6212   21.1531 H   0  0  0  0  0  0  0  0  0  0  0  0
   18.6789   19.4599   22.5813 H   0  0  0  0  0  0  0  0  0  0  0  0
   20.3910   20.4309   21.6532 C   0  0  0  0  0  0  0  0  0  0  0  0
   21.3055   20.1418   21.1168 H   0  0  0  0  0  0  0  0  0  0  0  0
   20.7109   20.9611   22.5605 H   0  0  0  0  0  0  0  0  0  0  0  0
   19.5623   21.3997   20.7702 C   0  0  0  0  0  0  0  0  0  0  0  0
   18.6318   21.6758   21.2809 H   0  0  0  0  0  0  0  0  0  0  0  0
   20.1262   22.3269   20.6145 H   0  0  0  0  0  0  0  0  0  0  0  0
   19.2149   20.8403   19.3935 C   0  0  0  0  0  0  0  0  0  0  0  0
   18.0764   20.4642   19.1951 O   0  5  0  0  0  0  0  0  0  0  0  0
   20.0911   20.8060   18.5520 O   0  0  0  0  0  0  0  0  0  0  0  0
  1  2  1  0  0  0  0
  1  3  1  0  0  0  0
  1  4  2  0  0  0  0
  4  5  1  0  0  0  0
  4  6  1  0  0  0  0
  6  7  1  0  0  0  0
  6  8  1  0  0  0  0
  6  9  1  0  0  0  0
  9 10  1  0  0  0  0
  9 11  1  0  0  0  0
  9 12  1  0  0  0  0
 12 13  1  0  0  0  0
 12 14  1  0  0  0  0
 12 15  1  0  0  0  0
 15 16  1  0  0  0  0
 15 17  1  0  0  0  0
 15 18  1  0  0  0  0
 18 19  1  0  0  0  0
 18 20  2  0  0  0  0
M  END
> <VConfSearch Rank>
85

> <Conf_Id>
58

> <Delta U+W>
0.019

> <U+W>
-51.727

> <U>
8.963

> <W>
-60.690

> <W(PB)>
-62.934

> <W(SA)>
2.244

> <Valence>
9.327

> <Coulomb>
-0.780

> <VdW>
0.417

> <VdW6>
-6.635

> <VdW12>
7.052

> <Bond>
0.105

> <Angle>
2.399

> <Pdih>
6.822

> <Idih>
0.000

> <Tether>
0.000

$$$$
VeraChem MOL file


 20 19  0  0  0  0  0  0  0  0999 V2000     
   19.6281   19.9798   18.5591 C   0  0  0  0  0  0  0  0  0  0  0  0
   19.1967   20.9653   18.7269 H   0  0  0  0  0  0  0  0  0  0  0  0
   19.4878   19.5322   17.5766 H   0  0  0  0  0  0  0  0  0  0  0  0
   20.3014   19.3402   19.5189 C   0  0  0  0  0  0  0  0  0  0  0  0
   20.7246   18.3538   19.3306 H   0  0  0  0  0  0  0  0  0  0  0  0
   20.5369   19.8979   20.9050 C   0  0  0  0  0  0  0  0  0  0  0  0
   20.3097   20.9725   20.9261 H   0  0  0  0  0  0  0  0  0  0  0  0
   21.5982   19.7939   21.1674 H   0  0  0  0  0  0  0  0  0  0  0  0
   19.6713   19.1684   21.9535 C   0  0  0  0  0  0  0  0  0  0  0  0
   18.6107   19.2706   21.6851 H   0  0  0  0  0  0  0  0  0  0  0  0
   19.9020   18.0943   21.9319 H   0  0  0  0  0  0  0  0  0  0  0  0
   19.9022   19.7244   23.3768 C   0  0  0  0  0  0  0  0  0  0  0  0
   19.6842   20.8010   23.3848 H   0  0  0  0  0  0  0  0  0  0  0  0
   20.9602   19.6140   23.6527 H   0  0  0  0  0  0  0  0  0  0  0  0
   19.0182   19.0242   24.4413 C   0  0  0  0  0  0  0  0  0  0  0  0
   19.1330   19.5332   25.4055 H   0  0  0  0  0  0  0  0  0  0  0  0
   17.9596   19.1018   24.1652 H   0  0  0  0  0  0  0  0  0  0  0  0
   19.3583   17.5525   24.6589 C   0  0  0  0  0  0  0  0  0  0  0  0
   20.3573   17.2843   25.2969 O   0  5  0  0  0  0  0  0  0  0  0  0
   18.6108   16.7139   24.1951 O   0  0  0  0  0  0  0  0  0  0  0  0
  1  2  1  0  0  0  0
  1  3  1  0  0  0  0
  1  4  2  0  0  0  0
  4  5  1  0  0  0  0
  4  6  1  0  0  0  0
  6  7  1  0  0  0  0
  6  8  1  0  0  0  0
  6  9  1  0  0  0  0
  9 10  1  0  0  0  0
  9 11  1  0  0  0  0
  9 12  1  0  0  0  0
 12 13  1  0  0  0  0
 12 14  1  0  0  0  0
 12 15  1  0  0  0  0
 15 16  1  0  0  0  0
 15 17  1  0  0  0  0
 15 18  1  0  0  0  0
 18 19  1  0  0  0  0
 18 20  2  0  0  0  0
M  END
> <VConfSearch Rank>
86

> <Conf_Id>
54

> <Delta U+W>
-0.048

> <U+W>
-51.793

> <U>
8.964

> <W>
-60.756

> <W(PB)>
-63.007

> <W(SA)>
2.251

> <Valence>
9.327

> <Coulomb>
-0.780

> <VdW>
0.417

> <VdW6>
-6.635

> <VdW12>
7.052

> <Bond>
0.105

> <Angle>
2.399

> <Pdih>
6.822

> <Idih>
0.000

> <Tether>
0.000

$$$$
VeraChem MOL file


 20 19  0  0  0  0  0  0  0  0999 V2000     
   17.6685   21.6062   21.2038 C   0  0  0  0  0  0  0  0  0  0  0  0
   17.6034   22.2857   20.3558 H   0  0  0  0  0  0  0  0  0  0  0  0
   16.7337   21.2478   21.6319 H   0  0  0  0  0  0  0  0  0  0  0  0
   18.8511   21.2268   21.6950 C   0  0  0  0  0  0  0  0  0  0  0  0
   19.7747   21.6002   21.2537 H   0  0  0  0  0  0  0  0  0  0  0  0
   19.0185   20.2921   22.8740 C   0  0  0  0  0  0  0  0  0  0  0  0
   18.0900   20.2661   23.4603 H   0  0  0  0  0  0  0  0  0  0  0  0
   19.7965   20.6749   23.5479 H   0  0  0  0  0  0  0  0  0  0  0  0
   19.3689   18.8513   22.4385 C   0  0  0  0  0  0  0  0  0  0  0  0
   19.3395   18.2001   23.3229 H   0  0  0  0  0  0  0  0  0  0  0  0
   18.5969   18.4795   21.7508 H   0  0  0  0  0  0  0  0  0  0  0  0
   20.7606   18.7460   21.7706 C   0  0  0  0  0  0  0  0  0  0  0  0
   21.5312   19.1313   22.4526 H   0  0  0  0  0  0  0  0  0  0  0  0
   20.7859   19.3797   20.8743 H   0  0  0  0  0  0  0  0  0  0  0  0
   21.1165   17.2930   21.3616 C   0  0  0  0  0  0  0  0  0  0  0  0
   20.3383   16.8826   20.7068 H   0  0  0  0  0  0  0  0  0  0  0  0
   22.0491   17.2929   20.7851 H   0  0  0  0  0  0  0  0  0  0  0  0
   21.3102   16.3454   22.5420 C   0  0  0  0  0  0  0  0  0  0  0  0
   20.4298   15.5448   22.7884 O   0  5  0  0  0  0  0  0  0  0  0  0
   22.3429   16.4266   23.1777 O   0  0  0  0  0  0  0  0  0  0  0  0
  1  2  1  0  0  0  0
  1  3  1  0  0  0  0
  1  4  2  0  0  0  0
  4  5  1  0  0  0  0
  4  6  1  0  0  0  0
  6  7  1  0  0  0  0
  6  8  1  0  0  0  0
  6  9  1  0  0  0  0
  9 10  1  0  0  0  0
  9 11  1  0  0  0  0
  9 12  1  0  0  0  0
 12 13  1  0  0  0  0
 12 14  1  0  0  0  0
 12 15  1  0  0  0  0
 15 16  1  0  0  0  0
 15 17  1  0  0  0  0
 15 18  1  0  0  0  0
 18 19  1  0  0  0  0
 18 20  2  0  0  0  0
M  END
> <VConfSearch Rank>
87

> <Conf_Id>
27

> <Delta U+W>
0.478

> <U+W>
-51.267

> <U>
9.192

> <W>
-60.459

> <W(PB)>
-62.649

> <W(SA)>
2.190

> <Valence>
9.572

> <Coulomb>
-0.884

> <VdW>
0.504

> <VdW6>
-7.168

> <VdW12>
7.672

> <Bond>
0.127

> <Angle>
2.504

> <Pdih>
6.941

> <Idih>
0.001

> <Tether>
0.000

$$$$
VeraChem MOL file


 20 19  0  0  0  0  0  0  0  0999 V2000     
   21.5419   18.8992   19.1446 C   0  0  0  0  0  0  0  0  0  0  0  0
   22.3551   19.5986   19.3317 H   0  0  0  0  0  0  0  0  0  0  0  0
   21.2030   18.7882   18.1160 H   0  0  0  0  0  0  0  0  0  0  0  0
   20.9772   18.2049   20.1360 C   0  0  0  0  0  0  0  0  0  0  0  0
   20.1666   17.5077   19.9263 H   0  0  0  0  0  0  0  0  0  0  0  0
   21.3994   18.3026   21.5865 C   0  0  0  0  0  0  0  0  0  0  0  0
   22.4108   18.7265   21.6501 H   0  0  0  0  0  0  0  0  0  0  0  0
   21.4590   17.2985   22.0273 H   0  0  0  0  0  0  0  0  0  0  0  0
   20.4406   19.1822   22.4203 C   0  0  0  0  0  0  0  0  0  0  0  0
   20.8696   19.3214   23.4220 H   0  0  0  0  0  0  0  0  0  0  0  0
   20.3730   20.1802   21.9656 H   0  0  0  0  0  0  0  0  0  0  0  0
   19.0271   18.5705   22.5542 C   0  0  0  0  0  0  0  0  0  0  0  0
   19.0988   17.5623   22.9850 H   0  0  0  0  0  0  0  0  0  0  0  0
   18.5699   18.4619   21.5613 H   0  0  0  0  0  0  0  0  0  0  0  0
   18.1051   19.4418   23.4424 C   0  0  0  0  0  0  0  0  0  0  0  0
   18.5358   19.5493   24.4451 H   0  0  0  0  0  0  0  0  0  0  0  0
   18.0136   20.4492   23.0188 H   0  0  0  0  0  0  0  0  0  0  0  0
   16.7035   18.8604   23.5892 C   0  0  0  0  0  0  0  0  0  0  0  0
   15.8588   19.1876   22.7792 O   0  5  0  0  0  0  0  0  0  0  0  0
   16.4980   18.0820   24.4995 O   0  0  0  0  0  0  0  0  0  0  0  0
  1  2  1  0  0  0  0
  1  3  1  0  0  0  0
  1  4  2  0  0  0  0
  4  5  1  0  0  0  0
  4  6  1  0  0  0  0
  6  7  1  0  0  0  0
  6  8  1  0  0  0  0
  6  9  1  0  0  0  0
  9 10  1  0  0  0  0
  9 11  1  0  0  0  0
  9 12  1  0  0  0  0
 12 13  1  0  0  0  0
 12 14  1  0  0  0  0
 12 15  1  0  0  0  0
 15 16  1  0  0  0  0
 15 17  1  0  0  0  0
 15 18  1  0  0  0  0
 18 19  1  0  0  0  0
 18 20  2  0  0  0  0
M  END
> <VConfSearch Rank>
88

> <Conf_Id>
41

> <Delta U+W>
-0.634

> <U+W>
-52.379

> <U>
7.828

> <W>
-60.207

> <W(PB)>
-62.449

> <W(SA)>
2.242

> <Valence>
9.300

> <Coulomb>
-2.080

> <VdW>
0.608

> <VdW6>
-6.341

> <VdW12>
6.949

> <Bond>
0.103

> <Angle>
2.334

> <Pdih>
6.862

> <Idih>
0.001

> <Tether>
0.000

$$$$
VeraChem MOL file


 20 19  0  0  0  0  0  0  0  0999 V2000     
   17.5890   21.1967   21.1139 C   0  0  0  0  0  0  0  0  0  0  0  0
   16.5406   21.4897   21.1259 H   0  0  0  0  0  0  0  0  0  0  0  0
   18.3207   21.9633   20.8639 H   0  0  0  0  0  0  0  0  0  0  0  0
   17.9591   19.9452   21.3977 C   0  0  0  0  0  0  0  0  0  0  0  0
   17.2112   19.1926   21.6463 H   0  0  0  0  0  0  0  0  0  0  0  0
   19.3933   19.4648   21.4002 C   0  0  0  0  0  0  0  0  0  0  0  0
   20.0404   20.1966   20.8981 H   0  0  0  0  0  0  0  0  0  0  0  0
   19.4608   18.5318   20.8259 H   0  0  0  0  0  0  0  0  0  0  0  0
   19.8981   19.2328   22.8419 C   0  0  0  0  0  0  0  0  0  0  0  0
   19.7298   20.1468   23.4279 H   0  0  0  0  0  0  0  0  0  0  0  0
   19.2978   18.4459   23.3191 H   0  0  0  0  0  0  0  0  0  0  0  0
   21.4009   18.8670   22.9200 C   0  0  0  0  0  0  0  0  0  0  0  0
   21.6932   18.7965   23.9769 H   0  0  0  0  0  0  0  0  0  0  0  0
   21.9950   19.6850   22.4907 H   0  0  0  0  0  0  0  0  0  0  0  0
   21.7762   17.5378   22.2094 C   0  0  0  0  0  0  0  0  0  0  0  0
   21.5666   17.6002   21.1355 H   0  0  0  0  0  0  0  0  0  0  0  0
   22.8548   17.3673   22.3052 H   0  0  0  0  0  0  0  0  0  0  0  0
   21.0704   16.3085   22.7745 C   0  0  0  0  0  0  0  0  0  0  0  0
   21.4159   15.9017   23.8666 O   0  5  0  0  0  0  0  0  0  0  0  0
   20.2076   15.7795   22.1017 O   0  0  0  0  0  0  0  0  0  0  0  0
  1  2  1  0  0  0  0
  1  3  1  0  0  0  0
  1  4  2  0  0  0  0
  4  5  1  0  0  0  0
  4  6  1  0  0  0  0
  6  7  1  0  0  0  0
  6  8  1  0  0  0  0
  6  9  1  0  0  0  0
  9 10  1  0  0  0  0
  9 11  1  0  0  0  0
  9 12  1  0  0  0  0
 12 13  1  0  0  0  0
 12 14  1  0  0  0  0
 12 15  1  0  0  0  0
 15 16  1  0  0  0  0
 15 17  1  0  0  0  0
 15 18  1  0  0  0  0
 18 19  1  0  0  0  0
 18 20  2  0  0  0  0
M  END
> <VConfSearch Rank>
89

> <Conf_Id>
84

> <Delta U+W>
0.942

> <U+W>
-50.803

> <U>
10.196

> <W>
-60.999

> <W(PB)>
-63.182

> <W(SA)>
2.182

> <Valence>
9.837

> <Coulomb>
0.032

> <VdW>
0.328

> <VdW6>
-7.642

> <VdW12>
7.969

> <Bond>
0.151

> <Angle>
2.748

> <Pdih>
6.937

> <Idih>
0.001

> <Tether>
0.000

$$$$
VeraChem MOL file


 20 19  0  0  0  0  0  0  0  0999 V2000     
   16.5228   17.8067   22.6287 C   0  0  0  0  0  0  0  0  0  0  0  0
   15.4448   17.9505   22.5790 H   0  0  0  0  0  0  0  0  0  0  0  0
   16.9232   16.8765   22.2287 H   0  0  0  0  0  0  0  0  0  0  0  0
   17.3196   18.7387   23.1581 C   0  0  0  0  0  0  0  0  0  0  0  0
   16.8986   19.6634   23.5523 H   0  0  0  0  0  0  0  0  0  0  0  0
   18.8229   18.6092   23.2622 C   0  0  0  0  0  0  0  0  0  0  0  0
   19.1280   17.5685   23.0870 H   0  0  0  0  0  0  0  0  0  0  0  0
   19.1439   18.8655   24.2807 H   0  0  0  0  0  0  0  0  0  0  0  0
   19.5332   19.5300   22.2480 C   0  0  0  0  0  0  0  0  0  0  0  0
   19.2026   19.2723   21.2321 H   0  0  0  0  0  0  0  0  0  0  0  0
   19.2317   20.5715   22.4252 H   0  0  0  0  0  0  0  0  0  0  0  0
   21.0711   19.4120   22.3438 C   0  0  0  0  0  0  0  0  0  0  0  0
   21.3774   18.3740   22.1531 H   0  0  0  0  0  0  0  0  0  0  0  0
   21.3899   19.6527   23.3671 H   0  0  0  0  0  0  0  0  0  0  0  0
   21.8044   20.3539   21.3538 C   0  0  0  0  0  0  0  0  0  0  0  0
   21.4885   21.3919   21.5137 H   0  0  0  0  0  0  0  0  0  0  0  0
   22.8834   20.3174   21.5443 H   0  0  0  0  0  0  0  0  0  0  0  0
   21.5882   19.9996   19.8852 C   0  0  0  0  0  0  0  0  0  0  0  0
   20.8407   20.6975   19.2285 O   0  5  0  0  0  0  0  0  0  0  0  0
   22.1844   19.0416   19.4338 O   0  0  0  0  0  0  0  0  0  0  0  0
  1  2  1  0  0  0  0
  1  3  1  0  0  0  0
  1  4  2  0  0  0  0
  4  5  1  0  0  0  0
  4  6  1  0  0  0  0
  6  7  1  0  0  0  0
  6  8  1  0  0  0  0
  6  9  1  0  0  0  0
  9 10  1  0  0  0  0
  9 11  1  0  0  0  0
  9 12  1  0  0  0  0
 12 13  1  0  0  0  0
 12 14  1  0  0  0  0
 12 15  1  0  0  0  0
 15 16  1  0  0  0  0
 15 17  1  0  0  0  0
 15 18  1  0  0  0  0
 18 19  1  0  0  0  0
 18 20  2  0  0  0  0
M  END
> <VConfSearch Rank>
90

> <Conf_Id>
81

> <Delta U+W>
-0.051

> <U+W>
-51.796

> <U>
9.412

> <W>
-61.209

> <W(PB)>
-63.452

> <W(SA)>
2.243

> <Valence>
9.329

> <Coulomb>
-0.323

> <VdW>
0.406

> <VdW6>
-6.640

> <VdW12>
7.046

> <Bond>
0.105

> <Angle>
2.401

> <Pdih>
6.823

> <Idih>
0.000

> <Tether>
0.000

$$$$
VeraChem MOL file


 20 19  0  0  0  0  0  0  0  0999 V2000     
   17.0713   17.1456   21.7024 C   0  0  0  0  0  0  0  0  0  0  0  0
   17.4375   16.1672   21.3957 H   0  0  0  0  0  0  0  0  0  0  0  0
   16.0495   17.2046   22.0734 H   0  0  0  0  0  0  0  0  0  0  0  0
   17.8433   18.2331   21.6306 C   0  0  0  0  0  0  0  0  0  0  0  0
   17.4566   19.2035   21.9404 H   0  0  0  0  0  0  0  0  0  0  0  0
   19.2689   18.2290   21.1216 C   0  0  0  0  0  0  0  0  0  0  0  0
   19.4271   19.0731   20.4378 H   0  0  0  0  0  0  0  0  0  0  0  0
   19.4465   17.3239   20.5254 H   0  0  0  0  0  0  0  0  0  0  0  0
   20.3065   18.2725   22.2689 C   0  0  0  0  0  0  0  0  0  0  0  0
   20.1854   17.3741   22.8893 H   0  0  0  0  0  0  0  0  0  0  0  0
   21.3155   18.2113   21.8387 H   0  0  0  0  0  0  0  0  0  0  0  0
   20.2141   19.5242   23.1793 C   0  0  0  0  0  0  0  0  0  0  0  0
   20.9720   19.4405   23.9703 H   0  0  0  0  0  0  0  0  0  0  0  0
   19.2422   19.5346   23.6903 H   0  0  0  0  0  0  0  0  0  0  0  0
   20.4150   20.8743   22.4383 C   0  0  0  0  0  0  0  0  0  0  0  0
   19.6280   21.0253   21.6907 H   0  0  0  0  0  0  0  0  0  0  0  0
   20.3242   21.6987   23.1550 H   0  0  0  0  0  0  0  0  0  0  0  0
   21.7721   21.0136   21.7547 C   0  0  0  0  0  0  0  0  0  0  0  0
   21.8133   20.9696   20.5409 O   0  5  0  0  0  0  0  0  0  0  0  0
   22.7514   21.1803   22.4553 O   0  0  0  0  0  0  0  0  0  0  0  0
  1  2  1  0  0  0  0
  1  3  1  0  0  0  0
  1  4  2  0  0  0  0
  4  5  1  0  0  0  0
  4  6  1  0  0  0  0
  6  7  1  0  0  0  0
  6  8  1  0  0  0  0
  6  9  1  0  0  0  0
  9 10  1  0  0  0  0
  9 11  1  0  0  0  0
  9 12  1  0  0  0  0
 12 13  1  0  0  0  0
 12 14  1  0  0  0  0
 12 15  1  0  0  0  0
 15 16  1  0  0  0  0
 15 17  1  0  0  0  0
 15 18  1  0  0  0  0
 18 19  1  0  0  0  0
 18 20  2  0  0  0  0
M  END
> <VConfSearch Rank>
91

> <Conf_Id>
86

> <Delta U+W>
1.248

> <U+W>
-50.498

> <U>
10.404

> <W>
-60.901

> <W(PB)>
-63.061

> <W(SA)>
2.159

> <Valence>
10.021

> <Coulomb>
0.094

> <VdW>
0.289

> <VdW6>
-8.409

> <VdW12>
8.698

> <Bond>
0.179

> <Angle>
2.939

> <Pdih>
6.902

> <Idih>
0.001

> <Tether>
0.000

$$$$
VeraChem MOL file


 20 19  0  0  0  0  0  0  0  0999 V2000     
   19.2983   19.0168   25.0993 C   0  0  0  0  0  0  0  0  0  0  0  0
   19.1152   19.7245   25.9060 H   0  0  0  0  0  0  0  0  0  0  0  0
   18.5500   18.2441   24.9308 H   0  0  0  0  0  0  0  0  0  0  0  0
   20.3979   19.0987   24.3455 C   0  0  0  0  0  0  0  0  0  0  0  0
   21.1337   19.8812   24.5292 H   0  0  0  0  0  0  0  0  0  0  0  0
   20.7205   18.1531   23.2080 C   0  0  0  0  0  0  0  0  0  0  0  0
   20.0439   17.2878   23.2204 H   0  0  0  0  0  0  0  0  0  0  0  0
   21.7343   17.7553   23.3491 H   0  0  0  0  0  0  0  0  0  0  0  0
   20.6451   18.8468   21.8292 C   0  0  0  0  0  0  0  0  0  0  0  0
   21.3186   19.7146   21.8173 H   0  0  0  0  0  0  0  0  0  0  0  0
   21.0171   18.1516   21.0641 H   0  0  0  0  0  0  0  0  0  0  0  0
   19.2096   19.2925   21.4629 C   0  0  0  0  0  0  0  0  0  0  0  0
   18.8389   19.9928   22.2233 H   0  0  0  0  0  0  0  0  0  0  0  0
   18.5355   18.4249   21.4787 H   0  0  0  0  0  0  0  0  0  0  0  0
   19.1338   19.9778   20.0738 C   0  0  0  0  0  0  0  0  0  0  0  0
   18.1261   20.3809   19.9189 H   0  0  0  0  0  0  0  0  0  0  0  0
   19.8256   20.8279   20.0327 H   0  0  0  0  0  0  0  0  0  0  0  0
   19.4371   19.0455   18.9044 C   0  0  0  0  0  0  0  0  0  0  0  0
   18.5778   18.2565   18.5635 O   0  5  0  0  0  0  0  0  0  0  0  0
   20.5186   19.1399   18.3581 O   0  0  0  0  0  0  0  0  0  0  0  0
  1  2  1  0  0  0  0
  1  3  1  0  0  0  0
  1  4  2  0  0  0  0
  4  5  1  0  0  0  0
  4  6  1  0  0  0  0
  6  7  1  0  0  0  0
  6  8  1  0  0  0  0
  6  9  1  0  0  0  0
  9 10  1  0  0  0  0
  9 11  1  0  0  0  0
  9 12  1  0  0  0  0
 12 13  1  0  0  0  0
 12 14  1  0  0  0  0
 12 15  1  0  0  0  0
 15 16  1  0  0  0  0
 15 17  1  0  0  0  0
 15 18  1  0  0  0  0
 18 19  1  0  0  0  0
 18 20  2  0  0  0  0
M  END
> <VConfSearch Rank>
92

> <Conf_Id>
28

> <Delta U+W>
0.446

> <U+W>
-51.299

> <U>
9.295

> <W>
-60.594

> <W(PB)>
-62.806

> <W(SA)>
2.212

> <Valence>
9.495

> <Coulomb>
-0.610

> <VdW>
0.409

> <VdW6>
-7.332

> <VdW12>
7.741

> <Bond>
0.126

> <Angle>
2.497

> <Pdih>
6.872

> <Idih>
0.000

> <Tether>
0.000

$$$$
VeraChem MOL file


 20 19  0  0  0  0  0  0  0  0999 V2000     
   17.6796   21.5319   22.4779 C   0  0  0  0  0  0  0  0  0  0  0  0
   17.8925   21.1394   23.4699 H   0  0  0  0  0  0  0  0  0  0  0  0
   17.0598   22.4254   22.4257 H   0  0  0  0  0  0  0  0  0  0  0  0
   18.1505   20.9609   21.3634 C   0  0  0  0  0  0  0  0  0  0  0  0
   17.9049   21.4021   20.3977 H   0  0  0  0  0  0  0  0  0  0  0  0
   19.0210   19.7182   21.2765 C   0  0  0  0  0  0  0  0  0  0  0  0
   19.9767   19.9967   20.8144 H   0  0  0  0  0  0  0  0  0  0  0  0
   18.5497   19.0072   20.5851 H   0  0  0  0  0  0  0  0  0  0  0  0
   19.2827   19.0083   22.6278 C   0  0  0  0  0  0  0  0  0  0  0  0
   19.8339   19.6821   23.2981 H   0  0  0  0  0  0  0  0  0  0  0  0
   18.3202   18.7989   23.1142 H   0  0  0  0  0  0  0  0  0  0  0  0
   20.0531   17.6723   22.4845 C   0  0  0  0  0  0  0  0  0  0  0  0
   19.4723   16.9855   21.8540 H   0  0  0  0  0  0  0  0  0  0  0  0
   20.1225   17.1971   23.4728 H   0  0  0  0  0  0  0  0  0  0  0  0
   21.4848   17.8134   21.8988 C   0  0  0  0  0  0  0  0  0  0  0  0
   21.9452   16.8214   21.8245 H   0  0  0  0  0  0  0  0  0  0  0  0
   21.4489   18.2151   20.8799 H   0  0  0  0  0  0  0  0  0  0  0  0
   22.4181   18.6840   22.7354 C   0  0  0  0  0  0  0  0  0  0  0  0
   22.7999   18.2507   23.8049 O   0  5  0  0  0  0  0  0  0  0  0  0
   22.7555   19.7621   22.2874 O   0  0  0  0  0  0  0  0  0  0  0  0
  1  2  1  0  0  0  0
  1  3  1  0  0  0  0
  1  4  2  0  0  0  0
  4  5  1  0  0  0  0
  4  6  1  0  0  0  0
  6  7  1  0  0  0  0
  6  8  1  0  0  0  0
  6  9  1  0  0  0  0
  9 10  1  0  0  0  0
  9 11  1  0  0  0  0
  9 12  1  0  0  0  0
 12 13  1  0  0  0  0
 12 14  1  0  0  0  0
 12 15  1  0  0  0  0
 15 16  1  0  0  0  0
 15 17  1  0  0  0  0
 15 18  1  0  0  0  0
 18 19  1  0  0  0  0
 18 20  2  0  0  0  0
M  END
> <VConfSearch Rank>
93

> <Conf_Id>
53

> <Delta U+W>
0.549

> <U+W>
-51.197

> <U>
10.870

> <W>
-62.067

> <W(PB)>
-64.228

> <W(SA)>
2.161

> <Valence>
8.803

> <Coulomb>
1.020

> <VdW>
1.048

> <VdW6>
-8.312

> <VdW12>
9.360

> <Bond>
0.212

> <Angle>
3.379

> <Pdih>
5.211

> <Idih>
0.001

> <Tether>
0.000

$$$$
VeraChem MOL file


 20 19  0  0  0  0  0  0  0  0999 V2000     
   22.2627   19.9965   22.2571 C   0  0  0  0  0  0  0  0  0  0  0  0
   22.4653   18.9875   22.6095 H   0  0  0  0  0  0  0  0  0  0  0  0
   22.8998   20.7913   22.6409 H   0  0  0  0  0  0  0  0  0  0  0  0
   21.2829   20.2633   21.3868 C   0  0  0  0  0  0  0  0  0  0  0  0
   21.1240   21.2917   21.0635 H   0  0  0  0  0  0  0  0  0  0  0  0
   20.3194   19.2583   20.7773 C   0  0  0  0  0  0  0  0  0  0  0  0
   20.6775   18.9911   19.7744 H   0  0  0  0  0  0  0  0  0  0  0  0
   19.3524   19.7487   20.6069 H   0  0  0  0  0  0  0  0  0  0  0  0
   20.0844   17.9625   21.5968 C   0  0  0  0  0  0  0  0  0  0  0  0
   19.4325   17.2955   21.0163 H   0  0  0  0  0  0  0  0  0  0  0  0
   21.0342   17.4232   21.7071 H   0  0  0  0  0  0  0  0  0  0  0  0
   19.4549   18.1843   22.9973 C   0  0  0  0  0  0  0  0  0  0  0  0
   20.1310   18.7898   23.6144 H   0  0  0  0  0  0  0  0  0  0  0  0
   19.3702   17.2124   23.5024 H   0  0  0  0  0  0  0  0  0  0  0  0
   18.0550   18.8567   22.9754 C   0  0  0  0  0  0  0  0  0  0  0  0
   17.6942   18.9762   24.0036 H   0  0  0  0  0  0  0  0  0  0  0  0
   18.1181   19.8650   22.5507 H   0  0  0  0  0  0  0  0  0  0  0  0
   16.9956   18.0682   22.2110 C   0  0  0  0  0  0  0  0  0  0  0  0
   16.6153   18.5010   21.1408 O   0  5  0  0  0  0  0  0  0  0  0  0
   16.5651   17.0497   22.7156 O   0  0  0  0  0  0  0  0  0  0  0  0
  1  2  1  0  0  0  0
  1  3  1  0  0  0  0
  1  4  2  0  0  0  0
  4  5  1  0  0  0  0
  4  6  1  0  0  0  0
  6  7  1  0  0  0  0
  6  8  1  0  0  0  0
  6  9  1  0  0  0  0
  9 10  1  0  0  0  0
  9 11  1  0  0  0  0
  9 12  1  0  0  0  0
 12 13  1  0  0  0  0
 12 14  1  0  0  0  0
 12 15  1  0  0  0  0
 15 16  1  0  0  0  0
 15 17  1  0  0  0  0
 15 18  1  0  0  0  0
 18 19  1  0  0  0  0
 18 20  2  0  0  0  0
M  END
> <VConfSearch Rank>
94

> <Conf_Id>
66

> <Delta U+W>
1.737

> <U+W>
-50.008

> <U>
11.091

> <W>
-61.099

> <W(PB)>
-63.213

> <W(SA)>
2.114

> <Valence>
9.664

> <Coulomb>
0.658

> <VdW>
0.769

> <VdW6>
-9.171

> <VdW12>
9.940

> <Bond>
0.244

> <Angle>
3.658

> <Pdih>
5.762

> <Idih>
0.001

> <Tether>
0.000

$$$$
VeraChem MOL file


 20 19  0  0  0  0  0  0  0  0999 V2000     
   17.0774   19.6334   21.0681 C   0  0  0  0  0  0  0  0  0  0  0  0
   16.9632   18.5975   21.3795 H   0  0  0  0  0  0  0  0  0  0  0  0
   16.2189   20.2881   21.2070 H   0  0  0  0  0  0  0  0  0  0  0  0
   18.2122   20.0960   20.5323 C   0  0  0  0  0  0  0  0  0  0  0  0
   18.2711   21.1429   20.2356 H   0  0  0  0  0  0  0  0  0  0  0  0
   19.4853   19.3029   20.2857 C   0  0  0  0  0  0  0  0  0  0  0  0
   20.3492   19.9625   20.4355 H   0  0  0  0  0  0  0  0  0  0  0  0
   19.5250   19.0259   19.2240 H   0  0  0  0  0  0  0  0  0  0  0  0
   19.6688   18.0285   21.1508 C   0  0  0  0  0  0  0  0  0  0  0  0
   18.8369   17.3371   20.9624 H   0  0  0  0  0  0  0  0  0  0  0  0
   20.5726   17.5024   20.8147 H   0  0  0  0  0  0  0  0  0  0  0  0
   19.7847   18.2905   22.6741 C   0  0  0  0  0  0  0  0  0  0  0  0
   19.8246   17.3231   23.1934 H   0  0  0  0  0  0  0  0  0  0  0  0
   18.8837   18.7992   23.0417 H   0  0  0  0  0  0  0  0  0  0  0  0
   21.0365   19.1172   23.0673 C   0  0  0  0  0  0  0  0  0  0  0  0
   21.9422   18.6490   22.6640 H   0  0  0  0  0  0  0  0  0  0  0  0
   20.9768   20.1281   22.6487 H   0  0  0  0  0  0  0  0  0  0  0  0
   21.2057   19.2491   24.5767 C   0  0  0  0  0  0  0  0  0  0  0  0
   20.7038   20.2075   25.1302 O   0  5  0  0  0  0  0  0  0  0  0  0
   21.8235   18.3815   25.1621 O   0  0  0  0  0  0  0  0  0  0  0  0
  1  2  1  0  0  0  0
  1  3  1  0  0  0  0
  1  4  2  0  0  0  0
  4  5  1  0  0  0  0
  4  6  1  0  0  0  0
  6  7  1  0  0  0  0
  6  8  1  0  0  0  0
  6  9  1  0  0  0  0
  9 10  1  0  0  0  0
  9 11  1  0  0  0  0
  9 12  1  0  0  0  0
 12 13  1  0  0  0  0
 12 14  1  0  0  0  0
 12 15  1  0  0  0  0
 15 16  1  0  0  0  0
 15 17  1  0  0  0  0
 15 18  1  0  0  0  0
 18 19  1  0  0  0  0
 18 20  2  0  0  0  0
M  END
> <VConfSearch Rank>
95

> <Conf_Id>
64

> <Delta U+W>
0.366

> <U+W>
-51.379

> <U>
10.000

> <W>
-61.379

> <W(PB)>
-63.541

> <W(SA)>
2.162

> <Valence>
9.398

> <Coulomb>
-0.504

> <VdW>
1.105

> <VdW6>
-7.975

> <VdW12>
9.080

> <Bond>
0.216

> <Angle>
3.417

> <Pdih>
5.765

> <Idih>
0.001

> <Tether>
0.000

$$$$
VeraChem MOL file


 20 19  0  0  0  0  0  0  0  0999 V2000     
   17.1574   20.1466   21.6135 C   0  0  0  0  0  0  0  0  0  0  0  0
   16.9238   19.7918   22.6160 H   0  0  0  0  0  0  0  0  0  0  0  0
   16.3972   20.0149   20.8455 H   0  0  0  0  0  0  0  0  0  0  0  0
   18.3314   20.7180   21.3320 C   0  0  0  0  0  0  0  0  0  0  0  0
   18.5463   21.0640   20.3213 H   0  0  0  0  0  0  0  0  0  0  0  0
   19.4355   20.9341   22.3450 C   0  0  0  0  0  0  0  0  0  0  0  0
   19.0674   20.7493   23.3634 H   0  0  0  0  0  0  0  0  0  0  0  0
   19.7487   21.9862   22.3152 H   0  0  0  0  0  0  0  0  0  0  0  0
   20.6655   20.0398   22.0708 C   0  0  0  0  0  0  0  0  0  0  0  0
   21.0331   20.2242   21.0520 H   0  0  0  0  0  0  0  0  0  0  0  0
   21.4747   20.3303   22.7546 H   0  0  0  0  0  0  0  0  0  0  0  0
   20.3615   18.5352   22.2536 C   0  0  0  0  0  0  0  0  0  0  0  0
   19.5714   18.2258   21.5556 H   0  0  0  0  0  0  0  0  0  0  0  0
   19.9779   18.3557   23.2674 H   0  0  0  0  0  0  0  0  0  0  0  0
   21.6178   17.6608   22.0187 C   0  0  0  0  0  0  0  0  0  0  0  0
   22.0053   17.8198   21.0053 H   0  0  0  0  0  0  0  0  0  0  0  0
   22.4130   17.9441   22.7186 H   0  0  0  0  0  0  0  0  0  0  0  0
   21.3431   16.1714   22.1930 C   0  0  0  0  0  0  0  0  0  0  0  0
   21.4574   15.6934   23.3044 O   0  5  0  0  0  0  0  0  0  0  0  0
   21.0087   15.5312   21.2158 O   0  0  0  0  0  0  0  0  0  0  0  0
  1  2  1  0  0  0  0
  1  3  1  0  0  0  0
  1  4  2  0  0  0  0
  4  5  1  0  0  0  0
  4  6  1  0  0  0  0
  6  7  1  0  0  0  0
  6  8  1  0  0  0  0
  6  9  1  0  0  0  0
  9 10  1  0  0  0  0
  9 11  1  0  0  0  0
  9 12  1  0  0  0  0
 12 13  1  0  0  0  0
 12 14  1  0  0  0  0
 12 15  1  0  0  0  0
 15 16  1  0  0  0  0
 15 17  1  0  0  0  0
 15 18  1  0  0  0  0
 18 19  1  0  0  0  0
 18 20  2  0  0  0  0
M  END
> <VConfSearch Rank>
96

> <Conf_Id>
42

> <Delta U+W>
-0.601

> <U+W>
-52.347

> <U>
8.428

> <W>
-60.774

> <W(PB)>
-62.982

> <W(SA)>
2.208

> <Valence>
9.231

> <Coulomb>
-1.304

> <VdW>
0.501

> <VdW6>
-6.515

> <VdW12>
7.016

> <Bond>
0.103

> <Angle>
2.328

> <Pdih>
6.799

> <Idih>
0.000

> <Tether>
0.000

$$$$
VeraChem MOL file


 20 19  0  0  0  0  0  0  0  0999 V2000     
   18.1307   19.9546   19.5775 C   0  0  0  0  0  0  0  0  0  0  0  0
   18.0570   21.0098   19.8355 H   0  0  0  0  0  0  0  0  0  0  0  0
   17.2720   19.4967   19.0897 H   0  0  0  0  0  0  0  0  0  0  0  0
   19.2289   19.2451   19.8507 C   0  0  0  0  0  0  0  0  0  0  0  0
   19.2813   18.1892   19.5867 H   0  0  0  0  0  0  0  0  0  0  0  0
   20.4595   19.8110   20.5269 C   0  0  0  0  0  0  0  0  0  0  0  0
   20.4025   20.9068   20.5793 H   0  0  0  0  0  0  0  0  0  0  0  0
   21.3432   19.5756   19.9190 H   0  0  0  0  0  0  0  0  0  0  0  0
   20.6639   19.2361   21.9466 C   0  0  0  0  0  0  0  0  0  0  0  0
   20.7274   18.1405   21.8909 H   0  0  0  0  0  0  0  0  0  0  0  0
   21.6296   19.5859   22.3361 H   0  0  0  0  0  0  0  0  0  0  0  0
   19.5403   19.6506   22.9258 C   0  0  0  0  0  0  0  0  0  0  0  0
   18.5728   19.2706   22.5696 H   0  0  0  0  0  0  0  0  0  0  0  0
   19.4615   20.7459   22.9431 H   0  0  0  0  0  0  0  0  0  0  0  0
   19.7890   19.1399   24.3688 C   0  0  0  0  0  0  0  0  0  0  0  0
   20.7624   19.4903   24.7327 H   0  0  0  0  0  0  0  0  0  0  0  0
   19.0299   19.5572   25.0408 H   0  0  0  0  0  0  0  0  0  0  0  0
   19.7360   17.6210   24.5062 C   0  0  0  0  0  0  0  0  0  0  0  0
   20.7849   17.0145   24.6017 O   0  5  0  0  0  0  0  0  0  0  0  0
   18.6450   17.0862   24.5323 O   0  0  0  0  0  0  0  0  0  0  0  0
  1  2  1  0  0  0  0
  1  3  1  0  0  0  0
  1  4  2  0  0  0  0
  4  5  1  0  0  0  0
  4  6  1  0  0  0  0
  6  7  1  0  0  0  0
  6  8  1  0  0  0  0
  6  9  1  0  0  0  0
  9 10  1  0  0  0  0
  9 11  1  0  0  0  0
  9 12  1  0  0  0  0
 12 13  1  0  0  0  0
 12 14  1  0  0  0  0
 12 15  1  0  0  0  0
 15 16  1  0  0  0  0
 15 17  1  0  0  0  0
 15 18  1  0  0  0  0
 18 19  1  0  0  0  0
 18 20  2  0  0  0  0
M  END
> <VConfSearch Rank>
97

> <Conf_Id>
68

> <Delta U+W>
0.492

> <U+W>
-51.253

> <U>
10.179

> <W>
-61.432

> <W(PB)>
-63.627

> <W(SA)>
2.195

> <Valence>
9.483

> <Coulomb>
0.361

> <VdW>
0.335

> <VdW6>
-7.385

> <VdW12>
7.720

> <Bond>
0.125

> <Angle>
2.487

> <Pdih>
6.870

> <Idih>
0.001

> <Tether>
0.000

$$$$
VeraChem MOL file


 20 19  0  0  0  0  0  0  0  0999 V2000     
   21.3317   18.0938   24.5617 C   0  0  0  0  0  0  0  0  0  0  0  0
   22.3465   18.0595   24.1688 H   0  0  0  0  0  0  0  0  0  0  0  0
   21.0514   17.3371   25.2924 H   0  0  0  0  0  0  0  0  0  0  0  0
   20.4605   19.0241   24.1627 C   0  0  0  0  0  0  0  0  0  0  0  0
   19.4503   19.0419   24.5709 H   0  0  0  0  0  0  0  0  0  0  0  0
   20.7805   20.1091   23.1567 C   0  0  0  0  0  0  0  0  0  0  0  0
   21.8693   20.2271   23.0727 H   0  0  0  0  0  0  0  0  0  0  0  0
   20.3933   21.0738   23.5110 H   0  0  0  0  0  0  0  0  0  0  0  0
   20.2068   19.7995   21.7555 C   0  0  0  0  0  0  0  0  0  0  0  0
   20.5802   20.5505   21.0460 H   0  0  0  0  0  0  0  0  0  0  0  0
   20.5893   18.8280   21.4128 H   0  0  0  0  0  0  0  0  0  0  0  0
   18.6599   19.7982   21.7258 C   0  0  0  0  0  0  0  0  0  0  0  0
   18.2891   20.7553   22.1167 H   0  0  0  0  0  0  0  0  0  0  0  0
   18.2713   19.0132   22.3889 H   0  0  0  0  0  0  0  0  0  0  0  0
   18.0926   19.5839   20.2985 C   0  0  0  0  0  0  0  0  0  0  0  0
   17.0033   19.7073   20.3150 H   0  0  0  0  0  0  0  0  0  0  0  0
   18.4880   20.3447   19.6148 H   0  0  0  0  0  0  0  0  0  0  0  0
   18.3874   18.2049   19.7152 C   0  0  0  0  0  0  0  0  0  0  0  0
   17.7188   17.2658   20.1001 O   0  5  0  0  0  0  0  0  0  0  0  0
   19.2633   18.1090   18.8781 O   0  0  0  0  0  0  0  0  0  0  0  0
  1  2  1  0  0  0  0
  1  3  1  0  0  0  0
  1  4  2  0  0  0  0
  4  5  1  0  0  0  0
  4  6  1  0  0  0  0
  6  7  1  0  0  0  0
  6  8  1  0  0  0  0
  6  9  1  0  0  0  0
  9 10  1  0  0  0  0
  9 11  1  0  0  0  0
  9 12  1  0  0  0  0
 12 13  1  0  0  0  0
 12 14  1  0  0  0  0
 12 15  1  0  0  0  0
 15 16  1  0  0  0  0
 15 17  1  0  0  0  0
 15 18  1  0  0  0  0
 18 19  1  0  0  0  0
 18 20  2  0  0  0  0
M  END
> <VConfSearch Rank>
98

> <Conf_Id>
87

> <Delta U+W>
0.339

> <U+W>
-51.407

> <U>
10.461

> <W>
-61.867

> <W(PB)>
-64.045

> <W(SA)>
2.178

> <Valence>
9.555

> <Coulomb>
0.483

> <VdW>
0.423

> <VdW6>
-7.223

> <VdW12>
7.646

> <Bond>
0.126

> <Angle>
2.492

> <Pdih>
6.936

> <Idih>
0.001

> <Tether>
0.000

$$$$
VeraChem MOL file


 20 19  0  0  0  0  0  0  0  0999 V2000     
   18.9083   19.3693   19.2403 C   0  0  0  0  0  0  0  0  0  0  0  0
   17.8468   19.6073   19.2853 H   0  0  0  0  0  0  0  0  0  0  0  0
   19.5093   19.8925   18.4987 H   0  0  0  0  0  0  0  0  0  0  0  0
   19.4549   18.4715   20.0643 C   0  0  0  0  0  0  0  0  0  0  0  0
   20.5174   18.2402   19.9978 H   0  0  0  0  0  0  0  0  0  0  0  0
   18.6780   17.6988   21.1087 C   0  0  0  0  0  0  0  0  0  0  0  0
   19.2350   16.8019   21.4108 H   0  0  0  0  0  0  0  0  0  0  0  0
   17.7493   17.3324   20.6509 H   0  0  0  0  0  0  0  0  0  0  0  0
   18.3112   18.5403   22.3563 C   0  0  0  0  0  0  0  0  0  0  0  0
   17.9234   19.5207   22.0474 H   0  0  0  0  0  0  0  0  0  0  0  0
   17.4812   18.0367   22.8703 H   0  0  0  0  0  0  0  0  0  0  0  0
   19.4585   18.7208   23.3820 C   0  0  0  0  0  0  0  0  0  0  0  0
   19.8529   17.7390   23.6780 H   0  0  0  0  0  0  0  0  0  0  0  0
   19.0388   19.1704   24.2926 H   0  0  0  0  0  0  0  0  0  0  0  0
   20.6210   19.6185   22.8861 C   0  0  0  0  0  0  0  0  0  0  0  0
   21.1617   19.1314   22.0686 H   0  0  0  0  0  0  0  0  0  0  0  0
   20.2300   20.5676   22.5006 H   0  0  0  0  0  0  0  0  0  0  0  0
   21.6328   19.9325   23.9822 C   0  0  0  0  0  0  0  0  0  0  0  0
   22.5583   19.1624   24.1470 O   0  5  0  0  0  0  0  0  0  0  0  0
   21.4575   20.9280   24.6569 O   0  0  0  0  0  0  0  0  0  0  0  0
  1  2  1  0  0  0  0
  1  3  1  0  0  0  0
  1  4  2  0  0  0  0
  4  5  1  0  0  0  0
  4  6  1  0  0  0  0
  6  7  1  0  0  0  0
  6  8  1  0  0  0  0
  6  9  1  0  0  0  0
  9 10  1  0  0  0  0
  9 11  1  0  0  0  0
  9 12  1  0  0  0  0
 12 13  1  0  0  0  0
 12 14  1  0  0  0  0
 12 15  1  0  0  0  0
 15 16  1  0  0  0  0
 15 17  1  0  0  0  0
 15 18  1  0  0  0  0
 18 19  1  0  0  0  0
 18 20  2  0  0  0  0
M  END
> <VConfSearch Rank>
99

> <Conf_Id>
51

> <Delta U+W>
1.709

> <U+W>
-50.036

> <U>
10.643

> <W>
-60.679

> <W(PB)>
-62.882

> <W(SA)>
2.203

> <Valence>
11.231

> <Coulomb>
-1.077

> <VdW>
0.489

> <VdW6>
-7.546

> <VdW12>
8.035

> <Bond>
0.159

> <Angle>
3.005

> <Pdih>
8.065

> <Idih>
0.002

> <Tether>
0.000

$$$$
VeraChem MOL file


 20 19  0  0  0  0  0  0  0  0999 V2000     
   17.2181   20.3916   22.7654 C   0  0  0  0  0  0  0  0  0  0  0  0
   17.0671   20.0159   23.7761 H   0  0  0  0  0  0  0  0  0  0  0  0
   16.3328   20.5605   22.1549 H   0  0  0  0  0  0  0  0  0  0  0  0
   18.4423   20.6342   22.2896 C   0  0  0  0  0  0  0  0  0  0  0  0
   18.5725   21.0184   21.2786 H   0  0  0  0  0  0  0  0  0  0  0  0
   19.7142   20.4343   23.0858 C   0  0  0  0  0  0  0  0  0  0  0  0
   19.5667   20.8570   24.0888 H   0  0  0  0  0  0  0  0  0  0  0  0
   20.5369   21.0083   22.6389 H   0  0  0  0  0  0  0  0  0  0  0  0
   20.1245   18.9482   23.2352 C   0  0  0  0  0  0  0  0  0  0  0  0
   20.8155   18.8733   24.0859 H   0  0  0  0  0  0  0  0  0  0  0  0
   19.2488   18.3419   23.5045 H   0  0  0  0  0  0  0  0  0  0  0  0
   20.8334   18.3396   21.9991 C   0  0  0  0  0  0  0  0  0  0  0  0
   21.2334   17.3558   22.2813 H   0  0  0  0  0  0  0  0  0  0  0  0
   21.7002   18.9562   21.7243 H   0  0  0  0  0  0  0  0  0  0  0  0
   19.9149   18.1564   20.7638 C   0  0  0  0  0  0  0  0  0  0  0  0
   19.0001   17.6221   21.0467 H   0  0  0  0  0  0  0  0  0  0  0  0
   19.6142   19.1284   20.3603 H   0  0  0  0  0  0  0  0  0  0  0  0
   20.5885   17.3807   19.6377 C   0  0  0  0  0  0  0  0  0  0  0  0
   21.2353   18.0032   18.8186 O   0  5  0  0  0  0  0  0  0  0  0  0
   20.4659   16.1718   19.6204 O   0  0  0  0  0  0  0  0  0  0  0  0
  1  2  1  0  0  0  0
  1  3  1  0  0  0  0
  1  4  2  0  0  0  0
  4  5  1  0  0  0  0
  4  6  1  0  0  0  0
  6  7  1  0  0  0  0
  6  8  1  0  0  0  0
  6  9  1  0  0  0  0
  9 10  1  0  0  0  0
  9 11  1  0  0  0  0
  9 12  1  0  0  0  0
 12 13  1  0  0  0  0
 12 14  1  0  0  0  0
 12 15  1  0  0  0  0
 15 16  1  0  0  0  0
 15 17  1  0  0  0  0
 15 18  1  0  0  0  0
 18 19  1  0  0  0  0
 18 20  2  0  0  0  0
M  END
> <VConfSearch Rank>
100

> <Conf_Id>
91

> <Delta U+W>
1.604

> <U+W>
-50.141

> <U>
10.644

> <W>
-60.786

> <W(PB)>
-62.965

> <W(SA)>
2.179

> <Valence>
11.230

> <Coulomb>
-1.075

> <VdW>
0.489

> <VdW6>
-7.547

> <VdW12>
8.036

> <Bond>
0.159

> <Angle>
3.006

> <Pdih>
8.064

> <Idih>
0.002

> <Tether>
0.000

$$$$
VeraChem MOL file


 20 19  0  0  0  0  0  0  0  0999 V2000     
   22.2870   20.7198   19.7499 C   0  0  0  0  0  0  0  0  0  0  0  0
   23.0641   20.1471   20.2535 H   0  0  0  0  0  0  0  0  0  0  0  0
   22.5898   21.6297   19.2344 H   0  0  0  0  0  0  0  0  0  0  0  0
   21.0107   20.3266   19.7636 C   0  0  0  0  0  0  0  0  0  0  0  0
   20.2481   20.9148   19.2537 H   0  0  0  0  0  0  0  0  0  0  0  0
   20.5163   19.0763   20.4565 C   0  0  0  0  0  0  0  0  0  0  0  0
   21.3619   18.4226   20.7105 H   0  0  0  0  0  0  0  0  0  0  0  0
   19.8718   18.5077   19.7728 H   0  0  0  0  0  0  0  0  0  0  0  0
   19.7318   19.4234   21.7390 C   0  0  0  0  0  0  0  0  0  0  0  0
   20.3796   19.9956   22.4175 H   0  0  0  0  0  0  0  0  0  0  0  0
   18.8836   20.0734   21.4838 H   0  0  0  0  0  0  0  0  0  0  0  0
   19.2168   18.1573   22.4581 C   0  0  0  0  0  0  0  0  0  0  0  0
   20.0647   17.5069   22.7140 H   0  0  0  0  0  0  0  0  0  0  0  0
   18.5699   17.5840   21.7796 H   0  0  0  0  0  0  0  0  0  0  0  0
   18.4284   18.5068   23.7483 C   0  0  0  0  0  0  0  0  0  0  0  0
   19.0702   19.0737   24.4328 H   0  0  0  0  0  0  0  0  0  0  0  0
   17.5768   19.1508   23.4994 H   0  0  0  0  0  0  0  0  0  0  0  0
   17.8817   17.3072   24.5239 C   0  0  0  0  0  0  0  0  0  0  0  0
   17.2574   17.5415   25.5395 O   0  5  0  0  0  0  0  0  0  0  0  0
   18.0826   16.1808   24.1122 O   0  0  0  0  0  0  0  0  0  0  0  0
  1  2  1  0  0  0  0
  1  3  1  0  0  0  0
  1  4  2  0  0  0  0
  4  5  1  0  0  0  0
  4  6  1  0  0  0  0
  6  7  1  0  0  0  0
  6  8  1  0  0  0  0
  6  9  1  0  0  0  0
  9 10  1  0  0  0  0
  9 11  1  0  0  0  0
  9 12  1  0  0  0  0
 12 13  1  0  0  0  0
 12 14  1  0  0  0  0
 12 15  1  0  0  0  0
 15 16  1  0  0  0  0
 15 17  1  0  0  0  0
 15 18  1  0  0  0  0
 18 19  1  0  0  0  0
 18 20  2  0  0  0  0
M  END
> <VConfSearch Rank>
101

> <Conf_Id>
33

> <Delta U+W>
0.000

> <U+W>
-51.745

> <U>
7.593

> <W>
-59.338

> <W(PB)>
-61.574

> <W(SA)>
2.236

> <Valence>
9.570

> <Coulomb>
-3.091

> <VdW>
1.114

> <VdW6>
-6.064

> <VdW12>
7.178

> <Bond>
0.117

> <Angle>
2.692

> <Pdih>
6.761

> <Idih>
0.000

> <Tether>
0.000

$$$$
VeraChem MOL file


 20 19  0  0  0  0  0  0  0  0999 V2000     
   20.6439   19.9055   25.2735 C   0  0  0  0  0  0  0  0  0  0  0  0
   21.4616   20.5063   24.8787 H   0  0  0  0  0  0  0  0  0  0  0  0
   20.6218   19.7342   26.3484 H   0  0  0  0  0  0  0  0  0  0  0  0
   19.7041   19.3946   24.4738 C   0  0  0  0  0  0  0  0  0  0  0  0
   18.8944   18.7951   24.8891 H   0  0  0  0  0  0  0  0  0  0  0  0
   19.6688   19.5903   22.9744 C   0  0  0  0  0  0  0  0  0  0  0  0
   20.3514   20.3993   22.6809 H   0  0  0  0  0  0  0  0  0  0  0  0
   18.6599   19.9022   22.6759 H   0  0  0  0  0  0  0  0  0  0  0  0
   20.0628   18.2914   22.2360 C   0  0  0  0  0  0  0  0  0  0  0  0
   21.0379   17.9526   22.6126 H   0  0  0  0  0  0  0  0  0  0  0  0
   19.3440   17.4964   22.4774 H   0  0  0  0  0  0  0  0  0  0  0  0
   20.1579   18.4587   20.7007 C   0  0  0  0  0  0  0  0  0  0  0  0
   20.5503   17.5277   20.2686 H   0  0  0  0  0  0  0  0  0  0  0  0
   20.8864   19.2445   20.4572 H   0  0  0  0  0  0  0  0  0  0  0  0
   18.7992   18.7858   20.0284 C   0  0  0  0  0  0  0  0  0  0  0  0
   18.0515   18.0307   20.2989 H   0  0  0  0  0  0  0  0  0  0  0  0
   18.4217   19.7557   20.3712 H   0  0  0  0  0  0  0  0  0  0  0  0
   18.8916   18.8360   18.5075 C   0  0  0  0  0  0  0  0  0  0  0  0
   19.1722   19.8963   17.9844 O   0  5  0  0  0  0  0  0  0  0  0  0
   18.7000   17.8088   17.8870 O   0  0  0  0  0  0  0  0  0  0  0  0
  1  2  1  0  0  0  0
  1  3  1  0  0  0  0
  1  4  2  0  0  0  0
  4  5  1  0  0  0  0
  4  6  1  0  0  0  0
  6  7  1  0  0  0  0
  6  8  1  0  0  0  0
  6  9  1  0  0  0  0
  9 10  1  0  0  0  0
  9 11  1  0  0  0  0
  9 12  1  0  0  0  0
 12 13  1  0  0  0  0
 12 14  1  0  0  0  0
 12 15  1  0  0  0  0
 15 16  1  0  0  0  0
 15 17  1  0  0  0  0
 15 18  1  0  0  0  0
 18 19  1  0  0  0  0
 18 20  2  0  0  0  0
M  END
> <VConfSearch Rank>
102

> <Conf_Id>
37

> <Delta U+W>
-0.384

> <U+W>
-52.130

> <U>
7.491

> <W>
-59.621

> <W(PB)>
-61.853

> <W(SA)>
2.232

> <Valence>
9.604

> <Coulomb>
-2.799

> <VdW>
0.686

> <VdW6>
-6.435

> <VdW12>
7.121

> <Bond>
0.124

> <Angle>
2.493

> <Pdih>
6.986

> <Idih>
0.001

> <Tether>
0.000

$$$$
VeraChem MOL file


 20 19  0  0  0  0  0  0  0  0999 V2000     
   19.2246   20.4551   24.8711 C   0  0  0  0  0  0  0  0  0  0  0  0
   19.0278   20.9118   25.8396 H   0  0  0  0  0  0  0  0  0  0  0  0
   20.0452   20.8708   24.2902 H   0  0  0  0  0  0  0  0  0  0  0  0
   18.4811   19.4322   24.4344 C   0  0  0  0  0  0  0  0  0  0  0  0
   17.6720   19.0593   25.0620 H   0  0  0  0  0  0  0  0  0  0  0  0
   18.6344   18.6965   23.1137 C   0  0  0  0  0  0  0  0  0  0  0  0
   17.6851   18.7557   22.5646 H   0  0  0  0  0  0  0  0  0  0  0  0
   18.7908   17.6293   23.3204 H   0  0  0  0  0  0  0  0  0  0  0  0
   19.7774   19.2103   22.2072 C   0  0  0  0  0  0  0  0  0  0  0  0
   19.6157   20.2729   21.9794 H   0  0  0  0  0  0  0  0  0  0  0  0
   20.7333   19.1343   22.7434 H   0  0  0  0  0  0  0  0  0  0  0  0
   19.8650   18.4114   20.8885 C   0  0  0  0  0  0  0  0  0  0  0  0
   18.9114   18.4835   20.3472 H   0  0  0  0  0  0  0  0  0  0  0  0
   20.0268   17.3472   21.1096 H   0  0  0  0  0  0  0  0  0  0  0  0
   21.0088   18.9240   19.9790 C   0  0  0  0  0  0  0  0  0  0  0  0
   20.8553   19.9826   19.7375 H   0  0  0  0  0  0  0  0  0  0  0  0
   21.9707   18.8464   20.5001 H   0  0  0  0  0  0  0  0  0  0  0  0
   21.1159   18.1504   18.6698 C   0  0  0  0  0  0  0  0  0  0  0  0
   20.4714   18.5430   17.7173 O   0  5  0  0  0  0  0  0  0  0  0  0
   21.8254   17.1643   18.6426 O   0  0  0  0  0  0  0  0  0  0  0  0
  1  2  1  0  0  0  0
  1  3  1  0  0  0  0
  1  4  2  0  0  0  0
  4  5  1  0  0  0  0
  4  6  1  0  0  0  0
  6  7  1  0  0  0  0
  6  8  1  0  0  0  0
  6  9  1  0  0  0  0
  9 10  1  0  0  0  0
  9 11  1  0  0  0  0
  9 12  1  0  0  0  0
 12 13  1  0  0  0  0
 12 14  1  0  0  0  0
 12 15  1  0  0  0  0
 15 16  1  0  0  0  0
 15 17  1  0  0  0  0
 15 18  1  0  0  0  0
 18 19  1  0  0  0  0
 18 20  2  0  0  0  0
M  END
> <VConfSearch Rank>
103

> <Conf_Id>
44

> <Delta U+W>
-1.440

> <U+W>
-53.185

> <U>
6.572

> <W>
-59.757

> <W(PB)>
-62.007

> <W(SA)>
2.249

> <Valence>
7.989

> <Coulomb>
-2.697

> <VdW>
1.281

> <VdW6>
-6.467

> <VdW12>
7.748

> <Bond>
0.136

> <Angle>
2.854

> <Pdih>
4.997

> <Idih>
0.001

> <Tether>
0.000

$$$$
VeraChem MOL file


 20 19  0  0  0  0  0  0  0  0999 V2000     
   19.6770   22.4876   22.4032 C   0  0  0  0  0  0  0  0  0  0  0  0
   20.1325   22.4652   21.4144 H   0  0  0  0  0  0  0  0  0  0  0  0
   19.7036   23.4312   22.9457 H   0  0  0  0  0  0  0  0  0  0  0  0
   19.1092   21.4018   22.9346 C   0  0  0  0  0  0  0  0  0  0  0  0
   18.6593   21.4455   23.9262 H   0  0  0  0  0  0  0  0  0  0  0  0
   19.0332   20.0595   22.2415 C   0  0  0  0  0  0  0  0  0  0  0  0
   19.2561   20.1784   21.1734 H   0  0  0  0  0  0  0  0  0  0  0  0
   18.0093   19.6687   22.3105 H   0  0  0  0  0  0  0  0  0  0  0  0
   20.0169   19.0507   22.8761 C   0  0  0  0  0  0  0  0  0  0  0  0
   21.0460   19.4168   22.7580 H   0  0  0  0  0  0  0  0  0  0  0  0
   19.8276   19.0018   23.9573 H   0  0  0  0  0  0  0  0  0  0  0  0
   19.9011   17.6231   22.2905 C   0  0  0  0  0  0  0  0  0  0  0  0
   18.8746   17.2519   22.4166 H   0  0  0  0  0  0  0  0  0  0  0  0
   20.5474   16.9508   22.8716 H   0  0  0  0  0  0  0  0  0  0  0  0
   20.3047   17.5325   20.7959 C   0  0  0  0  0  0  0  0  0  0  0  0
   19.6211   18.1214   20.1742 H   0  0  0  0  0  0  0  0  0  0  0  0
   21.3117   17.9412   20.6503 H   0  0  0  0  0  0  0  0  0  0  0  0
   20.2942   16.1021   20.2686 C   0  0  0  0  0  0  0  0  0  0  0  0
   21.3168   15.4514   20.3552 O   0  5  0  0  0  0  0  0  0  0  0  0
   19.2583   15.6697   19.8034 O   0  0  0  0  0  0  0  0  0  0  0  0
  1  2  1  0  0  0  0
  1  3  1  0  0  0  0
  1  4  2  0  0  0  0
  4  5  1  0  0  0  0
  4  6  1  0  0  0  0
  6  7  1  0  0  0  0
  6  8  1  0  0  0  0
  6  9  1  0  0  0  0
  9 10  1  0  0  0  0
  9 11  1  0  0  0  0
  9 12  1  0  0  0  0
 12 13  1  0  0  0  0
 12 14  1  0  0  0  0
 12 15  1  0  0  0  0
 15 16  1  0  0  0  0
 15 17  1  0  0  0  0
 15 18  1  0  0  0  0
 18 19  1  0  0  0  0
 18 20  2  0  0  0  0
M  END
> <VConfSearch Rank>
104

> <Conf_Id>
38

> <Delta U+W>
-0.381

> <U+W>
-52.126

> <U>
7.601

> <W>
-59.727

> <W(PB)>
-61.964

> <W(SA)>
2.236

> <Valence>
9.602

> <Coulomb>
-2.686

> <VdW>
0.685

> <VdW6>
-6.453

> <VdW12>
7.139

> <Bond>
0.125

> <Angle>
2.485

> <Pdih>
6.991

> <Idih>
0.001

> <Tether>
0.000

$$$$
VeraChem MOL file


 20 19  0  0  0  0  0  0  0  0999 V2000     
   19.4504   22.7611   21.6130 C   0  0  0  0  0  0  0  0  0  0  0  0
   19.5438   22.6946   20.5303 H   0  0  0  0  0  0  0  0  0  0  0  0
   18.9830   23.6554   22.0215 H   0  0  0  0  0  0  0  0  0  0  0  0
   19.8886   21.7850   22.4124 C   0  0  0  0  0  0  0  0  0  0  0  0
   19.7846   21.8707   23.4938 H   0  0  0  0  0  0  0  0  0  0  0  0
   20.5475   20.5163   21.9185 C   0  0  0  0  0  0  0  0  0  0  0  0
   21.4706   20.3370   22.4858 H   0  0  0  0  0  0  0  0  0  0  0  0
   20.8397   20.6248   20.8651 H   0  0  0  0  0  0  0  0  0  0  0  0
   19.6047   19.3040   22.0686 C   0  0  0  0  0  0  0  0  0  0  0  0
   19.3159   19.1963   23.1234 H   0  0  0  0  0  0  0  0  0  0  0  0
   18.6806   19.4891   21.5038 H   0  0  0  0  0  0  0  0  0  0  0  0
   20.2642   17.9980   21.5709 C   0  0  0  0  0  0  0  0  0  0  0  0
   21.1835   17.8042   22.1411 H   0  0  0  0  0  0  0  0  0  0  0  0
   20.5633   18.1205   20.5211 H   0  0  0  0  0  0  0  0  0  0  0  0
   19.3209   16.7724   21.6855 C   0  0  0  0  0  0  0  0  0  0  0  0
   18.3861   16.9618   21.1441 H   0  0  0  0  0  0  0  0  0  0  0  0
   19.7912   15.9024   21.2125 H   0  0  0  0  0  0  0  0  0  0  0  0
   18.9818   16.3831   23.1216 C   0  0  0  0  0  0  0  0  0  0  0  0
   17.8770   16.6577   23.5472 O   0  5  0  0  0  0  0  0  0  0  0  0
   19.8293   15.8050   23.7732 O   0  0  0  0  0  0  0  0  0  0  0  0
  1  2  1  0  0  0  0
  1  3  1  0  0  0  0
  1  4  2  0  0  0  0
  4  5  1  0  0  0  0
  4  6  1  0  0  0  0
  6  7  1  0  0  0  0
  6  8  1  0  0  0  0
  6  9  1  0  0  0  0
  9 10  1  0  0  0  0
  9 11  1  0  0  0  0
  9 12  1  0  0  0  0
 12 13  1  0  0  0  0
 12 14  1  0  0  0  0
 12 15  1  0  0  0  0
 15 16  1  0  0  0  0
 15 17  1  0  0  0  0
 15 18  1  0  0  0  0
 18 19  1  0  0  0  0
 18 20  2  0  0  0  0
M  END
> <VConfSearch Rank>
105

> <Conf_Id>
58

> <Delta U+W>
0.019

> <U+W>
-51.727

> <U>
8.963

> <W>
-60.690

> <W(PB)>
-62.934

> <W(SA)>
2.244

> <Valence>
9.327

> <Coulomb>
-0.780

> <VdW>
0.417

> <VdW6>
-6.635

> <VdW12>
7.052

> <Bond>
0.105

> <Angle>
2.399

> <Pdih>
6.822

> <Idih>
0.000

> <Tether>
0.000

$$$$
VeraChem MOL file


 20 19  0  0  0  0  0  0  0  0999 V2000     
   22.8545   19.7476   23.7132 C   0  0  0  0  0  0  0  0  0  0  0  0
   23.0356   20.6939   23.2062 H   0  0  0  0  0  0  0  0  0  0  0  0
   23.7169   19.2285   24.1281 H   0  0  0  0  0  0  0  0  0  0  0  0
   21.6246   19.2385   23.8220 C   0  0  0  0  0  0  0  0  0  0  0  0
   21.4650   18.2891   24.3328 H   0  0  0  0  0  0  0  0  0  0  0  0
   20.3810   19.9014   23.2726 C   0  0  0  0  0  0  0  0  0  0  0  0
   20.5916   20.9474   23.0112 H   0  0  0  0  0  0  0  0  0  0  0  0
   19.6020   19.9195   24.0465 H   0  0  0  0  0  0  0  0  0  0  0  0
   19.8558   19.1557   22.0279 C   0  0  0  0  0  0  0  0  0  0  0  0
   20.6394   19.1355   21.2579 H   0  0  0  0  0  0  0  0  0  0  0  0
   19.6438   18.1105   22.2926 H   0  0  0  0  0  0  0  0  0  0  0  0
   18.5827   19.8189   21.4554 C   0  0  0  0  0  0  0  0  0  0  0  0
   18.8000   20.8669   21.2086 H   0  0  0  0  0  0  0  0  0  0  0  0
   17.7933   19.8311   22.2198 H   0  0  0  0  0  0  0  0  0  0  0  0
   18.0565   19.1015   20.1852 C   0  0  0  0  0  0  0  0  0  0  0  0
   17.2291   19.6780   19.7549 H   0  0  0  0  0  0  0  0  0  0  0  0
   18.8429   19.0565   19.4221 H   0  0  0  0  0  0  0  0  0  0  0  0
   17.5432   17.6871   20.4397 C   0  0  0  0  0  0  0  0  0  0  0  0
   16.4590   17.5592   20.9738 O   0  5  0  0  0  0  0  0  0  0  0  0
   18.2344   16.7515   20.0878 O   0  0  0  0  0  0  0  0  0  0  0  0
  1  2  1  0  0  0  0
  1  3  1  0  0  0  0
  1  4  2  0  0  0  0
  4  5  1  0  0  0  0
  4  6  1  0  0  0  0
  6  7  1  0  0  0  0
  6  8  1  0  0  0  0
  6  9  1  0  0  0  0
  9 10  1  0  0  0  0
  9 11  1  0  0  0  0
  9 12  1  0  0  0  0
 12 13  1  0  0  0  0
 12 14  1  0  0  0  0
 12 15  1  0  0  0  0
 15 16  1  0  0  0  0
 15 17  1  0  0  0  0
 15 18  1  0  0  0  0
 18 19  1  0  0  0  0
 18 20  2  0  0  0  0
M  END
> <VConfSearch Rank>
106

> <Conf_Id>
54

> <Delta U+W>
-0.048

> <U+W>
-51.793

> <U>
8.964

> <W>
-60.756

> <W(PB)>
-63.007

> <W(SA)>
2.251

> <Valence>
9.327

> <Coulomb>
-0.780

> <VdW>
0.417

> <VdW6>
-6.635

> <VdW12>
7.052

> <Bond>
0.105

> <Angle>
2.399

> <Pdih>
6.822

> <Idih>
0.000

> <Tether>
0.000

$$$$
VeraChem MOL file


 20 19  0  0  0  0  0  0  0  0999 V2000     
   19.5382   15.8036   21.2498 C   0  0  0  0  0  0  0  0  0  0  0  0
   19.0642   14.9571   21.7437 H   0  0  0  0  0  0  0  0  0  0  0  0
   19.5029   15.8333   20.1619 H   0  0  0  0  0  0  0  0  0  0  0  0
   20.1360   16.7677   21.9546 C   0  0  0  0  0  0  0  0  0  0  0  0
   20.1629   16.7167   23.0427 H   0  0  0  0  0  0  0  0  0  0  0  0
   20.8204   17.9687   21.3372 C   0  0  0  0  0  0  0  0  0  0  0  0
   21.0610   17.7576   20.2864 H   0  0  0  0  0  0  0  0  0  0  0  0
   21.7787   18.1534   21.8406 H   0  0  0  0  0  0  0  0  0  0  0  0
   19.9457   19.2412   21.3982 C   0  0  0  0  0  0  0  0  0  0  0  0
   20.4366   20.0331   20.8160 H   0  0  0  0  0  0  0  0  0  0  0  0
   18.9815   19.0457   20.9090 H   0  0  0  0  0  0  0  0  0  0  0  0
   19.7084   19.7398   22.8436 C   0  0  0  0  0  0  0  0  0  0  0  0
   20.6728   19.9215   23.3379 H   0  0  0  0  0  0  0  0  0  0  0  0
   19.1987   18.9580   23.4220 H   0  0  0  0  0  0  0  0  0  0  0  0
   18.8532   21.0325   22.8948 C   0  0  0  0  0  0  0  0  0  0  0  0
   17.9000   20.8768   22.3753 H   0  0  0  0  0  0  0  0  0  0  0  0
   18.6114   21.2705   23.9374 H   0  0  0  0  0  0  0  0  0  0  0  0
   19.5408   22.2561   22.2957 C   0  0  0  0  0  0  0  0  0  0  0  0
   19.1805   22.6407   21.2006 O   0  5  0  0  0  0  0  0  0  0  0  0
   20.4123   22.7988   22.9462 O   0  0  0  0  0  0  0  0  0  0  0  0
  1  2  1  0  0  0  0
  1  3  1  0  0  0  0
  1  4  2  0  0  0  0
  4  5  1  0  0  0  0
  4  6  1  0  0  0  0
  6  7  1  0  0  0  0
  6  8  1  0  0  0  0
  6  9  1  0  0  0  0
  9 10  1  0  0  0  0
  9 11  1  0  0  0  0
  9 12  1  0  0  0  0
 12 13  1  0  0  0  0
 12 14  1  0  0  0  0
 12 15  1  0  0  0  0
 15 16  1  0  0  0  0
 15 17  1  0  0  0  0
 15 18  1  0  0  0  0
 18 19  1  0  0  0  0
 18 20  2  0  0  0  0
M  END
> <VConfSearch Rank>
107

> <Conf_Id>
27

> <Delta U+W>
0.478

> <U+W>
-51.267

> <U>
9.192

> <W>
-60.459

> <W(PB)>
-62.649

> <W(SA)>
2.190

> <Valence>
9.572

> <Coulomb>
-0.884

> <VdW>
0.504

> <VdW6>
-7.168

> <VdW12>
7.672

> <Bond>
0.127

> <Angle>
2.504

> <Pdih>
6.941

> <Idih>
0.001

> <Tether>
0.000

$$$$
VeraChem MOL file


 20 19  0  0  0  0  0  0  0  0999 V2000     
   20.0487   15.6762   23.0630 C   0  0  0  0  0  0  0  0  0  0  0  0
   20.5013   15.1008   22.2571 H   0  0  0  0  0  0  0  0  0  0  0  0
   19.4044   15.1423   23.7594 H   0  0  0  0  0  0  0  0  0  0  0  0
   20.2703   16.9867   23.1939 C   0  0  0  0  0  0  0  0  0  0  0  0
   19.8098   17.5431   24.0098 H   0  0  0  0  0  0  0  0  0  0  0  0
   21.1576   17.7928   22.2693 C   0  0  0  0  0  0  0  0  0  0  0  0
   21.8361   17.1199   21.7277 H   0  0  0  0  0  0  0  0  0  0  0  0
   21.7965   18.4658   22.8566 H   0  0  0  0  0  0  0  0  0  0  0  0
   20.3454   18.6107   21.2400 C   0  0  0  0  0  0  0  0  0  0  0  0
   21.0410   19.0642   20.5207 H   0  0  0  0  0  0  0  0  0  0  0  0
   19.6968   17.9341   20.6665 H   0  0  0  0  0  0  0  0  0  0  0  0
   19.4943   19.7236   21.8934 C   0  0  0  0  0  0  0  0  0  0  0  0
   20.1409   20.3841   22.4876 H   0  0  0  0  0  0  0  0  0  0  0  0
   18.7665   19.2809   22.5869 H   0  0  0  0  0  0  0  0  0  0  0  0
   18.7376   20.5647   20.8361 C   0  0  0  0  0  0  0  0  0  0  0  0
   19.4481   21.0300   20.1423 H   0  0  0  0  0  0  0  0  0  0  0  0
   18.0780   19.9209   20.2418 H   0  0  0  0  0  0  0  0  0  0  0  0
   17.8889   21.6693   21.4556 C   0  0  0  0  0  0  0  0  0  0  0  0
   16.7381   21.4124   21.7491 O   0  5  0  0  0  0  0  0  0  0  0  0
   18.4064   22.7525   21.6444 O   0  0  0  0  0  0  0  0  0  0  0  0
  1  2  1  0  0  0  0
  1  3  1  0  0  0  0
  1  4  2  0  0  0  0
  4  5  1  0  0  0  0
  4  6  1  0  0  0  0
  6  7  1  0  0  0  0
  6  8  1  0  0  0  0
  6  9  1  0  0  0  0
  9 10  1  0  0  0  0
  9 11  1  0  0  0  0
  9 12  1  0  0  0  0
 12 13  1  0  0  0  0
 12 14  1  0  0  0  0
 12 15  1  0  0  0  0
 15 16  1  0  0  0  0
 15 17  1  0  0  0  0
 15 18  1  0  0  0  0
 18 19  1  0  0  0  0
 18 20  2  0  0  0  0
M  END
> <VConfSearch Rank>
108

> <Conf_Id>
41

> <Delta U+W>
-0.634

> <U+W>
-52.379

> <U>
7.828

> <W>
-60.207

> <W(PB)>
-62.449

> <W(SA)>
2.242

> <Valence>
9.300

> <Coulomb>
-2.080

> <VdW>
0.608

> <VdW6>
-6.341

> <VdW12>
6.949

> <Bond>
0.103

> <Angle>
2.334

> <Pdih>
6.862

> <Idih>
0.001

> <Tether>
0.000

$$$$
VeraChem MOL file


 20 19  0  0  0  0  0  0  0  0999 V2000     
   20.0413   20.4399   25.2362 C   0  0  0  0  0  0  0  0  0  0  0  0
   19.5613   20.5597   26.2060 H   0  0  0  0  0  0  0  0  0  0  0  0
   21.0830   20.7452   25.1515 H   0  0  0  0  0  0  0  0  0  0  0  0
   19.3752   19.9356   24.1942 C   0  0  0  0  0  0  0  0  0  0  0  0
   18.3330   19.6353   24.2998 H   0  0  0  0  0  0  0  0  0  0  0  0
   19.9737   19.7408   22.8189 C   0  0  0  0  0  0  0  0  0  0  0  0
   20.9176   20.2958   22.7328 H   0  0  0  0  0  0  0  0  0  0  0  0
   19.2897   20.1557   22.0672 H   0  0  0  0  0  0  0  0  0  0  0  0
   20.2267   18.2441   22.5309 C   0  0  0  0  0  0  0  0  0  0  0  0
   20.8302   17.8232   23.3468 H   0  0  0  0  0  0  0  0  0  0  0  0
   19.2714   17.7013   22.5423 H   0  0  0  0  0  0  0  0  0  0  0  0
   20.9608   17.9871   21.1917 C   0  0  0  0  0  0  0  0  0  0  0  0
   21.1684   16.9117   21.1031 H   0  0  0  0  0  0  0  0  0  0  0  0
   21.9380   18.4881   21.2130 H   0  0  0  0  0  0  0  0  0  0  0  0
   20.1790   18.4492   19.9317 C   0  0  0  0  0  0  0  0  0  0  0  0
   20.0193   19.5333   19.9510 H   0  0  0  0  0  0  0  0  0  0  0  0
   20.7767   18.2399   19.0369 H   0  0  0  0  0  0  0  0  0  0  0  0
   18.8300   17.7598   19.7479 C   0  0  0  0  0  0  0  0  0  0  0  0
   18.8253   16.5931   19.4067 O   0  5  0  0  0  0  0  0  0  0  0  0
   17.8205   18.4107   19.9326 O   0  0  0  0  0  0  0  0  0  0  0  0
  1  2  1  0  0  0  0
  1  3  1  0  0  0  0
  1  4  2  0  0  0  0
  4  5  1  0  0  0  0
  4  6  1  0  0  0  0
  6  7  1  0  0  0  0
  6  8  1  0  0  0  0
  6  9  1  0  0  0  0
  9 10  1  0  0  0  0
  9 11  1  0  0  0  0
  9 12  1  0  0  0  0
 12 13  1  0  0  0  0
 12 14  1  0  0  0  0
 12 15  1  0  0  0  0
 15 16  1  0  0  0  0
 15 17  1  0  0  0  0
 15 18  1  0  0  0  0
 18 19  1  0  0  0  0
 18 20  2  0  0  0  0
M  END
> <VConfSearch Rank>
109

> <Conf_Id>
84

> <Delta U+W>
0.942

> <U+W>
-50.803

> <U>
10.196

> <W>
-60.999

> <W(PB)>
-63.182

> <W(SA)>
2.182

> <Valence>
9.837

> <Coulomb>
0.032

> <VdW>
0.328

> <VdW6>
-7.642

> <VdW12>
7.969

> <Bond>
0.151

> <Angle>
2.748

> <Pdih>
6.937

> <Idih>
0.001

> <Tether>
0.000

$$$$
VeraChem MOL file


 20 19  0  0  0  0  0  0  0  0999 V2000     
   17.7726   18.4649   24.9006 C   0  0  0  0  0  0  0  0  0  0  0  0
   17.6829   18.5795   25.9795 H   0  0  0  0  0  0  0  0  0  0  0  0
   16.8770   18.6283   24.3032 H   0  0  0  0  0  0  0  0  0  0  0  0
   18.9381   18.1390   24.3357 C   0  0  0  0  0  0  0  0  0  0  0  0
   19.8230   17.9805   24.9517 H   0  0  0  0  0  0  0  0  0  0  0  0
   19.1385   17.9617   22.8471 C   0  0  0  0  0  0  0  0  0  0  0  0
   18.1675   17.8841   22.3392 H   0  0  0  0  0  0  0  0  0  0  0  0
   19.6705   17.0198   22.6578 H   0  0  0  0  0  0  0  0  0  0  0  0
   19.9384   19.1376   22.2484 C   0  0  0  0  0  0  0  0  0  0  0  0
   19.4038   20.0770   22.4470 H   0  0  0  0  0  0  0  0  0  0  0  0
   20.9113   19.2134   22.7531 H   0  0  0  0  0  0  0  0  0  0  0  0
   20.1550   18.9700   20.7275 C   0  0  0  0  0  0  0  0  0  0  0  0
   19.1833   18.9080   20.2178 H   0  0  0  0  0  0  0  0  0  0  0  0
   20.6726   18.0199   20.5378 H   0  0  0  0  0  0  0  0  0  0  0  0
   20.9848   20.1265   20.1121 C   0  0  0  0  0  0  0  0  0  0  0  0
   21.9478   20.2187   20.6289 H   0  0  0  0  0  0  0  0  0  0  0  0
   21.2080   19.8996   19.0630 H   0  0  0  0  0  0  0  0  0  0  0  0
   20.2819   21.4807   20.1464 C   0  0  0  0  0  0  0  0  0  0  0  0
   20.6549   22.3026   20.9602 O   0  5  0  0  0  0  0  0  0  0  0  0
   19.3878   21.6817   19.3482 O   0  0  0  0  0  0  0  0  0  0  0  0
  1  2  1  0  0  0  0
  1  3  1  0  0  0  0
  1  4  2  0  0  0  0
  4  5  1  0  0  0  0
  4  6  1  0  0  0  0
  6  7  1  0  0  0  0
  6  8  1  0  0  0  0
  6  9  1  0  0  0  0
  9 10  1  0  0  0  0
  9 11  1  0  0  0  0
  9 12  1  0  0  0  0
 12 13  1  0  0  0  0
 12 14  1  0  0  0  0
 12 15  1  0  0  0  0
 15 16  1  0  0  0  0
 15 17  1  0  0  0  0
 15 18  1  0  0  0  0
 18 19  1  0  0  0  0
 18 20  2  0  0  0  0
M  END
> <VConfSearch Rank>
110

> <Conf_Id>
81

> <Delta U+W>
-0.051

> <U+W>
-51.796

> <U>
9.412

> <W>
-61.209

> <W(PB)>
-63.452

> <W(SA)>
2.243

> <Valence>
9.329

> <Coulomb>
-0.323

> <VdW>
0.406

> <VdW6>
-6.640

> <VdW12>
7.046

> <Bond>
0.105

> <Angle>
2.401

> <Pdih>
6.823

> <Idih>
0.000

> <Tether>
0.000

$$$$
VeraChem MOL file


 20 19  0  0  0  0  0  0  0  0999 V2000     
   16.9850   19.4342   23.8509 C   0  0  0  0  0  0  0  0  0  0  0  0
   16.4305   18.4986   23.7996 H   0  0  0  0  0  0  0  0  0  0  0  0
   16.7163   20.1334   24.6409 H   0  0  0  0  0  0  0  0  0  0  0  0
   17.9596   19.7157   22.9822 C   0  0  0  0  0  0  0  0  0  0  0  0
   18.5007   20.6590   23.0495 H   0  0  0  0  0  0  0  0  0  0  0  0
   18.3841   18.7967   21.8567 C   0  0  0  0  0  0  0  0  0  0  0  0
   18.5090   19.3701   20.9290 H   0  0  0  0  0  0  0  0  0  0  0  0
   17.5876   18.0684   21.6530 H   0  0  0  0  0  0  0  0  0  0  0  0
   19.6843   18.0237   22.1831 C   0  0  0  0  0  0  0  0  0  0  0  0
   19.5079   17.3912   23.0639 H   0  0  0  0  0  0  0  0  0  0  0  0
   19.9074   17.3369   21.3552 H   0  0  0  0  0  0  0  0  0  0  0  0
   20.9211   18.9195   22.4515 C   0  0  0  0  0  0  0  0  0  0  0  0
   21.7758   18.2746   22.6978 H   0  0  0  0  0  0  0  0  0  0  0  0
   20.7403   19.5367   23.3415 H   0  0  0  0  0  0  0  0  0  0  0  0
   21.3177   19.8398   21.2649 C   0  0  0  0  0  0  0  0  0  0  0  0
   20.5134   20.5497   21.0411 H   0  0  0  0  0  0  0  0  0  0  0  0
   22.1910   20.4394   21.5468 H   0  0  0  0  0  0  0  0  0  0  0  0
   21.6762   19.0879   19.9863 C   0  0  0  0  0  0  0  0  0  0  0  0
   20.9012   19.1384   19.0515 O   0  5  0  0  0  0  0  0  0  0  0  0
   22.7312   18.4851   19.9535 O   0  0  0  0  0  0  0  0  0  0  0  0
  1  2  1  0  0  0  0
  1  3  1  0  0  0  0
  1  4  2  0  0  0  0
  4  5  1  0  0  0  0
  4  6  1  0  0  0  0
  6  7  1  0  0  0  0
  6  8  1  0  0  0  0
  6  9  1  0  0  0  0
  9 10  1  0  0  0  0
  9 11  1  0  0  0  0
  9 12  1  0  0  0  0
 12 13  1  0  0  0  0
 12 14  1  0  0  0  0
 12 15  1  0  0  0  0
 15 16  1  0  0  0  0
 15 17  1  0  0  0  0
 15 18  1  0  0  0  0
 18 19  1  0  0  0  0
 18 20  2  0  0  0  0
M  END
> <VConfSearch Rank>
111

> <Conf_Id>
86

> <Delta U+W>
1.248

> <U+W>
-50.498

> <U>
10.404

> <W>
-60.901

> <W(PB)>
-63.061

> <W(SA)>
2.159

> <Valence>
10.021

> <Coulomb>
0.094

> <VdW>
0.289

> <VdW6>
-8.409

> <VdW12>
8.698

> <Bond>
0.179

> <Angle>
2.939

> <Pdih>
6.902

> <Idih>
0.001

> <Tether>
0.000

$$$$
VeraChem MOL file


 20 19  0  0  0  0  0  0  0  0999 V2000     
   21.3629   17.2727   24.0551 C   0  0  0  0  0  0  0  0  0  0  0  0
   21.6937   16.2397   24.1477 H   0  0  0  0  0  0  0  0  0  0  0  0
   22.1245   18.0492   24.1047 H   0  0  0  0  0  0  0  0  0  0  0  0
   20.0725   17.5716   23.8837 C   0  0  0  0  0  0  0  0  0  0  0  0
   19.3262   16.7791   23.8344 H   0  0  0  0  0  0  0  0  0  0  0  0
   19.5379   18.9814   23.7468 C   0  0  0  0  0  0  0  0  0  0  0  0
   20.3122   19.7158   24.0074 H   0  0  0  0  0  0  0  0  0  0  0  0
   18.7199   19.1259   24.4649 H   0  0  0  0  0  0  0  0  0  0  0  0
   19.0091   19.2727   22.3243 C   0  0  0  0  0  0  0  0  0  0  0  0
   18.2375   18.5363   22.0613 H   0  0  0  0  0  0  0  0  0  0  0  0
   18.5167   20.2548   22.3256 H   0  0  0  0  0  0  0  0  0  0  0  0
   20.1293   19.2619   21.2572 C   0  0  0  0  0  0  0  0  0  0  0  0
   20.6179   18.2784   21.2500 H   0  0  0  0  0  0  0  0  0  0  0  0
   20.9027   19.9958   21.5226 H   0  0  0  0  0  0  0  0  0  0  0  0
   19.5985   19.5660   19.8321 C   0  0  0  0  0  0  0  0  0  0  0  0
   20.4053   19.4252   19.1032 H   0  0  0  0  0  0  0  0  0  0  0  0
   18.8029   18.8598   19.5656 H   0  0  0  0  0  0  0  0  0  0  0  0
   19.0684   20.9862   19.6572 C   0  0  0  0  0  0  0  0  0  0  0  0
   19.8748   21.8893   19.5511 O   0  5  0  0  0  0  0  0  0  0  0  0
   17.8649   21.1513   19.6202 O   0  0  0  0  0  0  0  0  0  0  0  0
  1  2  1  0  0  0  0
  1  3  1  0  0  0  0
  1  4  2  0  0  0  0
  4  5  1  0  0  0  0
  4  6  1  0  0  0  0
  6  7  1  0  0  0  0
  6  8  1  0  0  0  0
  6  9  1  0  0  0  0
  9 10  1  0  0  0  0
  9 11  1  0  0  0  0
  9 12  1  0  0  0  0
 12 13  1  0  0  0  0
 12 14  1  0  0  0  0
 12 15  1  0  0  0  0
 15 16  1  0  0  0  0
 15 17  1  0  0  0  0
 15 18  1  0  0  0  0
 18 19  1  0  0  0  0
 18 20  2  0  0  0  0
M  END
> <VConfSearch Rank>
112

> <Conf_Id>
28

> <Delta U+W>
0.446

> <U+W>
-51.299

> <U>
9.295

> <W>
-60.594

> <W(PB)>
-62.806

> <W(SA)>
2.212

> <Valence>
9.495

> <Coulomb>
-0.610

> <VdW>
0.409

> <VdW6>
-7.332

> <VdW12>
7.741

> <Bond>
0.126

> <Angle>
2.497

> <Pdih>
6.872

> <Idih>
0.000

> <Tether>
0.000

$$$$
VeraChem MOL file


 20 19  0  0  0  0  0  0  0  0999 V2000     
   19.4765   16.2230   22.8847 C   0  0  0  0  0  0  0  0  0  0  0  0
   20.4059   16.3261   22.3288 H   0  0  0  0  0  0  0  0  0  0  0  0
   19.2779   15.2515   23.3340 H   0  0  0  0  0  0  0  0  0  0  0  0
   18.6077   17.2309   23.0244 C   0  0  0  0  0  0  0  0  0  0  0  0
   17.6940   17.0673   23.5953 H   0  0  0  0  0  0  0  0  0  0  0  0
   18.7447   18.6343   22.4578 C   0  0  0  0  0  0  0  0  0  0  0  0
   18.7745   19.3440   23.2945 H   0  0  0  0  0  0  0  0  0  0  0  0
   17.8344   18.8752   21.8928 H   0  0  0  0  0  0  0  0  0  0  0  0
   19.9765   18.8528   21.5448 C   0  0  0  0  0  0  0  0  0  0  0  0
   20.8973   18.7008   22.1247 H   0  0  0  0  0  0  0  0  0  0  0  0
   19.9742   18.0917   20.7528 H   0  0  0  0  0  0  0  0  0  0  0  0
   20.0083   20.2487   20.8743 C   0  0  0  0  0  0  0  0  0  0  0  0
   19.1089   20.3740   20.2564 H   0  0  0  0  0  0  0  0  0  0  0  0
   20.8627   20.2895   20.1846 H   0  0  0  0  0  0  0  0  0  0  0  0
   20.1136   21.4385   21.8672 C   0  0  0  0  0  0  0  0  0  0  0  0
   20.1183   22.3799   21.3055 H   0  0  0  0  0  0  0  0  0  0  0  0
   19.2368   21.4742   22.5237 H   0  0  0  0  0  0  0  0  0  0  0  0
   21.3713   21.4207   22.7313 C   0  0  0  0  0  0  0  0  0  0  0  0
   22.4372   21.6549   22.1959 O   0  5  0  0  0  0  0  0  0  0  0  0
   21.2508   21.1945   23.9192 O   0  0  0  0  0  0  0  0  0  0  0  0
  1  2  1  0  0  0  0
  1  3  1  0  0  0  0
  1  4  2  0  0  0  0
  4  5  1  0  0  0  0
  4  6  1  0  0  0  0
  6  7  1  0  0  0  0
  6  8  1  0  0  0  0
  6  9  1  0  0  0  0
  9 10  1  0  0  0  0
  9 11  1  0  0  0  0
  9 12  1  0  0  0  0
 12 13  1  0  0  0  0
 12 14  1  0  0  0  0
 12 15  1  0  0  0  0
 15 16  1  0  0  0  0
 15 17  1  0  0  0  0
 15 18  1  0  0  0  0
 18 19  1  0  0  0  0
 18 20  2  0  0  0  0
M  END
> <VConfSearch Rank>
113

> <Conf_Id>
53

> <Delta U+W>
0.549

> <U+W>
-51.197

> <U>
10.870

> <W>
-62.067

> <W(PB)>
-64.228

> <W(SA)>
2.161

> <Valence>
8.803

> <Coulomb>
1.020

> <VdW>
1.048

> <VdW6>
-8.312

> <VdW12>
9.360

> <Bond>
0.212

> <Angle>
3.379

> <Pdih>
5.211

> <Idih>
0.001

> <Tether>
0.000

$$$$
VeraChem MOL file


 20 19  0  0  0  0  0  0  0  0999 V2000     
   17.2046   19.2144   20.8104 C   0  0  0  0  0  0  0  0  0  0  0  0
   17.7881   19.9648   20.2815 H   0  0  0  0  0  0  0  0  0  0  0  0
   16.1362   19.3981   20.9088 H   0  0  0  0  0  0  0  0  0  0  0  0
   17.7593   18.1079   21.3170 C   0  0  0  0  0  0  0  0  0  0  0  0
   17.1287   17.3862   21.8355 H   0  0  0  0  0  0  0  0  0  0  0  0
   19.2298   17.7281   21.2587 C   0  0  0  0  0  0  0  0  0  0  0  0
   19.3772   17.0176   20.4348 H   0  0  0  0  0  0  0  0  0  0  0  0
   19.4890   17.1638   22.1636 H   0  0  0  0  0  0  0  0  0  0  0  0
   20.2275   18.9053   21.1015 C   0  0  0  0  0  0  0  0  0  0  0  0
   21.2406   18.4932   20.9987 H   0  0  0  0  0  0  0  0  0  0  0  0
   20.0263   19.4309   20.1589 H   0  0  0  0  0  0  0  0  0  0  0  0
   20.2178   19.9260   22.2698 C   0  0  0  0  0  0  0  0  0  0  0  0
   19.2303   20.4001   22.3379 H   0  0  0  0  0  0  0  0  0  0  0  0
   20.9272   20.7322   22.0381 H   0  0  0  0  0  0  0  0  0  0  0  0
   20.5841   19.3244   23.6541 C   0  0  0  0  0  0  0  0  0  0  0  0
   20.5467   20.1137   24.4137 H   0  0  0  0  0  0  0  0  0  0  0  0
   19.8471   18.5710   23.9544 H   0  0  0  0  0  0  0  0  0  0  0  0
   21.9754   18.7006   23.7153 C   0  0  0  0  0  0  0  0  0  0  0  0
   22.0622   17.4900   23.7779 O   0  5  0  0  0  0  0  0  0  0  0  0
   22.9366   19.4446   23.7169 O   0  0  0  0  0  0  0  0  0  0  0  0
  1  2  1  0  0  0  0
  1  3  1  0  0  0  0
  1  4  2  0  0  0  0
  4  5  1  0  0  0  0
  4  6  1  0  0  0  0
  6  7  1  0  0  0  0
  6  8  1  0  0  0  0
  6  9  1  0  0  0  0
  9 10  1  0  0  0  0
  9 11  1  0  0  0  0
  9 12  1  0  0  0  0
 12 13  1  0  0  0  0
 12 14  1  0  0  0  0
 12 15  1  0  0  0  0
 15 16  1  0  0  0  0
 15 17  1  0  0  0  0
 15 18  1  0  0  0  0
 18 19  1  0  0  0  0
 18 20  2  0  0  0  0
M  END
> <VConfSearch Rank>
114

> <Conf_Id>
66

> <Delta U+W>
1.737

> <U+W>
-50.008

> <U>
11.091

> <W>
-61.099

> <W(PB)>
-63.213

> <W(SA)>
2.114

> <Valence>
9.664

> <Coulomb>
0.658

> <VdW>
0.769

> <VdW6>
-9.171

> <VdW12>
9.940

> <Bond>
0.244

> <Angle>
3.658

> <Pdih>
5.762

> <Idih>
0.001

> <Tether>
0.000

$$$$
VeraChem MOL file


 20 19  0  0  0  0  0  0  0  0999 V2000     
   21.9380   19.6770   20.8095 C   0  0  0  0  0  0  0  0  0  0  0  0
   22.0222   18.5978   20.9165 H   0  0  0  0  0  0  0  0  0  0  0  0
   22.3983   20.1232   19.9298 H   0  0  0  0  0  0  0  0  0  0  0  0
   21.3061   20.4360   21.7115 C   0  0  0  0  0  0  0  0  0  0  0  0
   21.2537   21.5132   21.5557 H   0  0  0  0  0  0  0  0  0  0  0  0
   20.6163   19.9522   22.9767 C   0  0  0  0  0  0  0  0  0  0  0  0
   19.7398   20.5840   23.1671 H   0  0  0  0  0  0  0  0  0  0  0  0
   21.2831   20.1334   23.8300 H   0  0  0  0  0  0  0  0  0  0  0  0
   20.1757   18.4649   22.9828 C   0  0  0  0  0  0  0  0  0  0  0  0
   21.0568   17.8231   22.8507 H   0  0  0  0  0  0  0  0  0  0  0  0
   19.7777   18.2200   23.9769 H   0  0  0  0  0  0  0  0  0  0  0  0
   19.1099   18.1005   21.9179 C   0  0  0  0  0  0  0  0  0  0  0  0
   18.9360   17.0162   21.9540 H   0  0  0  0  0  0  0  0  0  0  0  0
   19.4897   18.3171   20.9107 H   0  0  0  0  0  0  0  0  0  0  0  0
   17.7556   18.8277   22.1224 C   0  0  0  0  0  0  0  0  0  0  0  0
   17.3867   18.6628   23.1416 H   0  0  0  0  0  0  0  0  0  0  0  0
   17.8755   19.9088   21.9890 H   0  0  0  0  0  0  0  0  0  0  0  0
   16.6805   18.3564   21.1496 C   0  0  0  0  0  0  0  0  0  0  0  0
   16.5582   18.9496   20.0961 O   0  5  0  0  0  0  0  0  0  0  0  0
   16.0023   17.3985   21.4650 O   0  0  0  0  0  0  0  0  0  0  0  0
  1  2  1  0  0  0  0
  1  3  1  0  0  0  0
  1  4  2  0  0  0  0
  4  5  1  0  0  0  0
  4  6  1  0  0  0  0
  6  7  1  0  0  0  0
  6  8  1  0  0  0  0
  6  9  1  0  0  0  0
  9 10  1  0  0  0  0
  9 11  1  0  0  0  0
  9 12  1  0  0  0  0
 12 13  1  0  0  0  0
 12 14  1  0  0  0  0
 12 15  1  0  0  0  0
 15 16  1  0  0  0  0
 15 17  1  0  0  0  0
 15 18  1  0  0  0  0
 18 19  1  0  0  0  0
 18 20  2  0  0  0  0
M  END
> <VConfSearch Rank>
115

> <Conf_Id>
64

> <Delta U+W>
0.366

> <U+W>
-51.379

> <U>
10.000

> <W>
-61.379

> <W(PB)>
-63.541

> <W(SA)>
2.162

> <Valence>
9.398

> <Coulomb>
-0.504

> <VdW>
1.105

> <VdW6>
-7.975

> <VdW12>
9.080

> <Bond>
0.216

> <Angle>
3.417

> <Pdih>
5.765

> <Idih>
0.001

> <Tether>
0.000

$$$$
VeraChem MOL file


 20 19  0  0  0  0  0  0  0  0999 V2000     
   18.8576   16.3088   22.1143 C   0  0  0  0  0  0  0  0  0  0  0  0
   19.2370   16.2455   23.1328 H   0  0  0  0  0  0  0  0  0  0  0  0
   18.9668   15.4286   21.4831 H   0  0  0  0  0  0  0  0  0  0  0  0
   18.2833   17.4227   21.6521 C   0  0  0  0  0  0  0  0  0  0  0  0
   17.9123   17.4662   20.6285 H   0  0  0  0  0  0  0  0  0  0  0  0
   18.0971   18.6840   22.4685 C   0  0  0  0  0  0  0  0  0  0  0  0
   18.3065   18.4922   23.5296 H   0  0  0  0  0  0  0  0  0  0  0  0
   17.0457   18.9958   22.4119 H   0  0  0  0  0  0  0  0  0  0  0  0
   18.9884   19.8428   21.9680 C   0  0  0  0  0  0  0  0  0  0  0  0
   18.7793   20.0341   20.9065 H   0  0  0  0  0  0  0  0  0  0  0  0
   18.7184   20.7583   22.5118 H   0  0  0  0  0  0  0  0  0  0  0  0
   20.4961   19.5624   22.1625 C   0  0  0  0  0  0  0  0  0  0  0  0
   20.7848   18.6631   21.6011 H   0  0  0  0  0  0  0  0  0  0  0  0
   20.7001   19.3545   23.2220 H   0  0  0  0  0  0  0  0  0  0  0  0
   21.3687   20.7539   21.6968 C   0  0  0  0  0  0  0  0  0  0  0  0
   21.1851   20.9655   20.6366 H   0  0  0  0  0  0  0  0  0  0  0  0
   21.1061   21.6583   22.2586 H   0  0  0  0  0  0  0  0  0  0  0  0
   22.8611   20.5010   21.8784 C   0  0  0  0  0  0  0  0  0  0  0  0
   23.3678   20.7980   22.9423 O   0  5  0  0  0  0  0  0  0  0  0  0
   23.4749   20.0010   20.9565 O   0  0  0  0  0  0  0  0  0  0  0  0
  1  2  1  0  0  0  0
  1  3  1  0  0  0  0
  1  4  2  0  0  0  0
  4  5  1  0  0  0  0
  4  6  1  0  0  0  0
  6  7  1  0  0  0  0
  6  8  1  0  0  0  0
  6  9  1  0  0  0  0
  9 10  1  0  0  0  0
  9 11  1  0  0  0  0
  9 12  1  0  0  0  0
 12 13  1  0  0  0  0
 12 14  1  0  0  0  0
 12 15  1  0  0  0  0
 15 16  1  0  0  0  0
 15 17  1  0  0  0  0
 15 18  1  0  0  0  0
 18 19  1  0  0  0  0
 18 20  2  0  0  0  0
M  END
> <VConfSearch Rank>
116

> <Conf_Id>
42

> <Delta U+W>
-0.601

> <U+W>
-52.347

> <U>
8.428

> <W>
-60.774

> <W(PB)>
-62.982

> <W(SA)>
2.208

> <Valence>
9.231

> <Coulomb>
-1.304

> <VdW>
0.501

> <VdW6>
-6.515

> <VdW12>
7.016

> <Bond>
0.103

> <Angle>
2.328

> <Pdih>
6.799

> <Idih>
0.000

> <Tether>
0.000

$$$$
VeraChem MOL file


 20 19  0  0  0  0  0  0  0  0999 V2000     
   21.2267   17.5440   20.1092 C   0  0  0  0  0  0  0  0  0  0  0  0
   22.1904   17.7626   20.5662 H   0  0  0  0  0  0  0  0  0  0  0  0
   21.1936   17.4620   19.0242 H   0  0  0  0  0  0  0  0  0  0  0  0
   20.1248   17.3858   20.8473 C   0  0  0  0  0  0  0  0  0  0  0  0
   19.1692   17.1703   20.3699 H   0  0  0  0  0  0  0  0  0  0  0  0
   20.0922   17.4864   22.3575 C   0  0  0  0  0  0  0  0  0  0  0  0
   21.1118   17.5084   22.7657 H   0  0  0  0  0  0  0  0  0  0  0  0
   19.6140   16.5867   22.7668 H   0  0  0  0  0  0  0  0  0  0  0  0
   19.3141   18.7295   22.8446 C   0  0  0  0  0  0  0  0  0  0  0  0
   18.2926   18.7020   22.4407 H   0  0  0  0  0  0  0  0  0  0  0  0
   19.2194   18.6836   23.9381 H   0  0  0  0  0  0  0  0  0  0  0  0
   20.0025   20.0573   22.4492 C   0  0  0  0  0  0  0  0  0  0  0  0
   20.0662   20.1357   21.3550 H   0  0  0  0  0  0  0  0  0  0  0  0
   21.0343   20.0558   22.8255 H   0  0  0  0  0  0  0  0  0  0  0  0
   19.2636   21.3010   23.0077 C   0  0  0  0  0  0  0  0  0  0  0  0
   19.1695   21.2285   24.0979 H   0  0  0  0  0  0  0  0  0  0  0  0
   19.8531   22.2015   22.7991 H   0  0  0  0  0  0  0  0  0  0  0  0
   17.8749   21.5157   22.4125 C   0  0  0  0  0  0  0  0  0  0  0  0
   16.9078   21.2101   23.0823 O   0  5  0  0  0  0  0  0  0  0  0  0
   17.7971   22.0005   21.3008 O   0  0  0  0  0  0  0  0  0  0  0  0
  1  2  1  0  0  0  0
  1  3  1  0  0  0  0
  1  4  2  0  0  0  0
  4  5  1  0  0  0  0
  4  6  1  0  0  0  0
  6  7  1  0  0  0  0
  6  8  1  0  0  0  0
  6  9  1  0  0  0  0
  9 10  1  0  0  0  0
  9 11  1  0  0  0  0
  9 12  1  0  0  0  0
 12 13  1  0  0  0  0
 12 14  1  0  0  0  0
 12 15  1  0  0  0  0
 15 16  1  0  0  0  0
 15 17  1  0  0  0  0
 15 18  1  0  0  0  0
 18 19  1  0  0  0  0
 18 20  2  0  0  0  0
M  END
> <VConfSearch Rank>
117

> <Conf_Id>
68

> <Delta U+W>
0.492

> <U+W>
-51.253

> <U>
10.179

> <W>
-61.432

> <W(PB)>
-63.627

> <W(SA)>
2.195

> <Valence>
9.483

> <Coulomb>
0.361

> <VdW>
0.335

> <VdW6>
-7.385

> <VdW12>
7.720

> <Bond>
0.125

> <Angle>
2.487

> <Pdih>
6.870

> <Idih>
0.001

> <Tether>
0.000

$$$$
VeraChem MOL file


 20 19  0  0  0  0  0  0  0  0999 V2000     
   22.2642   18.6127   20.3508 C   0  0  0  0  0  0  0  0  0  0  0  0
   22.5245   19.5892   19.9458 H   0  0  0  0  0  0  0  0  0  0  0  0
   22.4915   17.7402   19.7405 H   0  0  0  0  0  0  0  0  0  0  0  0
   21.6851   18.4858   21.5475 C   0  0  0  0  0  0  0  0  0  0  0  0
   21.4353   17.4986   21.9351 H   0  0  0  0  0  0  0  0  0  0  0  0
   21.3452   19.6509   22.4524 C   0  0  0  0  0  0  0  0  0  0  0  0
   21.9277   20.5334   22.1548 H   0  0  0  0  0  0  0  0  0  0  0  0
   21.6410   19.4214   23.4848 H   0  0  0  0  0  0  0  0  0  0  0  0
   19.8431   20.0114   22.4079 C   0  0  0  0  0  0  0  0  0  0  0  0
   19.6839   20.9371   22.9774 H   0  0  0  0  0  0  0  0  0  0  0  0
   19.5522   20.2283   21.3707 H   0  0  0  0  0  0  0  0  0  0  0  0
   18.9398   18.8971   22.9877 C   0  0  0  0  0  0  0  0  0  0  0  0
   19.2716   18.6548   24.0062 H   0  0  0  0  0  0  0  0  0  0  0  0
   19.0455   17.9794   22.3931 H   0  0  0  0  0  0  0  0  0  0  0  0
   17.4443   19.3054   23.0294 C   0  0  0  0  0  0  0  0  0  0  0  0
   16.8682   18.5329   23.5523 H   0  0  0  0  0  0  0  0  0  0  0  0
   17.3203   20.2341   23.5995 H   0  0  0  0  0  0  0  0  0  0  0  0
   16.8141   19.4918   21.6521 C   0  0  0  0  0  0  0  0  0  0  0  0
   16.5043   18.4978   21.0253 O   0  5  0  0  0  0  0  0  0  0  0  0
   16.6317   20.6244   21.2509 O   0  0  0  0  0  0  0  0  0  0  0  0
  1  2  1  0  0  0  0
  1  3  1  0  0  0  0
  1  4  2  0  0  0  0
  4  5  1  0  0  0  0
  4  6  1  0  0  0  0
  6  7  1  0  0  0  0
  6  8  1  0  0  0  0
  6  9  1  0  0  0  0
  9 10  1  0  0  0  0
  9 11  1  0  0  0  0
  9 12  1  0  0  0  0
 12 13  1  0  0  0  0
 12 14  1  0  0  0  0
 12 15  1  0  0  0  0
 15 16  1  0  0  0  0
 15 17  1  0  0  0  0
 15 18  1  0  0  0  0
 18 19  1  0  0  0  0
 18 20  2  0  0  0  0
M  END
> <VConfSearch Rank>
118

> <Conf_Id>
87

> <Delta U+W>
0.339

> <U+W>
-51.407

> <U>
10.461

> <W>
-61.867

> <W(PB)>
-64.045

> <W(SA)>
2.178

> <Valence>
9.555

> <Coulomb>
0.483

> <VdW>
0.423

> <VdW6>
-7.223

> <VdW12>
7.646

> <Bond>
0.126

> <Angle>
2.492

> <Pdih>
6.936

> <Idih>
0.001

> <Tether>
0.000

$$$$
VeraChem MOL file


 20 19  0  0  0  0  0  0  0  0999 V2000     
   18.1796   17.4831   19.9597 C   0  0  0  0  0  0  0  0  0  0  0  0
   18.0740   18.2121   19.1580 H   0  0  0  0  0  0  0  0  0  0  0  0
   18.3372   16.4439   19.6762 H   0  0  0  0  0  0  0  0  0  0  0  0
   18.1207   17.8478   21.2432 C   0  0  0  0  0  0  0  0  0  0  0  0
   18.2195   17.1023   22.0313 H   0  0  0  0  0  0  0  0  0  0  0  0
   17.8917   19.2700   21.7087 C   0  0  0  0  0  0  0  0  0  0  0  0
   17.5397   19.2778   22.7488 H   0  0  0  0  0  0  0  0  0  0  0  0
   17.0755   19.7031   21.1149 H   0  0  0  0  0  0  0  0  0  0  0  0
   19.1386   20.1774   21.5640 C   0  0  0  0  0  0  0  0  0  0  0  0
   19.6009   20.0265   20.5789 H   0  0  0  0  0  0  0  0  0  0  0  0
   18.7990   21.2220   21.5803 H   0  0  0  0  0  0  0  0  0  0  0  0
   20.1997   20.0111   22.6809 C   0  0  0  0  0  0  0  0  0  0  0  0
   19.7310   20.1490   23.6650 H   0  0  0  0  0  0  0  0  0  0  0  0
   20.9386   20.8179   22.5769 H   0  0  0  0  0  0  0  0  0  0  0  0
   20.9506   18.6552   22.6496 C   0  0  0  0  0  0  0  0  0  0  0  0
   20.2716   17.8335   22.8982 H   0  0  0  0  0  0  0  0  0  0  0  0
   21.3442   18.4623   21.6445 H   0  0  0  0  0  0  0  0  0  0  0  0
   22.1140   18.6024   23.6331 C   0  0  0  0  0  0  0  0  0  0  0  0
   21.8903   18.2288   24.7677 O   0  5  0  0  0  0  0  0  0  0  0  0
   23.2100   18.9561   23.2450 O   0  0  0  0  0  0  0  0  0  0  0  0
  1  2  1  0  0  0  0
  1  3  1  0  0  0  0
  1  4  2  0  0  0  0
  4  5  1  0  0  0  0
  4  6  1  0  0  0  0
  6  7  1  0  0  0  0
  6  8  1  0  0  0  0
  6  9  1  0  0  0  0
  9 10  1  0  0  0  0
  9 11  1  0  0  0  0
  9 12  1  0  0  0  0
 12 13  1  0  0  0  0
 12 14  1  0  0  0  0
 12 15  1  0  0  0  0
 15 16  1  0  0  0  0
 15 17  1  0  0  0  0
 15 18  1  0  0  0  0
 18 19  1  0  0  0  0
 18 20  2  0  0  0  0
M  END
> <VConfSearch Rank>
119

> <Conf_Id>
51

> <Delta U+W>
1.709

> <U+W>
-50.036

> <U>
10.643

> <W>
-60.679

> <W(PB)>
-62.882

> <W(SA)>
2.203

> <Valence>
11.231

> <Coulomb>
-1.077

> <VdW>
0.489

> <VdW6>
-7.546

> <VdW12>
8.035

> <Bond>
0.159

> <Angle>
3.005

> <Pdih>
8.065

> <Idih>
0.002

> <Tether>
0.000

$$$$
VeraChem MOL file


 20 19  0  0  0  0  0  0  0  0999 V2000     
   17.8488   20.2458   20.0537 C   0  0  0  0  0  0  0  0  0  0  0  0
   17.5464   21.1795   20.5250 H   0  0  0  0  0  0  0  0  0  0  0  0
   17.1036   19.7179   19.4612 H   0  0  0  0  0  0  0  0  0  0  0  0
   19.0857   19.7630   20.1979 C   0  0  0  0  0  0  0  0  0  0  0  0
   19.3720   18.8314   19.7110 H   0  0  0  0  0  0  0  0  0  0  0  0
   20.1740   20.4494   20.9954 C   0  0  0  0  0  0  0  0  0  0  0  0
   20.1719   21.5174   20.7391 H   0  0  0  0  0  0  0  0  0  0  0  0
   21.1608   20.0730   20.6946 H   0  0  0  0  0  0  0  0  0  0  0  0
   19.9989   20.3123   22.5283 C   0  0  0  0  0  0  0  0  0  0  0  0
   20.5934   21.1021   23.0073 H   0  0  0  0  0  0  0  0  0  0  0  0
   18.9548   20.5107   22.8064 H   0  0  0  0  0  0  0  0  0  0  0  0
   20.4582   18.9552   23.1187 C   0  0  0  0  0  0  0  0  0  0  0  0
   20.4574   19.0384   24.2144 H   0  0  0  0  0  0  0  0  0  0  0  0
   21.4980   18.7535   22.8267 H   0  0  0  0  0  0  0  0  0  0  0  0
   19.5652   17.7522   22.7204 C   0  0  0  0  0  0  0  0  0  0  0  0
   18.5113   17.9788   22.9210 H   0  0  0  0  0  0  0  0  0  0  0  0
   19.6566   17.5429   21.6499 H   0  0  0  0  0  0  0  0  0  0  0  0
   19.9271   16.4752   23.4700 C   0  0  0  0  0  0  0  0  0  0  0  0
   20.7771   15.7501   22.9920 O   0  5  0  0  0  0  0  0  0  0  0  0
   19.3642   16.2489   24.5230 O   0  0  0  0  0  0  0  0  0  0  0  0
  1  2  1  0  0  0  0
  1  3  1  0  0  0  0
  1  4  2  0  0  0  0
  4  5  1  0  0  0  0
  4  6  1  0  0  0  0
  6  7  1  0  0  0  0
  6  8  1  0  0  0  0
  6  9  1  0  0  0  0
  9 10  1  0  0  0  0
  9 11  1  0  0  0  0
  9 12  1  0  0  0  0
 12 13  1  0  0  0  0
 12 14  1  0  0  0  0
 12 15  1  0  0  0  0
 15 16  1  0  0  0  0
 15 17  1  0  0  0  0
 15 18  1  0  0  0  0
 18 19  1  0  0  0  0
 18 20  2  0  0  0  0
M  END
> <VConfSearch Rank>
120

> <Conf_Id>
91

> <Delta U+W>
1.604

> <U+W>
-50.141

> <U>
10.644

> <W>
-60.786

> <W(PB)>
-62.965

> <W(SA)>
2.179

> <Valence>
11.230

> <Coulomb>
-1.075

> <VdW>
0.489

> <VdW6>
-7.547

> <VdW12>
8.036

> <Bond>
0.159

> <Angle>
3.006

> <Pdih>
8.064

> <Idih>
0.002

> <Tether>
0.000

$$$$
VeraChem MOL file


 20 19  0  0  0  0  0  0  0  0999 V2000     
   16.9493   16.7270   22.3809 C   0  0  0  0  0  0  0  0  0  0  0  0
   17.1054   16.3643   21.3662 H   0  0  0  0  0  0  0  0  0  0  0  0
   15.9719   16.5563   22.8291 H   0  0  0  0  0  0  0  0  0  0  0  0
   17.9153   17.3594   23.0521 C   0  0  0  0  0  0  0  0  0  0  0  0
   17.7383   17.7153   24.0668 H   0  0  0  0  0  0  0  0  0  0  0  0
   19.2954   17.6314   22.4962 C   0  0  0  0  0  0  0  0  0  0  0  0
   19.4699   17.0242   21.5975 H   0  0  0  0  0  0  0  0  0  0  0  0
   20.0536   17.3317   23.2320 H   0  0  0  0  0  0  0  0  0  0  0  0
   19.4721   19.1246   22.1497 C   0  0  0  0  0  0  0  0  0  0  0  0
   18.7088   19.4203   21.4167 H   0  0  0  0  0  0  0  0  0  0  0  0
   19.3020   19.7312   23.0499 H   0  0  0  0  0  0  0  0  0  0  0  0
   20.8779   19.4207   21.5831 C   0  0  0  0  0  0  0  0  0  0  0  0
   21.0487   18.8147   20.6824 H   0  0  0  0  0  0  0  0  0  0  0  0
   21.6418   19.1241   22.3152 H   0  0  0  0  0  0  0  0  0  0  0  0
   21.0550   20.9225   21.2341 C   0  0  0  0  0  0  0  0  0  0  0  0
   20.2997   21.2237   20.4988 H   0  0  0  0  0  0  0  0  0  0  0  0
   20.8923   21.5330   22.1300 H   0  0  0  0  0  0  0  0  0  0  0  0
   22.4227   21.3032   20.6650 C   0  0  0  0  0  0  0  0  0  0  0  0
   22.5994   22.4711   20.3808 O   0  5  0  0  0  0  0  0  0  0  0  0
   23.2734   20.4471   20.5166 O   0  0  0  0  0  0  0  0  0  0  0  0
  1  2  1  0  0  0  0
  1  3  1  0  0  0  0
  1  4  2  0  0  0  0
  4  5  1  0  0  0  0
  4  6  1  0  0  0  0
  6  7  1  0  0  0  0
  6  8  1  0  0  0  0
  6  9  1  0  0  0  0
  9 10  1  0  0  0  0
  9 11  1  0  0  0  0
  9 12  1  0  0  0  0
 12 13  1  0  0  0  0
 12 14  1  0  0  0  0
 12 15  1  0  0  0  0
 15 16  1  0  0  0  0
 15 17  1  0  0  0  0
 15 18  1  0  0  0  0
 18 19  1  0  0  0  0
 18 20  2  0  0  0  0
M  END
> <VConfSearch Rank>
121

> <Conf_Id>
33

> <Delta U+W>
0.000

> <U+W>
-51.745

> <U>
7.593

> <W>
-59.338

> <W(PB)>
-61.574

> <W(SA)>
2.236

> <Valence>
9.570

> <Coulomb>
-3.091

> <VdW>
1.114

> <VdW6>
-6.064

> <VdW12>
7.178

> <Bond>
0.117

> <Angle>
2.692

> <Pdih>
6.761

> <Idih>
0.000

> <Tether>
0.000

$$$$
VeraChem MOL file


 20 19  0  0  0  0  0  0  0  0999 V2000     
   19.7251   15.9985   23.8873 C   0  0  0  0  0  0  0  0  0  0  0  0
   18.8027   16.3188   24.3693 H   0  0  0  0  0  0  0  0  0  0  0  0
   20.2381   15.1364   24.3102 H   0  0  0  0  0  0  0  0  0  0  0  0
   20.2128   16.6369   22.8204 C   0  0  0  0  0  0  0  0  0  0  0  0
   21.1381   16.3007   22.3532 H   0  0  0  0  0  0  0  0  0  0  0  0
   19.5565   17.8388   22.1782 C   0  0  0  0  0  0  0  0  0  0  0  0
   18.5248   17.9462   22.5395 H   0  0  0  0  0  0  0  0  0  0  0  0
   19.4984   17.6806   21.0939 H   0  0  0  0  0  0  0  0  0  0  0  0
   20.3460   19.1315   22.4841 C   0  0  0  0  0  0  0  0  0  0  0  0
   20.4644   19.2241   23.5726 H   0  0  0  0  0  0  0  0  0  0  0  0
   21.3596   19.0529   22.0676 H   0  0  0  0  0  0  0  0  0  0  0  0
   19.6621   20.4131   21.9514 C   0  0  0  0  0  0  0  0  0  0  0  0
   20.2253   21.2869   22.3076 H   0  0  0  0  0  0  0  0  0  0  0  0
   18.6530   20.5001   22.3776 H   0  0  0  0  0  0  0  0  0  0  0  0
   19.5776   20.4722   20.4041 C   0  0  0  0  0  0  0  0  0  0  0  0
   20.5743   20.3436   19.9653 H   0  0  0  0  0  0  0  0  0  0  0  0
   18.9458   19.6634   20.0201 H   0  0  0  0  0  0  0  0  0  0  0  0
   19.0036   21.7897   19.8954 C   0  0  0  0  0  0  0  0  0  0  0  0
   17.7991   21.8764   19.7594 O   0  5  0  0  0  0  0  0  0  0  0  0
   19.7743   22.7011   19.6674 O   0  0  0  0  0  0  0  0  0  0  0  0
  1  2  1  0  0  0  0
  1  3  1  0  0  0  0
  1  4  2  0  0  0  0
  4  5  1  0  0  0  0
  4  6  1  0  0  0  0
  6  7  1  0  0  0  0
  6  8  1  0  0  0  0
  6  9  1  0  0  0  0
  9 10  1  0  0  0  0
  9 11  1  0  0  0  0
  9 12  1  0  0  0  0
 12 13  1  0  0  0  0
 12 14  1  0  0  0  0
 12 15  1  0  0  0  0
 15 16  1  0  0  0  0
 15 17  1  0  0  0  0
 15 18  1  0  0  0  0
 18 19  1  0  0  0  0
 18 20  2  0  0  0  0
M  END
> <VConfSearch Rank>
122

> <Conf_Id>
37

> <Delta U+W>
-0.384

> <U+W>
-52.130

> <U>
7.491

> <W>
-59.621

> <W(PB)>
-61.853

> <W(SA)>
2.232

> <Valence>
9.604

> <Coulomb>
-2.799

> <VdW>
0.686

> <VdW6>
-6.435

> <VdW12>
7.121

> <Bond>
0.124

> <Angle>
2.493

> <Pdih>
6.986

> <Idih>
0.001

> <Tether>
0.000

$$$$
VeraChem MOL file


 20 19  0  0  0  0  0  0  0  0999 V2000     
   20.9664   19.7209   24.9545 C   0  0  0  0  0  0  0  0  0  0  0  0
   21.3648   19.9584   25.9394 H   0  0  0  0  0  0  0  0  0  0  0  0
   20.0083   19.2064   24.9236 H   0  0  0  0  0  0  0  0  0  0  0  0
   21.6387   20.0544   23.8469 C   0  0  0  0  0  0  0  0  0  0  0  0
   22.5945   20.5691   23.9420 H   0  0  0  0  0  0  0  0  0  0  0  0
   21.2132   19.7913   22.4121 C   0  0  0  0  0  0  0  0  0  0  0  0
   21.9977   19.2067   21.9130 H   0  0  0  0  0  0  0  0  0  0  0  0
   21.1709   20.7486   21.8755 H   0  0  0  0  0  0  0  0  0  0  0  0
   19.8589   19.0613   22.2545 C   0  0  0  0  0  0  0  0  0  0  0  0
   19.9017   18.0929   22.7717 H   0  0  0  0  0  0  0  0  0  0  0  0
   19.0659   19.6515   22.7338 H   0  0  0  0  0  0  0  0  0  0  0  0
   19.5011   18.8332   20.7696 C   0  0  0  0  0  0  0  0  0  0  0  0
   20.2909   18.2432   20.2842 H   0  0  0  0  0  0  0  0  0  0  0  0
   19.4568   19.7986   20.2463 H   0  0  0  0  0  0  0  0  0  0  0  0
   18.1453   18.1023   20.6091 C   0  0  0  0  0  0  0  0  0  0  0  0
   18.1771   17.1298   21.1149 H   0  0  0  0  0  0  0  0  0  0  0  0
   17.3430   18.6853   21.0772 H   0  0  0  0  0  0  0  0  0  0  0  0
   17.7696   17.8655   19.1508 C   0  0  0  0  0  0  0  0  0  0  0  0
   18.1430   16.8370   18.6221 O   0  5  0  0  0  0  0  0  0  0  0  0
   17.1303   18.7246   18.5764 O   0  0  0  0  0  0  0  0  0  0  0  0
  1  2  1  0  0  0  0
  1  3  1  0  0  0  0
  1  4  2  0  0  0  0
  4  5  1  0  0  0  0
  4  6  1  0  0  0  0
  6  7  1  0  0  0  0
  6  8  1  0  0  0  0
  6  9  1  0  0  0  0
  9 10  1  0  0  0  0
  9 11  1  0  0  0  0
  9 12  1  0  0  0  0
 12 13  1  0  0  0  0
 12 14  1  0  0  0  0
 12 15  1  0  0  0  0
 15 16  1  0  0  0  0
 15 17  1  0  0  0  0
 15 18  1  0  0  0  0
 18 19  1  0  0  0  0
 18 20  2  0  0  0  0
M  END
> <VConfSearch Rank>
123

> <Conf_Id>
44

> <Delta U+W>
-1.440

> <U+W>
-53.185

> <U>
6.572

> <W>
-59.757

> <W(PB)>
-62.007

> <W(SA)>
2.249

> <Valence>
7.989

> <Coulomb>
-2.697

> <VdW>
1.281

> <VdW6>
-6.467

> <VdW12>
7.748

> <Bond>
0.136

> <Angle>
2.854

> <Pdih>
4.997

> <Idih>
0.001

> <Tether>
0.000

$$$$
VeraChem MOL file


 20 19  0  0  0  0  0  0  0  0999 V2000     
   21.9914   21.1801   23.5600 C   0  0  0  0  0  0  0  0  0  0  0  0
   22.2331   21.4394   22.5305 H   0  0  0  0  0  0  0  0  0  0  0  0
   22.6764   21.5182   24.3358 H   0  0  0  0  0  0  0  0  0  0  0  0
   20.8999   20.4729   23.8636 C   0  0  0  0  0  0  0  0  0  0  0  0
   20.6765   20.2235   24.9007 H   0  0  0  0  0  0  0  0  0  0  0  0
   19.9035   19.9711   22.8421 C   0  0  0  0  0  0  0  0  0  0  0  0
   20.0563   20.4892   21.8867 H   0  0  0  0  0  0  0  0  0  0  0  0
   18.8849   20.2120   23.1745 H   0  0  0  0  0  0  0  0  0  0  0  0
   20.0357   18.4447   22.6411 C   0  0  0  0  0  0  0  0  0  0  0  0
   21.0378   18.2101   22.2564 H   0  0  0  0  0  0  0  0  0  0  0  0
   19.9551   17.9491   23.6183 H   0  0  0  0  0  0  0  0  0  0  0  0
   18.9629   17.8507   21.6973 C   0  0  0  0  0  0  0  0  0  0  0  0
   17.9602   18.0763   22.0860 H   0  0  0  0  0  0  0  0  0  0  0  0
   19.0578   16.7560   21.7014 H   0  0  0  0  0  0  0  0  0  0  0  0
   19.0772   18.3546   20.2351 C   0  0  0  0  0  0  0  0  0  0  0  0
   18.8962   19.4341   20.1827 H   0  0  0  0  0  0  0  0  0  0  0  0
   20.0882   18.1746   19.8507 H   0  0  0  0  0  0  0  0  0  0  0  0
   18.0867   17.6729   19.2981 C   0  0  0  0  0  0  0  0  0  0  0  0
   18.4353   16.6517   18.7393 O   0  5  0  0  0  0  0  0  0  0  0  0
   16.9856   18.1700   19.1669 O   0  0  0  0  0  0  0  0  0  0  0  0
  1  2  1  0  0  0  0
  1  3  1  0  0  0  0
  1  4  2  0  0  0  0
  4  5  1  0  0  0  0
  4  6  1  0  0  0  0
  6  7  1  0  0  0  0
  6  8  1  0  0  0  0
  6  9  1  0  0  0  0
  9 10  1  0  0  0  0
  9 11  1  0  0  0  0
  9 12  1  0  0  0  0
 12 13  1  0  0  0  0
 12 14  1  0  0  0  0
 12 15  1  0  0  0  0
 15 16  1  0  0  0  0
 15 17  1  0  0  0  0
 15 18  1  0  0  0  0
 18 19  1  0  0  0  0
 18 20  2  0  0  0  0
M  END
> <VConfSearch Rank>
124

> <Conf_Id>
38

> <Delta U+W>
-0.381

> <U+W>
-52.126

> <U>
7.601

> <W>
-59.727

> <W(PB)>
-61.964

> <W(SA)>
2.236

> <Valence>
9.602

> <Coulomb>
-2.686

> <VdW>
0.685

> <VdW6>
-6.453

> <VdW12>
7.139

> <Bond>
0.125

> <Angle>
2.485

> <Pdih>
6.991

> <Idih>
0.001

> <Tether>
0.000

$$$$
VeraChem MOL file


 20 19  0  0  0  0  0  0  0  0999 V2000     
   17.1514   19.7644   19.6194 C   0  0  0  0  0  0  0  0  0  0  0  0
   17.8546   20.1251   18.8704 H   0  0  0  0  0  0  0  0  0  0  0  0
   16.1941   19.3849   19.2661 H   0  0  0  0  0  0  0  0  0  0  0  0
   17.4485   19.7828   20.9214 C   0  0  0  0  0  0  0  0  0  0  0  0
   16.7307   19.4161   21.6549 H   0  0  0  0  0  0  0  0  0  0  0  0
   18.7550   20.2947   21.4857 C   0  0  0  0  0  0  0  0  0  0  0  0
   18.5515   20.9844   22.3158 H   0  0  0  0  0  0  0  0  0  0  0  0
   19.2994   20.8689   20.7237 H   0  0  0  0  0  0  0  0  0  0  0  0
   19.6399   19.1329   21.9841 C   0  0  0  0  0  0  0  0  0  0  0  0
   19.0940   18.5617   22.7478 H   0  0  0  0  0  0  0  0  0  0  0  0
   19.8373   18.4427   21.1523 H   0  0  0  0  0  0  0  0  0  0  0  0
   20.9786   19.6392   22.5670 C   0  0  0  0  0  0  0  0  0  0  0  0
   20.7849   20.3217   23.4063 H   0  0  0  0  0  0  0  0  0  0  0  0
   21.5096   20.2217   21.8020 H   0  0  0  0  0  0  0  0  0  0  0  0
   21.8954   18.4838   23.0459 C   0  0  0  0  0  0  0  0  0  0  0  0
   22.0755   17.7782   22.2258 H   0  0  0  0  0  0  0  0  0  0  0  0
   22.8720   18.8876   23.3375 H   0  0  0  0  0  0  0  0  0  0  0  0
   21.3458   17.7110   24.2416 C   0  0  0  0  0  0  0  0  0  0  0  0
   20.8777   16.6064   24.0476 O   0  5  0  0  0  0  0  0  0  0  0  0
   21.4109   18.2312   25.3381 O   0  0  0  0  0  0  0  0  0  0  0  0
  1  2  1  0  0  0  0
  1  3  1  0  0  0  0
  1  4  2  0  0  0  0
  4  5  1  0  0  0  0
  4  6  1  0  0  0  0
  6  7  1  0  0  0  0
  6  8  1  0  0  0  0
  6  9  1  0  0  0  0
  9 10  1  0  0  0  0
  9 11  1  0  0  0  0
  9 12  1  0  0  0  0
 12 13  1  0  0  0  0
 12 14  1  0  0  0  0
 12 15  1  0  0  0  0
 15 16  1  0  0  0  0
 15 17  1  0  0  0  0
 15 18  1  0  0  0  0
 18 19  1  0  0  0  0
 18 20  2  0  0  0  0
M  END
> <VConfSearch Rank>
125

> <Conf_Id>
58

> <Delta U+W>
0.019

> <U+W>
-51.727

> <U>
8.963

> <W>
-60.690

> <W(PB)>
-62.934

> <W(SA)>
2.244

> <Valence>
9.327

> <Coulomb>
-0.780

> <VdW>
0.417

> <VdW6>
-6.635

> <VdW12>
7.052

> <Bond>
0.105

> <Angle>
2.399

> <Pdih>
6.822

> <Idih>
0.000

> <Tether>
0.000

$$$$
VeraChem MOL file


 20 19  0  0  0  0  0  0  0  0999 V2000     
   17.3277   16.9634   23.3409 C   0  0  0  0  0  0  0  0  0  0  0  0
   16.9514   16.7107   22.3509 H   0  0  0  0  0  0  0  0  0  0  0  0
   16.6691   16.7817   24.1885 H   0  0  0  0  0  0  0  0  0  0  0  0
   18.5478   17.4786   23.5129 C   0  0  0  0  0  0  0  0  0  0  0  0
   18.9051   17.7256   24.5124 H   0  0  0  0  0  0  0  0  0  0  0  0
   19.5170   17.7575   22.3857 C   0  0  0  0  0  0  0  0  0  0  0  0
   19.1879   17.2523   21.4675 H   0  0  0  0  0  0  0  0  0  0  0  0
   20.5027   17.3442   22.6381 H   0  0  0  0  0  0  0  0  0  0  0  0
   19.6439   19.2726   22.1221 C   0  0  0  0  0  0  0  0  0  0  0  0
   18.6552   19.6833   21.8747 H   0  0  0  0  0  0  0  0  0  0  0  0
   19.9754   19.7752   23.0413 H   0  0  0  0  0  0  0  0  0  0  0  0
   20.6335   19.5754   20.9744 C   0  0  0  0  0  0  0  0  0  0  0  0
   20.3027   19.0565   20.0645 H   0  0  0  0  0  0  0  0  0  0  0  0
   21.6263   19.1752   21.2235 H   0  0  0  0  0  0  0  0  0  0  0  0
   20.7519   21.0921   20.6737 C   0  0  0  0  0  0  0  0  0  0  0  0
   21.3699   21.2415   19.7805 H   0  0  0  0  0  0  0  0  0  0  0  0
   19.7638   21.5124   20.4503 H   0  0  0  0  0  0  0  0  0  0  0  0
   21.3811   21.9011   21.8044 C   0  0  0  0  0  0  0  0  0  0  0  0
   22.5842   21.8274   21.9601 O   0  5  0  0  0  0  0  0  0  0  0  0
   20.6547   22.5915   22.4920 O   0  0  0  0  0  0  0  0  0  0  0  0
  1  2  1  0  0  0  0
  1  3  1  0  0  0  0
  1  4  2  0  0  0  0
  4  5  1  0  0  0  0
  4  6  1  0  0  0  0
  6  7  1  0  0  0  0
  6  8  1  0  0  0  0
  6  9  1  0  0  0  0
  9 10  1  0  0  0  0
  9 11  1  0  0  0  0
  9 12  1  0  0  0  0
 12 13  1  0  0  0  0
 12 14  1  0  0  0  0
 12 15  1  0  0  0  0
 15 16  1  0  0  0  0
 15 17  1  0  0  0  0
 15 18  1  0  0  0  0
 18 19  1  0  0  0  0
 18 20  2  0  0  0  0
M  END
> <VConfSearch Rank>
126

> <Conf_Id>
54

> <Delta U+W>
-0.048

> <U+W>
-51.793

> <U>
8.964

> <W>
-60.756

> <W(PB)>
-63.007

> <W(SA)>
2.251

> <Valence>
9.327

> <Coulomb>
-0.780

> <VdW>
0.417

> <VdW6>
-6.635

> <VdW12>
7.052

> <Bond>
0.105

> <Angle>
2.399

> <Pdih>
6.822

> <Idih>
0.000

> <Tether>
0.000

$$$$
VeraChem MOL file


 20 19  0  0  0  0  0  0  0  0999 V2000     
   18.0891   20.5531   24.5338 C   0  0  0  0  0  0  0  0  0  0  0  0
   18.4007   21.1240   25.4069 H   0  0  0  0  0  0  0  0  0  0  0  0
   17.1742   20.8640   24.0321 H   0  0  0  0  0  0  0  0  0  0  0  0
   18.8057   19.5143   24.0967 C   0  0  0  0  0  0  0  0  0  0  0  0
   19.7166   19.2178   24.6158 H   0  0  0  0  0  0  0  0  0  0  0  0
   18.4309   18.6715   22.8962 C   0  0  0  0  0  0  0  0  0  0  0  0
   17.3627   18.7984   22.6741 H   0  0  0  0  0  0  0  0  0  0  0  0
   18.5721   17.6072   23.1272 H   0  0  0  0  0  0  0  0  0  0  0  0
   19.2455   19.0443   21.6371 C   0  0  0  0  0  0  0  0  0  0  0  0
   18.8327   18.4988   20.7774 H   0  0  0  0  0  0  0  0  0  0  0  0
   19.1150   20.1136   21.4208 H   0  0  0  0  0  0  0  0  0  0  0  0
   20.7516   18.7178   21.7761 C   0  0  0  0  0  0  0  0  0  0  0  0
   20.8817   17.6513   22.0069 H   0  0  0  0  0  0  0  0  0  0  0  0
   21.1716   19.2780   22.6217 H   0  0  0  0  0  0  0  0  0  0  0  0
   21.5575   19.0689   20.4985 C   0  0  0  0  0  0  0  0  0  0  0  0
   21.4104   20.1236   20.2359 H   0  0  0  0  0  0  0  0  0  0  0  0
   22.6283   18.9366   20.6930 H   0  0  0  0  0  0  0  0  0  0  0  0
   21.2051   18.2111   19.2866 C   0  0  0  0  0  0  0  0  0  0  0  0
   20.5265   18.7061   18.4082 O   0  5  0  0  0  0  0  0  0  0  0  0
   21.6284   17.0724   19.2487 O   0  0  0  0  0  0  0  0  0  0  0  0
  1  2  1  0  0  0  0
  1  3  1  0  0  0  0
  1  4  2  0  0  0  0
  4  5  1  0  0  0  0
  4  6  1  0  0  0  0
  6  7  1  0  0  0  0
  6  8  1  0  0  0  0
  6  9  1  0  0  0  0
  9 10  1  0  0  0  0
  9 11  1  0  0  0  0
  9 12  1  0  0  0  0
 12 13  1  0  0  0  0
 12 14  1  0  0  0  0
 12 15  1  0  0  0  0
 15 16  1  0  0  0  0
 15 17  1  0  0  0  0
 15 18  1  0  0  0  0
 18 19  1  0  0  0  0
 18 20  2  0  0  0  0
M  END
> <VConfSearch Rank>
127

> <Conf_Id>
27

> <Delta U+W>
0.478

> <U+W>
-51.267

> <U>
9.192

> <W>
-60.459

> <W(PB)>
-62.649

> <W(SA)>
2.190

> <Valence>
9.572

> <Coulomb>
-0.884

> <VdW>
0.504

> <VdW6>
-7.168

> <VdW12>
7.672

> <Bond>
0.127

> <Angle>
2.504

> <Pdih>
6.941

> <Idih>
0.001

> <Tether>
0.000

$$$$
VeraChem MOL file


 20 19  0  0  0  0  0  0  0  0999 V2000     
   20.9576   16.0028   23.2443 C   0  0  0  0  0  0  0  0  0  0  0  0
   21.6267   15.5806   22.4963 H   0  0  0  0  0  0  0  0  0  0  0  0
   20.4724   15.3106   23.9304 H   0  0  0  0  0  0  0  0  0  0  0  0
   20.7355   17.3176   23.3187 C   0  0  0  0  0  0  0  0  0  0  0  0
   20.0643   17.7194   24.0772 H   0  0  0  0  0  0  0  0  0  0  0  0
   21.3784   18.3388   22.4046 C   0  0  0  0  0  0  0  0  0  0  0  0
   22.2738   17.9062   21.9379 H   0  0  0  0  0  0  0  0  0  0  0  0
   21.7237   19.2009   22.9908 H   0  0  0  0  0  0  0  0  0  0  0  0
   20.4205   18.8159   21.2898 C   0  0  0  0  0  0  0  0  0  0  0  0
   20.9816   19.4481   20.5880 H   0  0  0  0  0  0  0  0  0  0  0  0
   20.0663   17.9478   20.7169 H   0  0  0  0  0  0  0  0  0  0  0  0
   19.2126   19.6120   21.8351 C   0  0  0  0  0  0  0  0  0  0  0  0
   19.5686   20.4649   22.4294 H   0  0  0  0  0  0  0  0  0  0  0  0
   18.6194   18.9788   22.5088 H   0  0  0  0  0  0  0  0  0  0  0  0
   18.3014   20.1282   20.6944 C   0  0  0  0  0  0  0  0  0  0  0  0
   18.8711   20.7770   20.0183 H   0  0  0  0  0  0  0  0  0  0  0  0
   17.9279   19.2868   20.0985 H   0  0  0  0  0  0  0  0  0  0  0  0
   17.1010   20.9160   21.2065 C   0  0  0  0  0  0  0  0  0  0  0  0
   16.0766   20.3086   21.4479 O   0  5  0  0  0  0  0  0  0  0  0  0
   17.2275   22.1139   21.3673 O   0  0  0  0  0  0  0  0  0  0  0  0
  1  2  1  0  0  0  0
  1  3  1  0  0  0  0
  1  4  2  0  0  0  0
  4  5  1  0  0  0  0
  4  6  1  0  0  0  0
  6  7  1  0  0  0  0
  6  8  1  0  0  0  0
  6  9  1  0  0  0  0
  9 10  1  0  0  0  0
  9 11  1  0  0  0  0
  9 12  1  0  0  0  0
 12 13  1  0  0  0  0
 12 14  1  0  0  0  0
 12 15  1  0  0  0  0
 15 16  1  0  0  0  0
 15 17  1  0  0  0  0
 15 18  1  0  0  0  0
 18 19  1  0  0  0  0
 18 20  2  0  0  0  0
M  END
> <VConfSearch Rank>
128

> <Conf_Id>
41

> <Delta U+W>
-0.634

> <U+W>
-52.379

> <U>
7.828

> <W>
-60.207

> <W(PB)>
-62.449

> <W(SA)>
2.242

> <Valence>
9.300

> <Coulomb>
-2.080

> <VdW>
0.608

> <VdW6>
-6.341

> <VdW12>
6.949

> <Bond>
0.103

> <Angle>
2.334

> <Pdih>
6.862

> <Idih>
0.001

> <Tether>
0.000

$$$$
VeraChem MOL file


 20 19  0  0  0  0  0  0  0  0999 V2000     
   22.9418   19.9914   20.7138 C   0  0  0  0  0  0  0  0  0  0  0  0
   23.4629   20.2841   19.8039 H   0  0  0  0  0  0  0  0  0  0  0  0
   23.3718   20.3099   21.6621 H   0  0  0  0  0  0  0  0  0  0  0  0
   21.8178   19.2717   20.6642 C   0  0  0  0  0  0  0  0  0  0  0  0
   21.4031   18.9633   19.7048 H   0  0  0  0  0  0  0  0  0  0  0  0
   21.0405   18.8278   21.8834 C   0  0  0  0  0  0  0  0  0  0  0  0
   21.6498   18.9516   22.7888 H   0  0  0  0  0  0  0  0  0  0  0  0
   20.8137   17.7574   21.7950 H   0  0  0  0  0  0  0  0  0  0  0  0
   19.7299   19.6329   22.0291 C   0  0  0  0  0  0  0  0  0  0  0  0
   19.9691   20.7052   22.0151 H   0  0  0  0  0  0  0  0  0  0  0  0
   19.0870   19.4491   21.1572 H   0  0  0  0  0  0  0  0  0  0  0  0
   18.9520   19.3185   23.3307 C   0  0  0  0  0  0  0  0  0  0  0  0
   18.0807   19.9853   23.3918 H   0  0  0  0  0  0  0  0  0  0  0  0
   19.5838   19.5583   24.1966 H   0  0  0  0  0  0  0  0  0  0  0  0
   18.4639   17.8487   23.4481 C   0  0  0  0  0  0  0  0  0  0  0  0
   19.3148   17.1583   23.4660 H   0  0  0  0  0  0  0  0  0  0  0  0
   17.9374   17.7163   24.4005 H   0  0  0  0  0  0  0  0  0  0  0  0
   17.5090   17.4188   22.3382 C   0  0  0  0  0  0  0  0  0  0  0  0
   16.3791   17.8668   22.3498 O   0  5  0  0  0  0  0  0  0  0  0  0
   17.9130   16.6346   21.5023 O   0  0  0  0  0  0  0  0  0  0  0  0
  1  2  1  0  0  0  0
  1  3  1  0  0  0  0
  1  4  2  0  0  0  0
  4  5  1  0  0  0  0
  4  6  1  0  0  0  0
  6  7  1  0  0  0  0
  6  8  1  0  0  0  0
  6  9  1  0  0  0  0
  9 10  1  0  0  0  0
  9 11  1  0  0  0  0
  9 12  1  0  0  0  0
 12 13  1  0  0  0  0
 12 14  1  0  0  0  0
 12 15  1  0  0  0  0
 15 16  1  0  0  0  0
 15 17  1  0  0  0  0
 15 18  1  0  0  0  0
 18 19  1  0  0  0  0
 18 20  2  0  0  0  0
M  END
> <VConfSearch Rank>
129

> <Conf_Id>
84

> <Delta U+W>
0.942

> <U+W>
-50.803

> <U>
10.196

> <W>
-60.999

> <W(PB)>
-63.182

> <W(SA)>
2.182

> <Valence>
9.837

> <Coulomb>
0.032

> <VdW>
0.328

> <VdW6>
-7.642

> <VdW12>
7.969

> <Bond>
0.151

> <Angle>
2.748

> <Pdih>
6.937

> <Idih>
0.001

> <Tether>
0.000

$$$$
VeraChem MOL file


 20 19  0  0  0  0  0  0  0  0999 V2000     
   18.8820   17.6135   25.0517 C   0  0  0  0  0  0  0  0  0  0  0  0
   18.8940   16.6674   25.5902 H   0  0  0  0  0  0  0  0  0  0  0  0
   19.2489   18.4937   25.5772 H   0  0  0  0  0  0  0  0  0  0  0  0
   18.4362   17.6866   23.7949 C   0  0  0  0  0  0  0  0  0  0  0  0
   18.0739   16.7933   23.2866 H   0  0  0  0  0  0  0  0  0  0  0  0
   18.3886   18.9632   22.9852 C   0  0  0  0  0  0  0  0  0  0  0  0
   18.5214   19.8346   23.6408 H   0  0  0  0  0  0  0  0  0  0  0  0
   17.3994   19.0659   22.5194 H   0  0  0  0  0  0  0  0  0  0  0  0
   19.4787   18.9715   21.8931 C   0  0  0  0  0  0  0  0  0  0  0  0
   20.4648   18.8620   22.3655 H   0  0  0  0  0  0  0  0  0  0  0  0
   19.3440   18.1025   21.2345 H   0  0  0  0  0  0  0  0  0  0  0  0
   19.4414   20.2687   21.0539 C   0  0  0  0  0  0  0  0  0  0  0  0
   19.5899   21.1394   21.7078 H   0  0  0  0  0  0  0  0  0  0  0  0
   18.4465   20.3791   20.6016 H   0  0  0  0  0  0  0  0  0  0  0  0
   20.5094   20.2827   19.9297 C   0  0  0  0  0  0  0  0  0  0  0  0
   20.3912   19.4043   19.2837 H   0  0  0  0  0  0  0  0  0  0  0  0
   20.3627   21.1650   19.2957 H   0  0  0  0  0  0  0  0  0  0  0  0
   21.9470   20.3218   20.4404 C   0  0  0  0  0  0  0  0  0  0  0  0
   22.6076   19.3035   20.3799 O   0  5  0  0  0  0  0  0  0  0  0  0
   22.3720   21.3749   20.8735 O   0  0  0  0  0  0  0  0  0  0  0  0
  1  2  1  0  0  0  0
  1  3  1  0  0  0  0
  1  4  2  0  0  0  0
  4  5  1  0  0  0  0
  4  6  1  0  0  0  0
  6  7  1  0  0  0  0
  6  8  1  0  0  0  0
  6  9  1  0  0  0  0
  9 10  1  0  0  0  0
  9 11  1  0  0  0  0
  9 12  1  0  0  0  0
 12 13  1  0  0  0  0
 12 14  1  0  0  0  0
 12 15  1  0  0  0  0
 15 16  1  0  0  0  0
 15 17  1  0  0  0  0
 15 18  1  0  0  0  0
 18 19  1  0  0  0  0
 18 20  2  0  0  0  0
M  END
> <VConfSearch Rank>
130

> <Conf_Id>
81

> <Delta U+W>
-0.051

> <U+W>
-51.796

> <U>
9.412

> <W>
-61.209

> <W(PB)>
-63.452

> <W(SA)>
2.243

> <Valence>
9.329

> <Coulomb>
-0.323

> <VdW>
0.406

> <VdW6>
-6.640

> <VdW12>
7.046

> <Bond>
0.105

> <Angle>
2.401

> <Pdih>
6.823

> <Idih>
0.000

> <Tether>
0.000

$$$$
VeraChem MOL file


 20 19  0  0  0  0  0  0  0  0999 V2000     
   22.3657   17.3784   21.5852 C   0  0  0  0  0  0  0  0  0  0  0  0
   23.0254   17.9758   20.9580 H   0  0  0  0  0  0  0  0  0  0  0  0
   22.8064   16.5373   22.1176 H   0  0  0  0  0  0  0  0  0  0  0  0
   21.0665   17.6648   21.7019 C   0  0  0  0  0  0  0  0  0  0  0  0
   20.4230   17.0527   22.3331 H   0  0  0  0  0  0  0  0  0  0  0  0
   20.3837   18.8127   20.9894 C   0  0  0  0  0  0  0  0  0  0  0  0
   19.4323   18.4756   20.5578 H   0  0  0  0  0  0  0  0  0  0  0  0
   20.9984   19.1393   20.1399 H   0  0  0  0  0  0  0  0  0  0  0  0
   20.1453   20.0271   21.9184 C   0  0  0  0  0  0  0  0  0  0  0  0
   21.1173   20.4004   22.2688 H   0  0  0  0  0  0  0  0  0  0  0  0
   19.7001   20.8422   21.3316 H   0  0  0  0  0  0  0  0  0  0  0  0
   19.2492   19.7354   23.1497 C   0  0  0  0  0  0  0  0  0  0  0  0
   19.1685   20.6515   23.7510 H   0  0  0  0  0  0  0  0  0  0  0  0
   19.7403   18.9929   23.7925 H   0  0  0  0  0  0  0  0  0  0  0  0
   17.8187   19.2414   22.8009 C   0  0  0  0  0  0  0  0  0  0  0  0
   17.8599   18.2866   22.2645 H   0  0  0  0  0  0  0  0  0  0  0  0
   17.2639   19.0529   23.7274 H   0  0  0  0  0  0  0  0  0  0  0  0
   17.0019   20.2313   21.9754 C   0  0  0  0  0  0  0  0  0  0  0  0
   16.7843   19.9676   20.8091 O   0  5  0  0  0  0  0  0  0  0  0  0
   16.5895   21.2330   22.5267 O   0  0  0  0  0  0  0  0  0  0  0  0
  1  2  1  0  0  0  0
  1  3  1  0  0  0  0
  1  4  2  0  0  0  0
  4  5  1  0  0  0  0
  4  6  1  0  0  0  0
  6  7  1  0  0  0  0
  6  8  1  0  0  0  0
  6  9  1  0  0  0  0
  9 10  1  0  0  0  0
  9 11  1  0  0  0  0
  9 12  1  0  0  0  0
 12 13  1  0  0  0  0
 12 14  1  0  0  0  0
 12 15  1  0  0  0  0
 15 16  1  0  0  0  0
 15 17  1  0  0  0  0
 15 18  1  0  0  0  0
 18 19  1  0  0  0  0
 18 20  2  0  0  0  0
M  END
> <VConfSearch Rank>
131

> <Conf_Id>
86

> <Delta U+W>
1.248

> <U+W>
-50.498

> <U>
10.404

> <W>
-60.901

> <W(PB)>
-63.061

> <W(SA)>
2.159

> <Valence>
10.021

> <Coulomb>
0.094

> <VdW>
0.289

> <VdW6>
-8.409

> <VdW12>
8.698

> <Bond>
0.179

> <Angle>
2.939

> <Pdih>
6.902

> <Idih>
0.001

> <Tether>
0.000

$$$$
VeraChem MOL file


 20 19  0  0  0  0  0  0  0  0999 V2000     
   19.6842   17.7614   24.8560 C   0  0  0  0  0  0  0  0  0  0  0  0
   20.3668   17.4894   25.6593 H   0  0  0  0  0  0  0  0  0  0  0  0
   18.8737   18.4471   25.0976 H   0  0  0  0  0  0  0  0  0  0  0  0
   19.8405   17.2736   23.6225 C   0  0  0  0  0  0  0  0  0  0  0  0
   20.6598   16.5902   23.4010 H   0  0  0  0  0  0  0  0  0  0  0  0
   18.9339   17.6059   22.4564 C   0  0  0  0  0  0  0  0  0  0  0  0
   18.0319   18.1277   22.8040 H   0  0  0  0  0  0  0  0  0  0  0  0
   18.5913   16.6720   21.9913 H   0  0  0  0  0  0  0  0  0  0  0  0
   19.6454   18.4637   21.3859 C   0  0  0  0  0  0  0  0  0  0  0  0
   20.5498   17.9442   21.0406 H   0  0  0  0  0  0  0  0  0  0  0  0
   18.9853   18.5564   20.5127 H   0  0  0  0  0  0  0  0  0  0  0  0
   20.0160   19.8746   21.9012 C   0  0  0  0  0  0  0  0  0  0  0  0
   20.6815   19.7835   22.7700 H   0  0  0  0  0  0  0  0  0  0  0  0
   19.1118   20.3924   22.2500 H   0  0  0  0  0  0  0  0  0  0  0  0
   20.7195   20.7381   20.8219 C   0  0  0  0  0  0  0  0  0  0  0  0
   21.0679   21.6749   21.2724 H   0  0  0  0  0  0  0  0  0  0  0  0
   21.6075   20.2191   20.4414 H   0  0  0  0  0  0  0  0  0  0  0  0
   19.8256   21.1046   19.6407 C   0  0  0  0  0  0  0  0  0  0  0  0
   18.9955   21.9779   19.8003 O   0  5  0  0  0  0  0  0  0  0  0  0
   19.9897   20.5165   18.5899 O   0  0  0  0  0  0  0  0  0  0  0  0
  1  2  1  0  0  0  0
  1  3  1  0  0  0  0
  1  4  2  0  0  0  0
  4  5  1  0  0  0  0
  4  6  1  0  0  0  0
  6  7  1  0  0  0  0
  6  8  1  0  0  0  0
  6  9  1  0  0  0  0
  9 10  1  0  0  0  0
  9 11  1  0  0  0  0
  9 12  1  0  0  0  0
 12 13  1  0  0  0  0
 12 14  1  0  0  0  0
 12 15  1  0  0  0  0
 15 16  1  0  0  0  0
 15 17  1  0  0  0  0
 15 18  1  0  0  0  0
 18 19  1  0  0  0  0
 18 20  2  0  0  0  0
M  END
> <VConfSearch Rank>
132

> <Conf_Id>
28

> <Delta U+W>
0.446

> <U+W>
-51.299

> <U>
9.295

> <W>
-60.594

> <W(PB)>
-62.806

> <W(SA)>
2.212

> <Valence>
9.495

> <Coulomb>
-0.610

> <VdW>
0.409

> <VdW6>
-7.332

> <VdW12>
7.741

> <Bond>
0.126

> <Angle>
2.497

> <Pdih>
6.872

> <Idih>
0.000

> <Tether>
0.000

$$$$
VeraChem MOL file


 20 19  0  0  0  0  0  0  0  0999 V2000     
   22.4592   20.8586   21.6791 C   0  0  0  0  0  0  0  0  0  0  0  0
   22.7196   19.8035   21.7289 H   0  0  0  0  0  0  0  0  0  0  0  0
   23.2489   21.5460   21.3806 H   0  0  0  0  0  0  0  0  0  0  0  0
   21.2321   21.3096   21.9635 C   0  0  0  0  0  0  0  0  0  0  0  0
   21.0311   22.3784   21.8933 H   0  0  0  0  0  0  0  0  0  0  0  0
   20.0348   20.4781   22.3930 C   0  0  0  0  0  0  0  0  0  0  0  0
   19.2453   20.5930   21.6392 H   0  0  0  0  0  0  0  0  0  0  0  0
   19.6275   20.9020   23.3204 H   0  0  0  0  0  0  0  0  0  0  0  0
   20.3296   18.9738   22.6139 C   0  0  0  0  0  0  0  0  0  0  0  0
   20.6539   18.5185   21.6680 H   0  0  0  0  0  0  0  0  0  0  0  0
   21.1689   18.8731   23.3154 H   0  0  0  0  0  0  0  0  0  0  0  0
   19.1246   18.1857   23.1847 C   0  0  0  0  0  0  0  0  0  0  0  0
   18.8378   18.6151   24.1541 H   0  0  0  0  0  0  0  0  0  0  0  0
   19.4424   17.1537   23.3881 H   0  0  0  0  0  0  0  0  0  0  0  0
   17.8802   18.1490   22.2560 C   0  0  0  0  0  0  0  0  0  0  0  0
   17.0794   17.5824   22.7453 H   0  0  0  0  0  0  0  0  0  0  0  0
   17.4888   19.1594   22.0922 H   0  0  0  0  0  0  0  0  0  0  0  0
   18.1327   17.4964   20.8998 C   0  0  0  0  0  0  0  0  0  0  0  0
   18.3063   16.2938   20.8665 O   0  5  0  0  0  0  0  0  0  0  0  0
   18.1285   18.2029   19.9110 O   0  0  0  0  0  0  0  0  0  0  0  0
  1  2  1  0  0  0  0
  1  3  1  0  0  0  0
  1  4  2  0  0  0  0
  4  5  1  0  0  0  0
  4  6  1  0  0  0  0
  6  7  1  0  0  0  0
  6  8  1  0  0  0  0
  6  9  1  0  0  0  0
  9 10  1  0  0  0  0
  9 11  1  0  0  0  0
  9 12  1  0  0  0  0
 12 13  1  0  0  0  0
 12 14  1  0  0  0  0
 12 15  1  0  0  0  0
 15 16  1  0  0  0  0
 15 17  1  0  0  0  0
 15 18  1  0  0  0  0
 18 19  1  0  0  0  0
 18 20  2  0  0  0  0
M  END
> <VConfSearch Rank>
133

> <Conf_Id>
53

> <Delta U+W>
0.549

> <U+W>
-51.197

> <U>
10.870

> <W>
-62.067

> <W(PB)>
-64.228

> <W(SA)>
2.161

> <Valence>
8.803

> <Coulomb>
1.020

> <VdW>
1.048

> <VdW6>
-8.312

> <VdW12>
9.360

> <Bond>
0.212

> <Angle>
3.379

> <Pdih>
5.211

> <Idih>
0.001

> <Tether>
0.000

$$$$
VeraChem MOL file


 20 19  0  0  0  0  0  0  0  0999 V2000     
   19.5143   16.2870   20.9867 C   0  0  0  0  0  0  0  0  0  0  0  0
   18.5487   16.6881   20.6864 H   0  0  0  0  0  0  0  0  0  0  0  0
   19.5750   15.2118   21.1454 H   0  0  0  0  0  0  0  0  0  0  0  0
   20.5888   17.0660   21.1514 C   0  0  0  0  0  0  0  0  0  0  0  0
   21.5336   16.6129   21.4505 H   0  0  0  0  0  0  0  0  0  0  0  0
   20.6459   18.5740   20.9707 C   0  0  0  0  0  0  0  0  0  0  0  0
   21.0581   18.7940   19.9772 H   0  0  0  0  0  0  0  0  0  0  0  0
   21.3776   18.9906   21.6748 H   0  0  0  0  0  0  0  0  0  0  0  0
   19.3016   19.3281   21.1434 C   0  0  0  0  0  0  0  0  0  0  0  0
   19.4652   20.3904   20.9161 H   0  0  0  0  0  0  0  0  0  0  0  0
   18.5847   18.9731   20.3915 H   0  0  0  0  0  0  0  0  0  0  0  0
   18.6662   19.2095   22.5538 C   0  0  0  0  0  0  0  0  0  0  0  0
   18.4296   18.1588   22.7651 H   0  0  0  0  0  0  0  0  0  0  0  0
   17.7061   19.7435   22.5528 H   0  0  0  0  0  0  0  0  0  0  0  0
   19.5450   19.7694   23.7056 C   0  0  0  0  0  0  0  0  0  0  0  0
   19.0196   19.6388   24.6587 H   0  0  0  0  0  0  0  0  0  0  0  0
   20.4797   19.2032   23.7877 H   0  0  0  0  0  0  0  0  0  0  0  0
   19.8801   21.2520   23.5710 C   0  0  0  0  0  0  0  0  0  0  0  0
   21.0202   21.5617   23.2857 O   0  5  0  0  0  0  0  0  0  0  0  0
   18.9945   22.0597   23.7732 O   0  0  0  0  0  0  0  0  0  0  0  0
  1  2  1  0  0  0  0
  1  3  1  0  0  0  0
  1  4  2  0  0  0  0
  4  5  1  0  0  0  0
  4  6  1  0  0  0  0
  6  7  1  0  0  0  0
  6  8  1  0  0  0  0
  6  9  1  0  0  0  0
  9 10  1  0  0  0  0
  9 11  1  0  0  0  0
  9 12  1  0  0  0  0
 12 13  1  0  0  0  0
 12 14  1  0  0  0  0
 12 15  1  0  0  0  0
 15 16  1  0  0  0  0
 15 17  1  0  0  0  0
 15 18  1  0  0  0  0
 18 19  1  0  0  0  0
 18 20  2  0  0  0  0
M  END
> <VConfSearch Rank>
134

> <Conf_Id>
66

> <Delta U+W>
1.737

> <U+W>
-50.008

> <U>
11.091

> <W>
-61.099

> <W(PB)>
-63.213

> <W(SA)>
2.114

> <Valence>
9.664

> <Coulomb>
0.658

> <VdW>
0.769

> <VdW6>
-9.171

> <VdW12>
9.940

> <Bond>
0.244

> <Angle>
3.658

> <Pdih>
5.762

> <Idih>
0.001

> <Tether>
0.000

$$$$
VeraChem MOL file


 20 19  0  0  0  0  0  0  0  0999 V2000     
   20.3872   21.6312   21.7705 C   0  0  0  0  0  0  0  0  0  0  0  0
   21.2362   21.1685   22.2689 H   0  0  0  0  0  0  0  0  0  0  0  0
   20.6044   22.4353   21.0696 H   0  0  0  0  0  0  0  0  0  0  0  0
   19.1276   21.2454   22.0015 C   0  0  0  0  0  0  0  0  0  0  0  0
   18.3143   21.7454   21.4761 H   0  0  0  0  0  0  0  0  0  0  0  0
   18.6783   20.1401   22.9433 C   0  0  0  0  0  0  0  0  0  0  0  0
   17.7941   19.6490   22.5183 H   0  0  0  0  0  0  0  0  0  0  0  0
   18.3235   20.5977   23.8761 H   0  0  0  0  0  0  0  0  0  0  0  0
   19.7411   19.0610   23.2787 C   0  0  0  0  0  0  0  0  0  0  0  0
   20.6062   19.5380   23.7580 H   0  0  0  0  0  0  0  0  0  0  0  0
   19.3242   18.3789   24.0320 H   0  0  0  0  0  0  0  0  0  0  0  0
   20.2218   18.2256   22.0646 C   0  0  0  0  0  0  0  0  0  0  0  0
   21.0278   17.5571   22.3973 H   0  0  0  0  0  0  0  0  0  0  0  0
   20.6622   18.8819   21.3025 H   0  0  0  0  0  0  0  0  0  0  0  0
   19.1015   17.3697   21.4187 C   0  0  0  0  0  0  0  0  0  0  0  0
   18.6166   16.7444   22.1777 H   0  0  0  0  0  0  0  0  0  0  0  0
   18.3288   18.0131   20.9829 H   0  0  0  0  0  0  0  0  0  0  0  0
   19.6206   16.4548   20.3152 C   0  0  0  0  0  0  0  0  0  0  0  0
   19.6190   16.8722   19.1739 O   0  5  0  0  0  0  0  0  0  0  0  0
   20.0265   15.3529   20.6280 O   0  0  0  0  0  0  0  0  0  0  0  0
  1  2  1  0  0  0  0
  1  3  1  0  0  0  0
  1  4  2  0  0  0  0
  4  5  1  0  0  0  0
  4  6  1  0  0  0  0
  6  7  1  0  0  0  0
  6  8  1  0  0  0  0
  6  9  1  0  0  0  0
  9 10  1  0  0  0  0
  9 11  1  0  0  0  0
  9 12  1  0  0  0  0
 12 13  1  0  0  0  0
 12 14  1  0  0  0  0
 12 15  1  0  0  0  0
 15 16  1  0  0  0  0
 15 17  1  0  0  0  0
 15 18  1  0  0  0  0
 18 19  1  0  0  0  0
 18 20  2  0  0  0  0
M  END
> <VConfSearch Rank>
135

> <Conf_Id>
64

> <Delta U+W>
0.366

> <U+W>
-51.379

> <U>
10.000

> <W>
-61.379

> <W(PB)>
-63.541

> <W(SA)>
2.162

> <Valence>
9.398

> <Coulomb>
-0.504

> <VdW>
1.105

> <VdW6>
-7.975

> <VdW12>
9.080

> <Bond>
0.216

> <Angle>
3.417

> <Pdih>
5.765

> <Idih>
0.001

> <Tether>
0.000

$$$$
VeraChem MOL file


 20 19  0  0  0  0  0  0  0  0999 V2000     
   20.2573   19.2595   24.9732 C   0  0  0  0  0  0  0  0  0  0  0  0
   20.1360   18.1780   25.0053 H   0  0  0  0  0  0  0  0  0  0  0  0
   19.7800   19.8409   25.7601 H   0  0  0  0  0  0  0  0  0  0  0  0
   20.9603   19.8540   24.0055 C   0  0  0  0  0  0  0  0  0  0  0  0
   21.0675   20.9382   23.9903 H   0  0  0  0  0  0  0  0  0  0  0  0
   21.6504   19.1135   22.8797 C   0  0  0  0  0  0  0  0  0  0  0  0
   21.6666   18.0336   23.0799 H   0  0  0  0  0  0  0  0  0  0  0  0
   22.6993   19.4348   22.8290 H   0  0  0  0  0  0  0  0  0  0  0  0
   20.9825   19.3744   21.5108 C   0  0  0  0  0  0  0  0  0  0  0  0
   20.9657   20.4546   21.3109 H   0  0  0  0  0  0  0  0  0  0  0  0
   21.5978   18.9183   20.7233 H   0  0  0  0  0  0  0  0  0  0  0  0
   19.5480   18.8043   21.4289 C   0  0  0  0  0  0  0  0  0  0  0  0
   18.9150   19.2728   22.1951 H   0  0  0  0  0  0  0  0  0  0  0  0
   19.5649   17.7273   21.6459 H   0  0  0  0  0  0  0  0  0  0  0  0
   18.9143   19.0362   20.0351 C   0  0  0  0  0  0  0  0  0  0  0  0
   18.8790   20.1088   19.8094 H   0  0  0  0  0  0  0  0  0  0  0  0
   19.5243   18.5608   19.2576 H   0  0  0  0  0  0  0  0  0  0  0  0
   17.4979   18.4826   19.9294 C   0  0  0  0  0  0  0  0  0  0  0  0
   17.3586   17.3257   19.5845 O   0  5  0  0  0  0  0  0  0  0  0  0
   16.5717   19.2183   20.2080 O   0  0  0  0  0  0  0  0  0  0  0  0
  1  2  1  0  0  0  0
  1  3  1  0  0  0  0
  1  4  2  0  0  0  0
  4  5  1  0  0  0  0
  4  6  1  0  0  0  0
  6  7  1  0  0  0  0
  6  8  1  0  0  0  0
  6  9  1  0  0  0  0
  9 10  1  0  0  0  0
  9 11  1  0  0  0  0
  9 12  1  0  0  0  0
 12 13  1  0  0  0  0
 12 14  1  0  0  0  0
 12 15  1  0  0  0  0
 15 16  1  0  0  0  0
 15 17  1  0  0  0  0
 15 18  1  0  0  0  0
 18 19  1  0  0  0  0
 18 20  2  0  0  0  0
M  END
> <VConfSearch Rank>
136

> <Conf_Id>
42

> <Delta U+W>
-0.601

> <U+W>
-52.347

> <U>
8.428

> <W>
-60.774

> <W(PB)>
-62.982

> <W(SA)>
2.208

> <Valence>
9.231

> <Coulomb>
-1.304

> <VdW>
0.501

> <VdW6>
-6.515

> <VdW12>
7.016

> <Bond>
0.103

> <Angle>
2.328

> <Pdih>
6.799

> <Idih>
0.000

> <Tether>
0.000

$$$$
VeraChem MOL file


 20 19  0  0  0  0  0  0  0  0999 V2000     
   17.8282   16.8689   21.7727 C   0  0  0  0  0  0  0  0  0  0  0  0
   17.3259   17.2735   20.8955 H   0  0  0  0  0  0  0  0  0  0  0  0
   17.2204   16.3192   22.4893 H   0  0  0  0  0  0  0  0  0  0  0  0
   19.1383   17.0416   21.9677 C   0  0  0  0  0  0  0  0  0  0  0  0
   19.6213   16.6309   22.8539 H   0  0  0  0  0  0  0  0  0  0  0  0
   20.0464   17.7940   21.0184 C   0  0  0  0  0  0  0  0  0  0  0  0
   19.5298   18.0009   20.0714 H   0  0  0  0  0  0  0  0  0  0  0  0
   20.9085   17.1611   20.7692 H   0  0  0  0  0  0  0  0  0  0  0  0
   20.5602   19.1185   21.6264 C   0  0  0  0  0  0  0  0  0  0  0  0
   21.0824   18.9085   22.5701 H   0  0  0  0  0  0  0  0  0  0  0  0
   21.3049   19.5559   20.9475 H   0  0  0  0  0  0  0  0  0  0  0  0
   19.4271   20.1439   21.8670 C   0  0  0  0  0  0  0  0  0  0  0  0
   18.6957   19.7351   22.5779 H   0  0  0  0  0  0  0  0  0  0  0  0
   18.8889   20.3158   20.9252 H   0  0  0  0  0  0  0  0  0  0  0  0
   19.9547   21.5006   22.4015 C   0  0  0  0  0  0  0  0  0  0  0  0
   20.7046   21.9128   21.7155 H   0  0  0  0  0  0  0  0  0  0  0  0
   19.1312   22.2231   22.4429 H   0  0  0  0  0  0  0  0  0  0  0  0
   20.5642   21.4215   23.7983 C   0  0  0  0  0  0  0  0  0  0  0  0
   21.7753   21.4328   23.8996 O   0  5  0  0  0  0  0  0  0  0  0  0
   19.8100   21.3690   24.7499 O   0  0  0  0  0  0  0  0  0  0  0  0
  1  2  1  0  0  0  0
  1  3  1  0  0  0  0
  1  4  2  0  0  0  0
  4  5  1  0  0  0  0
  4  6  1  0  0  0  0
  6  7  1  0  0  0  0
  6  8  1  0  0  0  0
  6  9  1  0  0  0  0
  9 10  1  0  0  0  0
  9 11  1  0  0  0  0
  9 12  1  0  0  0  0
 12 13  1  0  0  0  0
 12 14  1  0  0  0  0
 12 15  1  0  0  0  0
 15 16  1  0  0  0  0
 15 17  1  0  0  0  0
 15 18  1  0  0  0  0
 18 19  1  0  0  0  0
 18 20  2  0  0  0  0
M  END
> <VConfSearch Rank>
137

> <Conf_Id>
68

> <Delta U+W>
0.492

> <U+W>
-51.253

> <U>
10.179

> <W>
-61.432

> <W(PB)>
-63.627

> <W(SA)>
2.195

> <Valence>
9.483

> <Coulomb>
0.361

> <VdW>
0.335

> <VdW6>
-7.385

> <VdW12>
7.720

> <Bond>
0.125

> <Angle>
2.487

> <Pdih>
6.870

> <Idih>
0.001

> <Tether>
0.000

$$$$
VeraChem MOL file


 20 19  0  0  0  0  0  0  0  0999 V2000     
   22.7175   19.0316   23.0022 C   0  0  0  0  0  0  0  0  0  0  0  0
   23.0063   20.0750   23.1190 H   0  0  0  0  0  0  0  0  0  0  0  0
   23.4867   18.3319   22.6799 H   0  0  0  0  0  0  0  0  0  0  0  0
   21.4687   18.6228   23.2405 C   0  0  0  0  0  0  0  0  0  0  0  0
   21.2017   17.5733   23.1200 H   0  0  0  0  0  0  0  0  0  0  0  0
   20.3503   19.5358   23.6960 C   0  0  0  0  0  0  0  0  0  0  0  0
   20.7731   20.4586   24.1156 H   0  0  0  0  0  0  0  0  0  0  0  0
   19.7859   19.0592   24.5086 H   0  0  0  0  0  0  0  0  0  0  0  0
   19.3907   19.9101   22.5440 C   0  0  0  0  0  0  0  0  0  0  0  0
   18.6848   20.6709   22.9040 H   0  0  0  0  0  0  0  0  0  0  0  0
   19.9641   20.3756   21.7303 H   0  0  0  0  0  0  0  0  0  0  0  0
   18.5973   18.6967   22.0038 C   0  0  0  0  0  0  0  0  0  0  0  0
   18.0681   18.2107   22.8346 H   0  0  0  0  0  0  0  0  0  0  0  0
   19.2878   17.9503   21.5881 H   0  0  0  0  0  0  0  0  0  0  0  0
   17.5668   19.0963   20.9160 C   0  0  0  0  0  0  0  0  0  0  0  0
   16.9552   18.2252   20.6531 H   0  0  0  0  0  0  0  0  0  0  0  0
   16.8817   19.8595   21.3045 H   0  0  0  0  0  0  0  0  0  0  0  0
   18.1967   19.6181   19.6277 C   0  0  0  0  0  0  0  0  0  0  0  0
   18.6698   18.8094   18.8536 O   0  5  0  0  0  0  0  0  0  0  0  0
   18.1804   20.8160   19.4228 O   0  0  0  0  0  0  0  0  0  0  0  0
  1  2  1  0  0  0  0
  1  3  1  0  0  0  0
  1  4  2  0  0  0  0
  4  5  1  0  0  0  0
  4  6  1  0  0  0  0
  6  7  1  0  0  0  0
  6  8  1  0  0  0  0
  6  9  1  0  0  0  0
  9 10  1  0  0  0  0
  9 11  1  0  0  0  0
  9 12  1  0  0  0  0
 12 13  1  0  0  0  0
 12 14  1  0  0  0  0
 12 15  1  0  0  0  0
 15 16  1  0  0  0  0
 15 17  1  0  0  0  0
 15 18  1  0  0  0  0
 18 19  1  0  0  0  0
 18 20  2  0  0  0  0
M  END
> <VConfSearch Rank>
138

> <Conf_Id>
87

> <Delta U+W>
0.339

> <U+W>
-51.407

> <U>
10.461

> <W>
-61.867

> <W(PB)>
-64.045

> <W(SA)>
2.178

> <Valence>
9.555

> <Coulomb>
0.483

> <VdW>
0.423

> <VdW6>
-7.223

> <VdW12>
7.646

> <Bond>
0.126

> <Angle>
2.492

> <Pdih>
6.936

> <Idih>
0.001

> <Tether>
0.000

$$$$
VeraChem MOL file


 20 19  0  0  0  0  0  0  0  0999 V2000     
   22.0872   17.6681   22.3693 C   0  0  0  0  0  0  0  0  0  0  0  0
   22.2788   17.8424   23.4268 H   0  0  0  0  0  0  0  0  0  0  0  0
   22.4163   16.7194   21.9489 H   0  0  0  0  0  0  0  0  0  0  0  0
   21.4698   18.5811   21.6150 C   0  0  0  0  0  0  0  0  0  0  0  0
   21.2950   18.3920   20.5564 H   0  0  0  0  0  0  0  0  0  0  0  0
   20.9975   19.9242   22.1295 C   0  0  0  0  0  0  0  0  0  0  0  0
   20.8480   20.6206   21.2938 H   0  0  0  0  0  0  0  0  0  0  0  0
   21.7966   20.3622   22.7428 H   0  0  0  0  0  0  0  0  0  0  0  0
   19.7104   19.8412   22.9873 C   0  0  0  0  0  0  0  0  0  0  0  0
   19.7904   19.0140   23.7058 H   0  0  0  0  0  0  0  0  0  0  0  0
   19.6470   20.7578   23.5893 H   0  0  0  0  0  0  0  0  0  0  0  0
   18.3943   19.7183   22.1787 C   0  0  0  0  0  0  0  0  0  0  0  0
   18.3244   20.5391   21.4518 H   0  0  0  0  0  0  0  0  0  0  0  0
   17.5512   19.8487   22.8713 H   0  0  0  0  0  0  0  0  0  0  0  0
   18.2198   18.3623   21.4479 C   0  0  0  0  0  0  0  0  0  0  0  0
   18.9557   18.2608   20.6441 H   0  0  0  0  0  0  0  0  0  0  0  0
   18.3799   17.5316   22.1455 H   0  0  0  0  0  0  0  0  0  0  0  0
   16.8370   18.2005   20.8269 C   0  0  0  0  0  0  0  0  0  0  0  0
   16.6643   18.6091   19.6955 O   0  5  0  0  0  0  0  0  0  0  0  0
   15.9627   17.6890   21.4984 O   0  0  0  0  0  0  0  0  0  0  0  0
  1  2  1  0  0  0  0
  1  3  1  0  0  0  0
  1  4  2  0  0  0  0
  4  5  1  0  0  0  0
  4  6  1  0  0  0  0
  6  7  1  0  0  0  0
  6  8  1  0  0  0  0
  6  9  1  0  0  0  0
  9 10  1  0  0  0  0
  9 11  1  0  0  0  0
  9 12  1  0  0  0  0
 12 13  1  0  0  0  0
 12 14  1  0  0  0  0
 12 15  1  0  0  0  0
 15 16  1  0  0  0  0
 15 17  1  0  0  0  0
 15 18  1  0  0  0  0
 18 19  1  0  0  0  0
 18 20  2  0  0  0  0
M  END
> <VConfSearch Rank>
139

> <Conf_Id>
51

> <Delta U+W>
1.709

> <U+W>
-50.036

> <U>
10.643

> <W>
-60.679

> <W(PB)>
-62.882

> <W(SA)>
2.203

> <Valence>
11.231

> <Coulomb>
-1.077

> <VdW>
0.489

> <VdW6>
-7.546

> <VdW12>
8.035

> <Bond>
0.159

> <Angle>
3.005

> <Pdih>
8.065

> <Idih>
0.002

> <Tether>
0.000

$$$$
VeraChem MOL file


 20 19  0  0  0  0  0  0  0  0999 V2000     
   21.8581   17.4160   21.6344 C   0  0  0  0  0  0  0  0  0  0  0  0
   22.0296   17.4377   20.5595 H   0  0  0  0  0  0  0  0  0  0  0  0
   22.0455   16.4780   22.1541 H   0  0  0  0  0  0  0  0  0  0  0  0
   21.4314   18.4972   22.2923 C   0  0  0  0  0  0  0  0  0  0  0  0
   21.2741   18.4582   23.3695 H   0  0  0  0  0  0  0  0  0  0  0  0
   21.1631   19.8350   21.6367 C   0  0  0  0  0  0  0  0  0  0  0  0
   21.9962   20.0631   20.9582 H   0  0  0  0  0  0  0  0  0  0  0  0
   21.1648   20.6346   22.3895 H   0  0  0  0  0  0  0  0  0  0  0  0
   19.8445   19.8739   20.8250 C   0  0  0  0  0  0  0  0  0  0  0  0
   19.9057   20.7165   20.1228 H   0  0  0  0  0  0  0  0  0  0  0  0
   19.7583   18.9711   20.2049 H   0  0  0  0  0  0  0  0  0  0  0  0
   18.5614   20.0615   21.6732 C   0  0  0  0  0  0  0  0  0  0  0  0
   17.7222   20.2538   20.9903 H   0  0  0  0  0  0  0  0  0  0  0  0
   18.6570   20.9572   22.3021 H   0  0  0  0  0  0  0  0  0  0  0  0
   18.1994   18.8420   22.5592 C   0  0  0  0  0  0  0  0  0  0  0  0
   18.1926   17.9248   21.9583 H   0  0  0  0  0  0  0  0  0  0  0  0
   18.9422   18.7081   23.3519 H   0  0  0  0  0  0  0  0  0  0  0  0
   16.8362   18.9819   23.2269 C   0  0  0  0  0  0  0  0  0  0  0  0
   16.7803   19.5347   24.3077 O   0  5  0  0  0  0  0  0  0  0  0  0
   15.8628   18.5526   22.6395 O   0  0  0  0  0  0  0  0  0  0  0  0
  1  2  1  0  0  0  0
  1  3  1  0  0  0  0
  1  4  2  0  0  0  0
  4  5  1  0  0  0  0
  4  6  1  0  0  0  0
  6  7  1  0  0  0  0
  6  8  1  0  0  0  0
  6  9  1  0  0  0  0
  9 10  1  0  0  0  0
  9 11  1  0  0  0  0
  9 12  1  0  0  0  0
 12 13  1  0  0  0  0
 12 14  1  0  0  0  0
 12 15  1  0  0  0  0
 15 16  1  0  0  0  0
 15 17  1  0  0  0  0
 15 18  1  0  0  0  0
 18 19  1  0  0  0  0
 18 20  2  0  0  0  0
M  END
> <VConfSearch Rank>
140

> <Conf_Id>
91

> <Delta U+W>
1.604

> <U+W>
-50.141

> <U>
10.644

> <W>
-60.786

> <W(PB)>
-62.965

> <W(SA)>
2.179

> <Valence>
11.230

> <Coulomb>
-1.075

> <VdW>
0.489

> <VdW6>
-7.547

> <VdW12>
8.036

> <Bond>
0.159

> <Angle>
3.006

> <Pdih>
8.064

> <Idih>
0.002

> <Tether>
0.000

$$$$
VeraChem MOL file


 20 19  0  0  0  0  0  0  0  0999 V2000     
   20.4273   20.5612   25.1742 C   0  0  0  0  0  0  0  0  0  0  0  0
   21.0495   19.7030   25.4230 H   0  0  0  0  0  0  0  0  0  0  0  0
   20.0440   21.1582   25.9999 H   0  0  0  0  0  0  0  0  0  0  0  0
   20.1410   20.8715   23.9071 C   0  0  0  0  0  0  0  0  0  0  0  0
   19.5157   21.7345   23.6796 H   0  0  0  0  0  0  0  0  0  0  0  0
   20.6374   20.0911   22.7104 C   0  0  0  0  0  0  0  0  0  0  0  0
   21.4526   19.4172   23.0072 H   0  0  0  0  0  0  0  0  0  0  0  0
   21.0549   20.7837   21.9674 H   0  0  0  0  0  0  0  0  0  0  0  0
   19.4991   19.2695   22.0699 C   0  0  0  0  0  0  0  0  0  0  0  0
   19.0822   18.5814   22.8183 H   0  0  0  0  0  0  0  0  0  0  0  0
   18.6860   19.9444   21.7690 H   0  0  0  0  0  0  0  0  0  0  0  0
   19.9883   18.4681   20.8437 C   0  0  0  0  0  0  0  0  0  0  0  0
   20.8012   17.7925   21.1440 H   0  0  0  0  0  0  0  0  0  0  0  0
   20.4064   19.1557   20.0954 H   0  0  0  0  0  0  0  0  0  0  0  0
   18.8433   17.6414   20.2003 C   0  0  0  0  0  0  0  0  0  0  0  0
   18.4256   16.9484   20.9400 H   0  0  0  0  0  0  0  0  0  0  0  0
   18.0310   18.3102   19.8923 H   0  0  0  0  0  0  0  0  0  0  0  0
   19.2429   16.8157   18.9765 C   0  0  0  0  0  0  0  0  0  0  0  0
   18.3724   16.1559   18.4445 O   0  5  0  0  0  0  0  0  0  0  0  0
   20.3923   16.8421   18.5805 O   0  0  0  0  0  0  0  0  0  0  0  0
  1  2  1  0  0  0  0
  1  3  1  0  0  0  0
  1  4  2  0  0  0  0
  4  5  1  0  0  0  0
  4  6  1  0  0  0  0
  6  7  1  0  0  0  0
  6  8  1  0  0  0  0
  6  9  1  0  0  0  0
  9 10  1  0  0  0  0
  9 11  1  0  0  0  0
  9 12  1  0  0  0  0
 12 13  1  0  0  0  0
 12 14  1  0  0  0  0
 12 15  1  0  0  0  0
 15 16  1  0  0  0  0
 15 17  1  0  0  0  0
 15 18  1  0  0  0  0
 18 19  1  0  0  0  0
 18 20  2  0  0  0  0
M  END
> <VConfSearch Rank>
141

> <Conf_Id>
33

> <Delta U+W>
0.000

> <U+W>
-51.745

> <U>
7.593

> <W>
-59.338

> <W(PB)>
-61.574

> <W(SA)>
2.236

> <Valence>
9.570

> <Coulomb>
-3.091

> <VdW>
1.114

> <VdW6>
-6.064

> <VdW12>
7.178

> <Bond>
0.117

> <Angle>
2.692

> <Pdih>
6.761

> <Idih>
0.000

> <Tether>
0.000

$$$$
VeraChem MOL file


 20 19  0  0  0  0  0  0  0  0999 V2000     
   23.1665   18.0109   21.6789 C   0  0  0  0  0  0  0  0  0  0  0  0
   23.0372   17.8294   20.6131 H   0  0  0  0  0  0  0  0  0  0  0  0
   24.0939   17.6702   22.1362 H   0  0  0  0  0  0  0  0  0  0  0  0
   22.2258   18.6249   22.4012 C   0  0  0  0  0  0  0  0  0  0  0  0
   22.3746   18.7962   23.4671 H   0  0  0  0  0  0  0  0  0  0  0  0
   20.9152   19.1258   21.8362 C   0  0  0  0  0  0  0  0  0  0  0  0
   20.9583   19.1471   20.7388 H   0  0  0  0  0  0  0  0  0  0  0  0
   20.7519   20.1590   22.1677 H   0  0  0  0  0  0  0  0  0  0  0  0
   19.7386   18.2315   22.2877 C   0  0  0  0  0  0  0  0  0  0  0  0
   19.9636   17.1898   22.0201 H   0  0  0  0  0  0  0  0  0  0  0  0
   19.6526   18.2588   23.3826 H   0  0  0  0  0  0  0  0  0  0  0  0
   18.3849   18.6237   21.6490 C   0  0  0  0  0  0  0  0  0  0  0  0
   17.6321   17.8747   21.9316 H   0  0  0  0  0  0  0  0  0  0  0  0
   18.4656   18.5840   20.5539 H   0  0  0  0  0  0  0  0  0  0  0  0
   17.8797   20.0249   22.0806 C   0  0  0  0  0  0  0  0  0  0  0  0
   17.8356   20.0911   23.1742 H   0  0  0  0  0  0  0  0  0  0  0  0
   18.5650   20.8066   21.7342 H   0  0  0  0  0  0  0  0  0  0  0  0
   16.4945   20.3465   21.5313 C   0  0  0  0  0  0  0  0  0  0  0  0
   16.4188   20.8809   20.4426 O   0  5  0  0  0  0  0  0  0  0  0  0
   15.5269   20.0361   22.1977 O   0  0  0  0  0  0  0  0  0  0  0  0
  1  2  1  0  0  0  0
  1  3  1  0  0  0  0
  1  4  2  0  0  0  0
  4  5  1  0  0  0  0
  4  6  1  0  0  0  0
  6  7  1  0  0  0  0
  6  8  1  0  0  0  0
  6  9  1  0  0  0  0
  9 10  1  0  0  0  0
  9 11  1  0  0  0  0
  9 12  1  0  0  0  0
 12 13  1  0  0  0  0
 12 14  1  0  0  0  0
 12 15  1  0  0  0  0
 15 16  1  0  0  0  0
 15 17  1  0  0  0  0
 15 18  1  0  0  0  0
 18 19  1  0  0  0  0
 18 20  2  0  0  0  0
M  END
> <VConfSearch Rank>
142

> <Conf_Id>
37

> <Delta U+W>
-0.384

> <U+W>
-52.130

> <U>
7.491

> <W>
-59.621

> <W(PB)>
-61.853

> <W(SA)>
2.232

> <Valence>
9.604

> <Coulomb>
-2.799

> <VdW>
0.686

> <VdW6>
-6.435

> <VdW12>
7.121

> <Bond>
0.124

> <Angle>
2.493

> <Pdih>
6.986

> <Idih>
0.001

> <Tether>
0.000

$$$$
VeraChem MOL file


 20 19  0  0  0  0  0  0  0  0999 V2000     
   21.0936   19.5995   24.9283 C   0  0  0  0  0  0  0  0  0  0  0  0
   21.5354   19.7887   25.9051 H   0  0  0  0  0  0  0  0  0  0  0  0
   20.0072   19.5704   24.8783 H   0  0  0  0  0  0  0  0  0  0  0  0
   21.8674   19.4141   23.8528 C   0  0  0  0  0  0  0  0  0  0  0  0
   22.9505   19.4547   23.9660 H   0  0  0  0  0  0  0  0  0  0  0  0
   21.3995   19.1421   22.4329 C   0  0  0  0  0  0  0  0  0  0  0  0
   21.8413   18.1967   22.0908 H   0  0  0  0  0  0  0  0  0  0  0  0
   21.8099   19.9170   21.7716 H   0  0  0  0  0  0  0  0  0  0  0  0
   19.8650   19.0802   22.2501 C   0  0  0  0  0  0  0  0  0  0  0  0
   19.4502   18.2924   22.8938 H   0  0  0  0  0  0  0  0  0  0  0  0
   19.4185   20.0314   22.5712 H   0  0  0  0  0  0  0  0  0  0  0  0
   19.4743   18.8009   20.7824 C   0  0  0  0  0  0  0  0  0  0  0  0
   19.9181   17.8503   20.4550 H   0  0  0  0  0  0  0  0  0  0  0  0
   19.8864   19.5858   20.1331 H   0  0  0  0  0  0  0  0  0  0  0  0
   17.9381   18.7384   20.5968 C   0  0  0  0  0  0  0  0  0  0  0  0
   17.5120   17.9499   21.2287 H   0  0  0  0  0  0  0  0  0  0  0  0
   17.4803   19.6854   20.9068 H   0  0  0  0  0  0  0  0  0  0  0  0
   17.5269   18.4635   19.1548 C   0  0  0  0  0  0  0  0  0  0  0  0
   17.4012   17.3066   18.8048 O   0  5  0  0  0  0  0  0  0  0  0  0
   17.3624   19.4129   18.4144 O   0  0  0  0  0  0  0  0  0  0  0  0
  1  2  1  0  0  0  0
  1  3  1  0  0  0  0
  1  4  2  0  0  0  0
  4  5  1  0  0  0  0
  4  6  1  0  0  0  0
  6  7  1  0  0  0  0
  6  8  1  0  0  0  0
  6  9  1  0  0  0  0
  9 10  1  0  0  0  0
  9 11  1  0  0  0  0
  9 12  1  0  0  0  0
 12 13  1  0  0  0  0
 12 14  1  0  0  0  0
 12 15  1  0  0  0  0
 15 16  1  0  0  0  0
 15 17  1  0  0  0  0
 15 18  1  0  0  0  0
 18 19  1  0  0  0  0
 18 20  2  0  0  0  0
M  END
> <VConfSearch Rank>
143

> <Conf_Id>
44

> <Delta U+W>
-1.440

> <U+W>
-53.185

> <U>
6.572

> <W>
-59.757

> <W(PB)>
-62.007

> <W(SA)>
2.249

> <Valence>
7.989

> <Coulomb>
-2.697

> <VdW>
1.281

> <VdW6>
-6.467

> <VdW12>
7.748

> <Bond>
0.136

> <Angle>
2.854

> <Pdih>
4.997

> <Idih>
0.001

> <Tether>
0.000

$$$$
VeraChem MOL file


 20 19  0  0  0  0  0  0  0  0999 V2000     
   21.9432   21.3910   20.5376 C   0  0  0  0  0  0  0  0  0  0  0  0
   22.0781   20.5815   19.8221 H   0  0  0  0  0  0  0  0  0  0  0  0
   22.6607   22.2094   20.5093 H   0  0  0  0  0  0  0  0  0  0  0  0
   20.9398   21.3831   21.4190 C   0  0  0  0  0  0  0  0  0  0  0  0
   20.8230   22.2031   22.1272 H   0  0  0  0  0  0  0  0  0  0  0  0
   19.9058   20.2835   21.5168 C   0  0  0  0  0  0  0  0  0  0  0  0
   19.9380   19.6603   20.6139 H   0  0  0  0  0  0  0  0  0  0  0  0
   18.9021   20.7269   21.5608 H   0  0  0  0  0  0  0  0  0  0  0  0
   20.1417   19.4095   22.7692 C   0  0  0  0  0  0  0  0  0  0  0  0
   21.1243   18.9229   22.6981 H   0  0  0  0  0  0  0  0  0  0  0  0
   20.1813   20.0596   23.6541 H   0  0  0  0  0  0  0  0  0  0  0  0
   19.0455   18.3404   22.9918 C   0  0  0  0  0  0  0  0  0  0  0  0
   18.0634   18.8265   23.0728 H   0  0  0  0  0  0  0  0  0  0  0  0
   19.2269   17.8457   23.9561 H   0  0  0  0  0  0  0  0  0  0  0  0
   18.9989   17.2606   21.8797 C   0  0  0  0  0  0  0  0  0  0  0  0
   18.7292   17.7084   20.9167 H   0  0  0  0  0  0  0  0  0  0  0  0
   19.9860   16.7985   21.7592 H   0  0  0  0  0  0  0  0  0  0  0  0
   17.9919   16.1546   22.1744 C   0  0  0  0  0  0  0  0  0  0  0  0
   18.3733   15.1820   22.7950 O   0  5  0  0  0  0  0  0  0  0  0  0
   16.8478   16.3038   21.7929 O   0  0  0  0  0  0  0  0  0  0  0  0
  1  2  1  0  0  0  0
  1  3  1  0  0  0  0
  1  4  2  0  0  0  0
  4  5  1  0  0  0  0
  4  6  1  0  0  0  0
  6  7  1  0  0  0  0
  6  8  1  0  0  0  0
  6  9  1  0  0  0  0
  9 10  1  0  0  0  0
  9 11  1  0  0  0  0
  9 12  1  0  0  0  0
 12 13  1  0  0  0  0
 12 14  1  0  0  0  0
 12 15  1  0  0  0  0
 15 16  1  0  0  0  0
 15 17  1  0  0  0  0
 15 18  1  0  0  0  0
 18 19  1  0  0  0  0
 18 20  2  0  0  0  0
M  END
> <VConfSearch Rank>
144

> <Conf_Id>
38

> <Delta U+W>
-0.381

> <U+W>
-52.126

> <U>
7.601

> <W>
-59.727

> <W(PB)>
-61.964

> <W(SA)>
2.236

> <Valence>
9.602

> <Coulomb>
-2.686

> <VdW>
0.685

> <VdW6>
-6.453

> <VdW12>
7.139

> <Bond>
0.125

> <Angle>
2.485

> <Pdih>
6.991

> <Idih>
0.001

> <Tether>
0.000

$$$$
VeraChem MOL file


 20 19  0  0  0  0  0  0  0  0999 V2000     
   17.5310   19.6549   19.2529 C   0  0  0  0  0  0  0  0  0  0  0  0
   17.3858   20.7148   19.4558 H   0  0  0  0  0  0  0  0  0  0  0  0
   17.3316   19.3067   18.2408 H   0  0  0  0  0  0  0  0  0  0  0  0
   17.9400   18.8120   20.2047 C   0  0  0  0  0  0  0  0  0  0  0  0
   18.0802   17.7547   19.9804 H   0  0  0  0  0  0  0  0  0  0  0  0
   18.2354   19.2217   21.6303 C   0  0  0  0  0  0  0  0  0  0  0  0
   17.7320   18.5333   22.3222 H   0  0  0  0  0  0  0  0  0  0  0  0
   17.8303   20.2231   21.8299 H   0  0  0  0  0  0  0  0  0  0  0  0
   19.7532   19.2160   21.9085 C   0  0  0  0  0  0  0  0  0  0  0  0
   20.1555   18.2128   21.7104 H   0  0  0  0  0  0  0  0  0  0  0  0
   20.2538   19.9020   21.2113 H   0  0  0  0  0  0  0  0  0  0  0  0
   20.0725   19.6298   23.3628 C   0  0  0  0  0  0  0  0  0  0  0  0
   19.5818   18.9392   24.0628 H   0  0  0  0  0  0  0  0  0  0  0  0
   19.6533   20.6266   23.5561 H   0  0  0  0  0  0  0  0  0  0  0  0
   21.5955   19.6595   23.6536 C   0  0  0  0  0  0  0  0  0  0  0  0
   22.1038   20.3239   22.9443 H   0  0  0  0  0  0  0  0  0  0  0  0
   21.7696   20.0710   24.6548 H   0  0  0  0  0  0  0  0  0  0  0  0
   22.2635   18.2884   23.6014 C   0  0  0  0  0  0  0  0  0  0  0  0
   22.9487   18.0180   22.6347 O   0  5  0  0  0  0  0  0  0  0  0  0
   22.0893   17.5310   24.5357 O   0  0  0  0  0  0  0  0  0  0  0  0
  1  2  1  0  0  0  0
  1  3  1  0  0  0  0
  1  4  2  0  0  0  0
  4  5  1  0  0  0  0
  4  6  1  0  0  0  0
  6  7  1  0  0  0  0
  6  8  1  0  0  0  0
  6  9  1  0  0  0  0
  9 10  1  0  0  0  0
  9 11  1  0  0  0  0
  9 12  1  0  0  0  0
 12 13  1  0  0  0  0
 12 14  1  0  0  0  0
 12 15  1  0  0  0  0
 15 16  1  0  0  0  0
 15 17  1  0  0  0  0
 15 18  1  0  0  0  0
 18 19  1  0  0  0  0
 18 20  2  0  0  0  0
M  END
> <VConfSearch Rank>
145

> <Conf_Id>
58

> <Delta U+W>
0.019

> <U+W>
-51.727

> <U>
8.963

> <W>
-60.690

> <W(PB)>
-62.934

> <W(SA)>
2.244

> <Valence>
9.327

> <Coulomb>
-0.780

> <VdW>
0.417

> <VdW6>
-6.635

> <VdW12>
7.052

> <Bond>
0.105

> <Angle>
2.399

> <Pdih>
6.822

> <Idih>
0.000

> <Tether>
0.000

$$$$
VeraChem MOL file


 20 19  0  0  0  0  0  0  0  0999 V2000     
   19.7192   15.8040   21.0807 C   0  0  0  0  0  0  0  0  0  0  0  0
   20.2304   15.4870   21.9883 H   0  0  0  0  0  0  0  0  0  0  0  0
   19.7694   15.1398   20.2195 H   0  0  0  0  0  0  0  0  0  0  0  0
   19.0576   16.9626   21.0209 C   0  0  0  0  0  0  0  0  0  0  0  0
   18.5534   17.2618   20.1023 H   0  0  0  0  0  0  0  0  0  0  0  0
   18.9441   17.9346   22.1742 C   0  0  0  0  0  0  0  0  0  0  0  0
   19.2500   17.4499   23.1114 H   0  0  0  0  0  0  0  0  0  0  0  0
   17.8950   18.2336   22.3007 H   0  0  0  0  0  0  0  0  0  0  0  0
   19.8134   19.1868   21.9351 C   0  0  0  0  0  0  0  0  0  0  0  0
   20.8613   18.8833   21.8043 H   0  0  0  0  0  0  0  0  0  0  0  0
   19.5040   19.6709   20.9984 H   0  0  0  0  0  0  0  0  0  0  0  0
   19.7065   20.1924   23.1037 C   0  0  0  0  0  0  0  0  0  0  0  0
   20.0026   19.6954   24.0375 H   0  0  0  0  0  0  0  0  0  0  0  0
   18.6609   20.5063   23.2304 H   0  0  0  0  0  0  0  0  0  0  0  0
   20.5971   21.4448   22.8961 C   0  0  0  0  0  0  0  0  0  0  0  0
   20.5757   22.0638   23.8007 H   0  0  0  0  0  0  0  0  0  0  0  0
   21.6408   21.1460   22.7403 H   0  0  0  0  0  0  0  0  0  0  0  0
   20.1636   22.3274   21.7290 C   0  0  0  0  0  0  0  0  0  0  0  0
   19.1862   23.0342   21.8782 O   0  5  0  0  0  0  0  0  0  0  0  0
   20.8198   22.2936   20.7066 O   0  0  0  0  0  0  0  0  0  0  0  0
  1  2  1  0  0  0  0
  1  3  1  0  0  0  0
  1  4  2  0  0  0  0
  4  5  1  0  0  0  0
  4  6  1  0  0  0  0
  6  7  1  0  0  0  0
  6  8  1  0  0  0  0
  6  9  1  0  0  0  0
  9 10  1  0  0  0  0
  9 11  1  0  0  0  0
  9 12  1  0  0  0  0
 12 13  1  0  0  0  0
 12 14  1  0  0  0  0
 12 15  1  0  0  0  0
 15 16  1  0  0  0  0
 15 17  1  0  0  0  0
 15 18  1  0  0  0  0
 18 19  1  0  0  0  0
 18 20  2  0  0  0  0
M  END
> <VConfSearch Rank>
146

> <Conf_Id>
54

> <Delta U+W>
-0.048

> <U+W>
-51.793

> <U>
8.964

> <W>
-60.756

> <W(PB)>
-63.007

> <W(SA)>
2.251

> <Valence>
9.327

> <Coulomb>
-0.780

> <VdW>
0.417

> <VdW6>
-6.635

> <VdW12>
7.052

> <Bond>
0.105

> <Angle>
2.399

> <Pdih>
6.822

> <Idih>
0.000

> <Tether>
0.000

$$$$
VeraChem MOL file


 20 19  0  0  0  0  0  0  0  0999 V2000     
   23.1438   18.9928   21.7670 C   0  0  0  0  0  0  0  0  0  0  0  0
   23.8755   19.6189   21.2593 H   0  0  0  0  0  0  0  0  0  0  0  0
   23.4156   18.5954   22.7436 H   0  0  0  0  0  0  0  0  0  0  0  0
   21.9586   18.7273   21.2115 C   0  0  0  0  0  0  0  0  0  0  0  0
   21.7081   19.1324   20.2315 H   0  0  0  0  0  0  0  0  0  0  0  0
   20.8965   17.8610   21.8541 C   0  0  0  0  0  0  0  0  0  0  0  0
   21.3542   17.2235   22.6226 H   0  0  0  0  0  0  0  0  0  0  0  0
   20.4659   17.1806   21.1074 H   0  0  0  0  0  0  0  0  0  0  0  0
   19.7724   18.6952   22.5089 C   0  0  0  0  0  0  0  0  0  0  0  0
   19.1148   18.0183   23.0713 H   0  0  0  0  0  0  0  0  0  0  0  0
   20.2102   19.3865   23.2422 H   0  0  0  0  0  0  0  0  0  0  0  0
   18.9325   19.4871   21.4786 C   0  0  0  0  0  0  0  0  0  0  0  0
   18.5065   18.7976   20.7366 H   0  0  0  0  0  0  0  0  0  0  0  0
   19.5838   20.1798   20.9295 H   0  0  0  0  0  0  0  0  0  0  0  0
   17.7894   20.2997   22.1406 C   0  0  0  0  0  0  0  0  0  0  0  0
   18.1961   20.9691   22.9082 H   0  0  0  0  0  0  0  0  0  0  0  0
   17.3083   20.9352   21.3878 H   0  0  0  0  0  0  0  0  0  0  0  0
   16.7003   19.4377   22.7727 C   0  0  0  0  0  0  0  0  0  0  0  0
   16.6751   19.3378   23.9837 O   0  5  0  0  0  0  0  0  0  0  0  0
   15.8986   18.8972   22.0364 O   0  0  0  0  0  0  0  0  0  0  0  0
  1  2  1  0  0  0  0
  1  3  1  0  0  0  0
  1  4  2  0  0  0  0
  4  5  1  0  0  0  0
  4  6  1  0  0  0  0
  6  7  1  0  0  0  0
  6  8  1  0  0  0  0
  6  9  1  0  0  0  0
  9 10  1  0  0  0  0
  9 11  1  0  0  0  0
  9 12  1  0  0  0  0
 12 13  1  0  0  0  0
 12 14  1  0  0  0  0
 12 15  1  0  0  0  0
 15 16  1  0  0  0  0
 15 17  1  0  0  0  0
 15 18  1  0  0  0  0
 18 19  1  0  0  0  0
 18 20  2  0  0  0  0
M  END
> <VConfSearch Rank>
147

> <Conf_Id>
27

> <Delta U+W>
0.478

> <U+W>
-51.267

> <U>
9.192

> <W>
-60.459

> <W(PB)>
-62.649

> <W(SA)>
2.190

> <Valence>
9.572

> <Coulomb>
-0.884

> <VdW>
0.504

> <VdW6>
-7.168

> <VdW12>
7.672

> <Bond>
0.127

> <Angle>
2.504

> <Pdih>
6.941

> <Idih>
0.001

> <Tether>
0.000

$$$$
VeraChem MOL file


 20 19  0  0  0  0  0  0  0  0999 V2000     
   21.7776   20.2918   24.0827 C   0  0  0  0  0  0  0  0  0  0  0  0
   21.1675   20.6981   24.8878 H   0  0  0  0  0  0  0  0  0  0  0  0
   22.7109   20.8035   23.8541 H   0  0  0  0  0  0  0  0  0  0  0  0
   21.3979   19.2100   23.3977 C   0  0  0  0  0  0  0  0  0  0  0  0
   22.0252   18.8181   22.5977 H   0  0  0  0  0  0  0  0  0  0  0  0
   20.1191   18.4445   23.6633 C   0  0  0  0  0  0  0  0  0  0  0  0
   19.7513   18.6767   24.6720 H   0  0  0  0  0  0  0  0  0  0  0  0
   20.3199   17.3648   23.6506 H   0  0  0  0  0  0  0  0  0  0  0  0
   19.0093   18.7808   22.6419 C   0  0  0  0  0  0  0  0  0  0  0  0
   18.0753   18.3001   22.9636 H   0  0  0  0  0  0  0  0  0  0  0  0
   18.8240   19.8638   22.6480 H   0  0  0  0  0  0  0  0  0  0  0  0
   19.3513   18.3158   21.2078 C   0  0  0  0  0  0  0  0  0  0  0  0
   19.5617   17.2373   21.2080 H   0  0  0  0  0  0  0  0  0  0  0  0
   20.2629   18.8190   20.8577 H   0  0  0  0  0  0  0  0  0  0  0  0
   18.1987   18.6118   20.2168 C   0  0  0  0  0  0  0  0  0  0  0  0
   17.2817   18.1043   20.5393 H   0  0  0  0  0  0  0  0  0  0  0  0
   17.9844   19.6871   20.1961 H   0  0  0  0  0  0  0  0  0  0  0  0
   18.5121   18.1636   18.7938 C   0  0  0  0  0  0  0  0  0  0  0  0
   19.0563   18.9552   18.0496 O   0  5  0  0  0  0  0  0  0  0  0  0
   18.2195   17.0287   18.4725 O   0  0  0  0  0  0  0  0  0  0  0  0
  1  2  1  0  0  0  0
  1  3  1  0  0  0  0
  1  4  2  0  0  0  0
  4  5  1  0  0  0  0
  4  6  1  0  0  0  0
  6  7  1  0  0  0  0
  6  8  1  0  0  0  0
  6  9  1  0  0  0  0
  9 10  1  0  0  0  0
  9 11  1  0  0  0  0
  9 12  1  0  0  0  0
 12 13  1  0  0  0  0
 12 14  1  0  0  0  0
 12 15  1  0  0  0  0
 15 16  1  0  0  0  0
 15 17  1  0  0  0  0
 15 18  1  0  0  0  0
 18 19  1  0  0  0  0
 18 20  2  0  0  0  0
M  END
> <VConfSearch Rank>
148

> <Conf_Id>
41

> <Delta U+W>
-0.634

> <U+W>
-52.379

> <U>
7.828

> <W>
-60.207

> <W(PB)>
-62.449

> <W(SA)>
2.242

> <Valence>
9.300

> <Coulomb>
-2.080

> <VdW>
0.608

> <VdW6>
-6.341

> <VdW12>
6.949

> <Bond>
0.103

> <Angle>
2.334

> <Pdih>
6.862

> <Idih>
0.001

> <Tether>
0.000

$$$$
VeraChem MOL file


 20 19  0  0  0  0  0  0  0  0999 V2000     
   20.9092   21.4009   24.3329 C   0  0  0  0  0  0  0  0  0  0  0  0
   21.6612   22.1401   24.6038 H   0  0  0  0  0  0  0  0  0  0  0  0
   19.9073   21.5337   24.7379 H   0  0  0  0  0  0  0  0  0  0  0  0
   21.2078   20.3740   23.5329 C   0  0  0  0  0  0  0  0  0  0  0  0
   22.2168   20.2592   23.1373 H   0  0  0  0  0  0  0  0  0  0  0  0
   20.2185   19.3092   23.1145 C   0  0  0  0  0  0  0  0  0  0  0  0
   19.3227   19.3521   23.7487 H   0  0  0  0  0  0  0  0  0  0  0  0
   20.6697   18.3200   23.2657 H   0  0  0  0  0  0  0  0  0  0  0  0
   19.8115   19.4811   21.6340 C   0  0  0  0  0  0  0  0  0  0  0  0
   19.4558   20.5094   21.4812 H   0  0  0  0  0  0  0  0  0  0  0  0
   20.6965   19.3627   20.9937 H   0  0  0  0  0  0  0  0  0  0  0  0
   18.7003   18.5027   21.1801 C   0  0  0  0  0  0  0  0  0  0  0  0
   18.4183   18.7432   20.1456 H   0  0  0  0  0  0  0  0  0  0  0  0
   17.8018   18.6678   21.7899 H   0  0  0  0  0  0  0  0  0  0  0  0
   19.0963   17.0026   21.2527 C   0  0  0  0  0  0  0  0  0  0  0  0
   19.3124   16.7087   22.2861 H   0  0  0  0  0  0  0  0  0  0  0  0
   18.2496   16.3876   20.9262 H   0  0  0  0  0  0  0  0  0  0  0  0
   20.2908   16.6306   20.3789 C   0  0  0  0  0  0  0  0  0  0  0  0
   20.1315   16.6007   19.1743 O   0  5  0  0  0  0  0  0  0  0  0  0
   21.3431   16.3634   20.9251 O   0  0  0  0  0  0  0  0  0  0  0  0
  1  2  1  0  0  0  0
  1  3  1  0  0  0  0
  1  4  2  0  0  0  0
  4  5  1  0  0  0  0
  4  6  1  0  0  0  0
  6  7  1  0  0  0  0
  6  8  1  0  0  0  0
  6  9  1  0  0  0  0
  9 10  1  0  0  0  0
  9 11  1  0  0  0  0
  9 12  1  0  0  0  0
 12 13  1  0  0  0  0
 12 14  1  0  0  0  0
 12 15  1  0  0  0  0
 15 16  1  0  0  0  0
 15 17  1  0  0  0  0
 15 18  1  0  0  0  0
 18 19  1  0  0  0  0
 18 20  2  0  0  0  0
M  END
> <VConfSearch Rank>
149

> <Conf_Id>
84

> <Delta U+W>
0.942

> <U+W>
-50.803

> <U>
10.196

> <W>
-60.999

> <W(PB)>
-63.182

> <W(SA)>
2.182

> <Valence>
9.837

> <Coulomb>
0.032

> <VdW>
0.328

> <VdW6>
-7.642

> <VdW12>
7.969

> <Bond>
0.151

> <Angle>
2.748

> <Pdih>
6.937

> <Idih>
0.001

> <Tether>
0.000

$$$$
VeraChem MOL file


 20 19  0  0  0  0  0  0  0  0999 V2000     
   17.2007   20.8676   23.9315 C   0  0  0  0  0  0  0  0  0  0  0  0
   16.1922   21.2778   23.9303 H   0  0  0  0  0  0  0  0  0  0  0  0
   17.4883   20.2474   24.7790 H   0  0  0  0  0  0  0  0  0  0  0  0
   18.0478   21.1158   22.9293 C   0  0  0  0  0  0  0  0  0  0  0  0
   17.7398   21.7386   22.0897 H   0  0  0  0  0  0  0  0  0  0  0  0
   19.4615   20.5823   22.8624 C   0  0  0  0  0  0  0  0  0  0  0  0
   19.7682   20.1939   23.8431 H   0  0  0  0  0  0  0  0  0  0  0  0
   20.1515   21.4006   22.6167 H   0  0  0  0  0  0  0  0  0  0  0  0
   19.5862   19.4647   21.8058 C   0  0  0  0  0  0  0  0  0  0  0  0
   18.8888   18.6526   22.0543 H   0  0  0  0  0  0  0  0  0  0  0  0
   19.2835   19.8537   20.8238 H   0  0  0  0  0  0  0  0  0  0  0  0
   21.0265   18.9108   21.7225 C   0  0  0  0  0  0  0  0  0  0  0  0
   21.3275   18.5080   22.6996 H   0  0  0  0  0  0  0  0  0  0  0  0
   21.7180   19.7328   21.4928 H   0  0  0  0  0  0  0  0  0  0  0  0
   21.1799   17.8079   20.6432 C   0  0  0  0  0  0  0  0  0  0  0  0
   20.8573   18.1867   19.6657 H   0  0  0  0  0  0  0  0  0  0  0  0
   22.2373   17.5357   20.5450 H   0  0  0  0  0  0  0  0  0  0  0  0
   20.4061   16.5286   20.9494 C   0  0  0  0  0  0  0  0  0  0  0  0
   19.3866   16.3090   20.3254 O   0  5  0  0  0  0  0  0  0  0  0  0
   20.8518   15.7789   21.7958 O   0  0  0  0  0  0  0  0  0  0  0  0
  1  2  1  0  0  0  0
  1  3  1  0  0  0  0
  1  4  2  0  0  0  0
  4  5  1  0  0  0  0
  4  6  1  0  0  0  0
  6  7  1  0  0  0  0
  6  8  1  0  0  0  0
  6  9  1  0  0  0  0
  9 10  1  0  0  0  0
  9 11  1  0  0  0  0
  9 12  1  0  0  0  0
 12 13  1  0  0  0  0
 12 14  1  0  0  0  0
 12 15  1  0  0  0  0
 15 16  1  0  0  0  0
 15 17  1  0  0  0  0
 15 18  1  0  0  0  0
 18 19  1  0  0  0  0
 18 20  2  0  0  0  0
M  END
> <VConfSearch Rank>
150

> <Conf_Id>
81

> <Delta U+W>
-0.051

> <U+W>
-51.796

> <U>
9.412

> <W>
-61.209

> <W(PB)>
-63.452

> <W(SA)>
2.243

> <Valence>
9.329

> <Coulomb>
-0.323

> <VdW>
0.406

> <VdW6>
-6.640

> <VdW12>
7.046

> <Bond>
0.105

> <Angle>
2.401

> <Pdih>
6.823

> <Idih>
0.000

> <Tether>
0.000

$$$$
VeraChem MOL file


 20 19  0  0  0  0  0  0  0  0999 V2000     
   18.8532   22.1973   21.6000 C   0  0  0  0  0  0  0  0  0  0  0  0
   17.7778   22.2393   21.4350 H   0  0  0  0  0  0  0  0  0  0  0  0
   19.3598   23.1297   21.8432 H   0  0  0  0  0  0  0  0  0  0  0  0
   19.5279   21.0481   21.5112 C   0  0  0  0  0  0  0  0  0  0  0  0
   20.6046   21.0282   21.6776 H   0  0  0  0  0  0  0  0  0  0  0  0
   18.8935   19.7161   21.1725 C   0  0  0  0  0  0  0  0  0  0  0  0
   19.5054   19.1849   20.4320 H   0  0  0  0  0  0  0  0  0  0  0  0
   17.9196   19.8813   20.6925 H   0  0  0  0  0  0  0  0  0  0  0  0
   18.6806   18.8280   22.4219 C   0  0  0  0  0  0  0  0  0  0  0  0
   17.9961   19.3433   23.1094 H   0  0  0  0  0  0  0  0  0  0  0  0
   18.1690   17.9042   22.1189 H   0  0  0  0  0  0  0  0  0  0  0  0
   19.9788   18.4655   23.1883 C   0  0  0  0  0  0  0  0  0  0  0  0
   19.7119   17.8604   24.0657 H   0  0  0  0  0  0  0  0  0  0  0  0
   20.4406   19.3813   23.5805 H   0  0  0  0  0  0  0  0  0  0  0  0
   21.0260   17.6866   22.3464 C   0  0  0  0  0  0  0  0  0  0  0  0
   21.3715   18.2937   21.5020 H   0  0  0  0  0  0  0  0  0  0  0  0
   21.9088   17.4828   22.9635 H   0  0  0  0  0  0  0  0  0  0  0  0
   20.5251   16.3474   21.8134 C   0  0  0  0  0  0  0  0  0  0  0  0
   20.3036   16.2475   20.6226 O   0  5  0  0  0  0  0  0  0  0  0  0
   20.3864   15.4331   22.6023 O   0  0  0  0  0  0  0  0  0  0  0  0
  1  2  1  0  0  0  0
  1  3  1  0  0  0  0
  1  4  2  0  0  0  0
  4  5  1  0  0  0  0
  4  6  1  0  0  0  0
  6  7  1  0  0  0  0
  6  8  1  0  0  0  0
  6  9  1  0  0  0  0
  9 10  1  0  0  0  0
  9 11  1  0  0  0  0
  9 12  1  0  0  0  0
 12 13  1  0  0  0  0
 12 14  1  0  0  0  0
 12 15  1  0  0  0  0
 15 16  1  0  0  0  0
 15 17  1  0  0  0  0
 15 18  1  0  0  0  0
 18 19  1  0  0  0  0
 18 20  2  0  0  0  0
M  END
> <VConfSearch Rank>
151

> <Conf_Id>
86

> <Delta U+W>
1.248

> <U+W>
-50.498

> <U>
10.404

> <W>
-60.901

> <W(PB)>
-63.061

> <W(SA)>
2.159

> <Valence>
10.021

> <Coulomb>
0.094

> <VdW>
0.289

> <VdW6>
-8.409

> <VdW12>
8.698

> <Bond>
0.179

> <Angle>
2.939

> <Pdih>
6.902

> <Idih>
0.001

> <Tether>
0.000

$$$$
VeraChem MOL file


 20 19  0  0  0  0  0  0  0  0999 V2000     
   21.3308   18.9737   24.7446 C   0  0  0  0  0  0  0  0  0  0  0  0
   22.3074   19.2435   25.1430 H   0  0  0  0  0  0  0  0  0  0  0  0
   20.4572   19.4287   25.2084 H   0  0  0  0  0  0  0  0  0  0  0  0
   21.2135   18.1201   23.7241 C   0  0  0  0  0  0  0  0  0  0  0  0
   22.1009   17.6774   23.2725 H   0  0  0  0  0  0  0  0  0  0  0  0
   19.8923   17.6982   23.1171 C   0  0  0  0  0  0  0  0  0  0  0  0
   19.0547   18.0233   23.7491 H   0  0  0  0  0  0  0  0  0  0  0  0
   19.8471   16.6015   23.0834 H   0  0  0  0  0  0  0  0  0  0  0  0
   19.7019   18.2486   21.6857 C   0  0  0  0  0  0  0  0  0  0  0  0
   20.5412   17.9271   21.0539 H   0  0  0  0  0  0  0  0  0  0  0  0
   18.7961   17.8015   21.2537 H   0  0  0  0  0  0  0  0  0  0  0  0
   19.5800   19.7905   21.6504 C   0  0  0  0  0  0  0  0  0  0  0  0
   20.4879   20.2389   22.0757 H   0  0  0  0  0  0  0  0  0  0  0  0
   18.7429   20.1119   22.2854 H   0  0  0  0  0  0  0  0  0  0  0  0
   19.3773   20.3402   20.2145 C   0  0  0  0  0  0  0  0  0  0  0  0
   19.4204   21.4355   20.2322 H   0  0  0  0  0  0  0  0  0  0  0  0
   20.1900   20.0009   19.5609 H   0  0  0  0  0  0  0  0  0  0  0  0
   18.0458   19.9463   19.5814 C   0  0  0  0  0  0  0  0  0  0  0  0
   17.0436   20.5283   19.9472 O   0  5  0  0  0  0  0  0  0  0  0  0
   18.0467   19.0771   18.7320 O   0  0  0  0  0  0  0  0  0  0  0  0
  1  2  1  0  0  0  0
  1  3  1  0  0  0  0
  1  4  2  0  0  0  0
  4  5  1  0  0  0  0
  4  6  1  0  0  0  0
  6  7  1  0  0  0  0
  6  8  1  0  0  0  0
  6  9  1  0  0  0  0
  9 10  1  0  0  0  0
  9 11  1  0  0  0  0
  9 12  1  0  0  0  0
 12 13  1  0  0  0  0
 12 14  1  0  0  0  0
 12 15  1  0  0  0  0
 15 16  1  0  0  0  0
 15 17  1  0  0  0  0
 15 18  1  0  0  0  0
 18 19  1  0  0  0  0
 18 20  2  0  0  0  0
M  END
> <VConfSearch Rank>
152

> <Conf_Id>
28

> <Delta U+W>
0.446

> <U+W>
-51.299

> <U>
9.295

> <W>
-60.594

> <W(PB)>
-62.806

> <W(SA)>
2.212

> <Valence>
9.495

> <Coulomb>
-0.610

> <VdW>
0.409

> <VdW6>
-7.332

> <VdW12>
7.741

> <Bond>
0.126

> <Angle>
2.497

> <Pdih>
6.872

> <Idih>
0.000

> <Tether>
0.000

$$$$
VeraChem MOL file


 20 19  0  0  0  0  0  0  0  0999 V2000     
   21.4302   16.9479   23.5264 C   0  0  0  0  0  0  0  0  0  0  0  0
   22.1284   17.7519   23.3039 H   0  0  0  0  0  0  0  0  0  0  0  0
   21.8062   16.1238   24.1302 H   0  0  0  0  0  0  0  0  0  0  0  0
   20.1649   16.9547   23.0916 C   0  0  0  0  0  0  0  0  0  0  0  0
   19.5118   16.1213   23.3493 H   0  0  0  0  0  0  0  0  0  0  0  0
   19.5006   18.0271   22.2442 C   0  0  0  0  0  0  0  0  0  0  0  0
   18.6685   18.4553   22.8178 H   0  0  0  0  0  0  0  0  0  0  0  0
   19.0451   17.5491   21.3668 H   0  0  0  0  0  0  0  0  0  0  0  0
   20.4429   19.1601   21.7679 C   0  0  0  0  0  0  0  0  0  0  0  0
   20.8360   19.7035   22.6381 H   0  0  0  0  0  0  0  0  0  0  0  0
   21.3080   18.7151   21.2577 H   0  0  0  0  0  0  0  0  0  0  0  0
   19.7670   20.1568   20.7938 C   0  0  0  0  0  0  0  0  0  0  0  0
   19.4210   19.6145   19.9036 H   0  0  0  0  0  0  0  0  0  0  0  0
   20.5219   20.8737   20.4424 H   0  0  0  0  0  0  0  0  0  0  0  0
   18.5766   20.9469   21.4033 C   0  0  0  0  0  0  0  0  0  0  0  0
   18.1573   21.6148   20.6419 H   0  0  0  0  0  0  0  0  0  0  0  0
   17.7693   20.2664   21.6965 H   0  0  0  0  0  0  0  0  0  0  0  0
   18.9504   21.8093   22.6056 C   0  0  0  0  0  0  0  0  0  0  0  0
   19.6270   22.8002   22.4113 O   0  5  0  0  0  0  0  0  0  0  0  0
   18.5386   21.4802   23.7006 O   0  0  0  0  0  0  0  0  0  0  0  0
  1  2  1  0  0  0  0
  1  3  1  0  0  0  0
  1  4  2  0  0  0  0
  4  5  1  0  0  0  0
  4  6  1  0  0  0  0
  6  7  1  0  0  0  0
  6  8  1  0  0  0  0
  6  9  1  0  0  0  0
  9 10  1  0  0  0  0
  9 11  1  0  0  0  0
  9 12  1  0  0  0  0
 12 13  1  0  0  0  0
 12 14  1  0  0  0  0
 12 15  1  0  0  0  0
 15 16  1  0  0  0  0
 15 17  1  0  0  0  0
 15 18  1  0  0  0  0
 18 19  1  0  0  0  0
 18 20  2  0  0  0  0
M  END
> <VConfSearch Rank>
153

> <Conf_Id>
53

> <Delta U+W>
0.549

> <U+W>
-51.197

> <U>
10.870

> <W>
-62.067

> <W(PB)>
-64.228

> <W(SA)>
2.161

> <Valence>
8.803

> <Coulomb>
1.020

> <VdW>
1.048

> <VdW6>
-8.312

> <VdW12>
9.360

> <Bond>
0.212

> <Angle>
3.379

> <Pdih>
5.211

> <Idih>
0.001

> <Tether>
0.000

$$$$
VeraChem MOL file


 20 19  0  0  0  0  0  0  0  0999 V2000     
   17.1811   17.9763   21.1954 C   0  0  0  0  0  0  0  0  0  0  0  0
   17.7800   17.0895   21.0000 H   0  0  0  0  0  0  0  0  0  0  0  0
   16.3072   18.1312   20.5651 H   0  0  0  0  0  0  0  0  0  0  0  0
   17.4880   18.8429   22.1667 C   0  0  0  0  0  0  0  0  0  0  0  0
   16.8527   19.7143   22.3225 H   0  0  0  0  0  0  0  0  0  0  0  0
   18.6745   18.7546   23.1124 C   0  0  0  0  0  0  0  0  0  0  0  0
   18.3342   18.3276   24.0650 H   0  0  0  0  0  0  0  0  0  0  0  0
   19.0065   19.7699   23.3645 H   0  0  0  0  0  0  0  0  0  0  0  0
   19.8927   17.9447   22.5969 C   0  0  0  0  0  0  0  0  0  0  0  0
   20.6440   17.8964   23.3970 H   0  0  0  0  0  0  0  0  0  0  0  0
   19.5894   16.9054   22.4148 H   0  0  0  0  0  0  0  0  0  0  0  0
   20.5588   18.5160   21.3176 C   0  0  0  0  0  0  0  0  0  0  0  0
   19.8394   18.5020   20.4888 H   0  0  0  0  0  0  0  0  0  0  0  0
   21.3789   17.8482   21.0201 H   0  0  0  0  0  0  0  0  0  0  0  0
   21.1214   19.9555   21.4720 C   0  0  0  0  0  0  0  0  0  0  0  0
   21.5658   20.2747   20.5222 H   0  0  0  0  0  0  0  0  0  0  0  0
   20.3139   20.6639   21.6891 H   0  0  0  0  0  0  0  0  0  0  0  0
   22.1966   20.0937   22.5459 C   0  0  0  0  0  0  0  0  0  0  0  0
   21.9149   20.6820   23.5714 O   0  5  0  0  0  0  0  0  0  0  0  0
   23.2947   19.6240   22.3202 O   0  0  0  0  0  0  0  0  0  0  0  0
  1  2  1  0  0  0  0
  1  3  1  0  0  0  0
  1  4  2  0  0  0  0
  4  5  1  0  0  0  0
  4  6  1  0  0  0  0
  6  7  1  0  0  0  0
  6  8  1  0  0  0  0
  6  9  1  0  0  0  0
  9 10  1  0  0  0  0
  9 11  1  0  0  0  0
  9 12  1  0  0  0  0
 12 13  1  0  0  0  0
 12 14  1  0  0  0  0
 12 15  1  0  0  0  0
 15 16  1  0  0  0  0
 15 17  1  0  0  0  0
 15 18  1  0  0  0  0
 18 19  1  0  0  0  0
 18 20  2  0  0  0  0
M  END
> <VConfSearch Rank>
154

> <Conf_Id>
66

> <Delta U+W>
1.737

> <U+W>
-50.008

> <U>
11.091

> <W>
-61.099

> <W(PB)>
-63.213

> <W(SA)>
2.114

> <Valence>
9.664

> <Coulomb>
0.658

> <VdW>
0.769

> <VdW6>
-9.171

> <VdW12>
9.940

> <Bond>
0.244

> <Angle>
3.658

> <Pdih>
5.762

> <Idih>
0.001

> <Tether>
0.000

$$$$
VeraChem MOL file


 20 19  0  0  0  0  0  0  0  0999 V2000     
   20.2245   16.5511   21.1557 C   0  0  0  0  0  0  0  0  0  0  0  0
   21.0323   16.7758   21.8486 H   0  0  0  0  0  0  0  0  0  0  0  0
   19.8824   15.5186   21.1144 H   0  0  0  0  0  0  0  0  0  0  0  0
   19.6701   17.4880   20.3786 C   0  0  0  0  0  0  0  0  0  0  0  0
   18.8650   17.2069   19.7002 H   0  0  0  0  0  0  0  0  0  0  0  0
   20.0401   18.9617   20.3344 C   0  0  0  0  0  0  0  0  0  0  0  0
   19.1347   19.5494   20.1381 H   0  0  0  0  0  0  0  0  0  0  0  0
   20.6819   19.1353   19.4606 H   0  0  0  0  0  0  0  0  0  0  0  0
   20.7407   19.5234   21.5993 C   0  0  0  0  0  0  0  0  0  0  0  0
   21.6783   18.9780   21.7692 H   0  0  0  0  0  0  0  0  0  0  0  0
   21.0346   20.5640   21.4056 H   0  0  0  0  0  0  0  0  0  0  0  0
   19.8809   19.4822   22.8884 C   0  0  0  0  0  0  0  0  0  0  0  0
   20.4986   19.8208   23.7316 H   0  0  0  0  0  0  0  0  0  0  0  0
   19.5888   18.4488   23.1173 H   0  0  0  0  0  0  0  0  0  0  0  0
   18.6112   20.3696   22.8151 C   0  0  0  0  0  0  0  0  0  0  0  0
   18.8809   21.3954   22.5375 H   0  0  0  0  0  0  0  0  0  0  0  0
   17.9230   19.9938   22.0496 H   0  0  0  0  0  0  0  0  0  0  0  0
   17.8519   20.4226   24.1361 C   0  0  0  0  0  0  0  0  0  0  0  0
   16.9708   19.6075   24.3262 O   0  5  0  0  0  0  0  0  0  0  0  0
   18.1714   21.2694   24.9472 O   0  0  0  0  0  0  0  0  0  0  0  0
  1  2  1  0  0  0  0
  1  3  1  0  0  0  0
  1  4  2  0  0  0  0
  4  5  1  0  0  0  0
  4  6  1  0  0  0  0
  6  7  1  0  0  0  0
  6  8  1  0  0  0  0
  6  9  1  0  0  0  0
  9 10  1  0  0  0  0
  9 11  1  0  0  0  0
  9 12  1  0  0  0  0
 12 13  1  0  0  0  0
 12 14  1  0  0  0  0
 12 15  1  0  0  0  0
 15 16  1  0  0  0  0
 15 17  1  0  0  0  0
 15 18  1  0  0  0  0
 18 19  1  0  0  0  0
 18 20  2  0  0  0  0
M  END
> <VConfSearch Rank>
155

> <Conf_Id>
64

> <Delta U+W>
0.366

> <U+W>
-51.379

> <U>
10.000

> <W>
-61.379

> <W(PB)>
-63.541

> <W(SA)>
2.162

> <Valence>
9.398

> <Coulomb>
-0.504

> <VdW>
1.105

> <VdW6>
-7.975

> <VdW12>
9.080

> <Bond>
0.216

> <Angle>
3.417

> <Pdih>
5.765

> <Idih>
0.001

> <Tether>
0.000

$$$$
VeraChem MOL file


 20 19  0  0  0  0  0  0  0  0999 V2000     
   17.6600   17.9022   23.5449 C   0  0  0  0  0  0  0  0  0  0  0  0
   17.0537   18.7503   23.2311 H   0  0  0  0  0  0  0  0  0  0  0  0
   17.5376   17.5497   24.5676 H   0  0  0  0  0  0  0  0  0  0  0  0
   18.5244   17.3168   22.7118 C   0  0  0  0  0  0  0  0  0  0  0  0
   19.1237   16.4705   23.0465 H   0  0  0  0  0  0  0  0  0  0  0  0
   18.7496   17.7504   21.2789 C   0  0  0  0  0  0  0  0  0  0  0  0
   17.9742   18.4620   20.9639 H   0  0  0  0  0  0  0  0  0  0  0  0
   18.6539   16.8768   20.6204 H   0  0  0  0  0  0  0  0  0  0  0  0
   20.1445   18.3816   21.0701 C   0  0  0  0  0  0  0  0  0  0  0  0
   20.9199   17.6701   21.3858 H   0  0  0  0  0  0  0  0  0  0  0  0
   20.2972   18.5574   19.9965 H   0  0  0  0  0  0  0  0  0  0  0  0
   20.3158   19.7153   21.8327 C   0  0  0  0  0  0  0  0  0  0  0  0
   20.1918   19.5480   22.9115 H   0  0  0  0  0  0  0  0  0  0  0  0
   19.5292   20.4194   21.5280 H   0  0  0  0  0  0  0  0  0  0  0  0
   21.7028   20.3533   21.5736 C   0  0  0  0  0  0  0  0  0  0  0  0
   22.4991   19.6665   21.8848 H   0  0  0  0  0  0  0  0  0  0  0  0
   21.8384   20.5434   20.5022 H   0  0  0  0  0  0  0  0  0  0  0  0
   21.8962   21.6708   22.3159 C   0  0  0  0  0  0  0  0  0  0  0  0
   21.5394   22.6953   21.7682 O   0  5  0  0  0  0  0  0  0  0  0  0
   22.3856   21.6368   23.4276 O   0  0  0  0  0  0  0  0  0  0  0  0
  1  2  1  0  0  0  0
  1  3  1  0  0  0  0
  1  4  2  0  0  0  0
  4  5  1  0  0  0  0
  4  6  1  0  0  0  0
  6  7  1  0  0  0  0
  6  8  1  0  0  0  0
  6  9  1  0  0  0  0
  9 10  1  0  0  0  0
  9 11  1  0  0  0  0
  9 12  1  0  0  0  0
 12 13  1  0  0  0  0
 12 14  1  0  0  0  0
 12 15  1  0  0  0  0
 15 16  1  0  0  0  0
 15 17  1  0  0  0  0
 15 18  1  0  0  0  0
 18 19  1  0  0  0  0
 18 20  2  0  0  0  0
M  END
> <VConfSearch Rank>
156

> <Conf_Id>
42

> <Delta U+W>
-0.601

> <U+W>
-52.347

> <U>
8.428

> <W>
-60.774

> <W(PB)>
-62.982

> <W(SA)>
2.208

> <Valence>
9.231

> <Coulomb>
-1.304

> <VdW>
0.501

> <VdW6>
-6.515

> <VdW12>
7.016

> <Bond>
0.103

> <Angle>
2.328

> <Pdih>
6.799

> <Idih>
0.000

> <Tether>
0.000

$$$$
VeraChem MOL file


 20 19  0  0  0  0  0  0  0  0999 V2000     
   19.7464   21.7656   23.7124 C   0  0  0  0  0  0  0  0  0  0  0  0
   18.6624   21.8485   23.7708 H   0  0  0  0  0  0  0  0  0  0  0  0
   20.3151   22.6887   23.6139 H   0  0  0  0  0  0  0  0  0  0  0  0
   20.3584   20.5792   23.7554 C   0  0  0  0  0  0  0  0  0  0  0  0
   21.4445   20.5179   23.6924 H   0  0  0  0  0  0  0  0  0  0  0  0
   19.6363   19.2553   23.8894 C   0  0  0  0  0  0  0  0  0  0  0  0
   18.5792   19.4151   24.1415 H   0  0  0  0  0  0  0  0  0  0  0  0
   20.0722   18.6917   24.7249 H   0  0  0  0  0  0  0  0  0  0  0  0
   19.7375   18.4009   22.6058 C   0  0  0  0  0  0  0  0  0  0  0  0
   20.7955   18.2366   22.3592 H   0  0  0  0  0  0  0  0  0  0  0  0
   19.3048   17.4106   22.8029 H   0  0  0  0  0  0  0  0  0  0  0  0
   19.0087   19.0437   21.4020 C   0  0  0  0  0  0  0  0  0  0  0  0
   19.4593   20.0179   21.1670 H   0  0  0  0  0  0  0  0  0  0  0  0
   17.9626   19.2381   21.6743 H   0  0  0  0  0  0  0  0  0  0  0  0
   19.0425   18.1474   20.1370 C   0  0  0  0  0  0  0  0  0  0  0  0
   18.6177   17.1611   20.3594 H   0  0  0  0  0  0  0  0  0  0  0  0
   18.4167   18.5937   19.3552 H   0  0  0  0  0  0  0  0  0  0  0  0
   20.4384   17.9552   19.5511 C   0  0  0  0  0  0  0  0  0  0  0  0
   21.0077   16.9006   19.7535 O   0  5  0  0  0  0  0  0  0  0  0  0
   20.9121   18.8596   18.8917 O   0  0  0  0  0  0  0  0  0  0  0  0
  1  2  1  0  0  0  0
  1  3  1  0  0  0  0
  1  4  2  0  0  0  0
  4  5  1  0  0  0  0
  4  6  1  0  0  0  0
  6  7  1  0  0  0  0
  6  8  1  0  0  0  0
  6  9  1  0  0  0  0
  9 10  1  0  0  0  0
  9 11  1  0  0  0  0
  9 12  1  0  0  0  0
 12 13  1  0  0  0  0
 12 14  1  0  0  0  0
 12 15  1  0  0  0  0
 15 16  1  0  0  0  0
 15 17  1  0  0  0  0
 15 18  1  0  0  0  0
 18 19  1  0  0  0  0
 18 20  2  0  0  0  0
M  END
> <VConfSearch Rank>
157

> <Conf_Id>
68

> <Delta U+W>
0.492

> <U+W>
-51.253

> <U>
10.179

> <W>
-61.432

> <W(PB)>
-63.627

> <W(SA)>
2.195

> <Valence>
9.483

> <Coulomb>
0.361

> <VdW>
0.335

> <VdW6>
-7.385

> <VdW12>
7.720

> <Bond>
0.125

> <Angle>
2.487

> <Pdih>
6.870

> <Idih>
0.001

> <Tether>
0.000

$$$$
VeraChem MOL file


 20 19  0  0  0  0  0  0  0  0999 V2000     
   21.1390   21.6437   20.5831 C   0  0  0  0  0  0  0  0  0  0  0  0
   21.7382   21.1237   19.8374 H   0  0  0  0  0  0  0  0  0  0  0  0
   21.5370   22.5734   20.9862 H   0  0  0  0  0  0  0  0  0  0  0  0
   19.9628   21.1615   20.9925 C   0  0  0  0  0  0  0  0  0  0  0  0
   19.3779   21.6996   21.7379 H   0  0  0  0  0  0  0  0  0  0  0  0
   19.3447   19.8808   20.4733 C   0  0  0  0  0  0  0  0  0  0  0  0
   19.8082   19.6074   19.5158 H   0  0  0  0  0  0  0  0  0  0  0  0
   18.2781   20.0380   20.2646 H   0  0  0  0  0  0  0  0  0  0  0  0
   19.5154   18.7036   21.4598 C   0  0  0  0  0  0  0  0  0  0  0  0
   19.1665   17.7817   20.9749 H   0  0  0  0  0  0  0  0  0  0  0  0
   20.5838   18.5599   21.6727 H   0  0  0  0  0  0  0  0  0  0  0  0
   18.7366   18.9082   22.7809 C   0  0  0  0  0  0  0  0  0  0  0  0
   17.6795   19.0998   22.5525 H   0  0  0  0  0  0  0  0  0  0  0  0
   19.1133   19.7964   23.3063 H   0  0  0  0  0  0  0  0  0  0  0  0
   18.8332   17.6813   23.7245 C   0  0  0  0  0  0  0  0  0  0  0  0
   18.1737   17.8301   24.5876 H   0  0  0  0  0  0  0  0  0  0  0  0
   18.4833   16.7783   23.2097 H   0  0  0  0  0  0  0  0  0  0  0  0
   20.2377   17.4219   24.2619 C   0  0  0  0  0  0  0  0  0  0  0  0
   20.6429   18.1245   25.1670 O   0  5  0  0  0  0  0  0  0  0  0  0
   20.8816   16.5131   23.7756 O   0  0  0  0  0  0  0  0  0  0  0  0
  1  2  1  0  0  0  0
  1  3  1  0  0  0  0
  1  4  2  0  0  0  0
  4  5  1  0  0  0  0
  4  6  1  0  0  0  0
  6  7  1  0  0  0  0
  6  8  1  0  0  0  0
  6  9  1  0  0  0  0
  9 10  1  0  0  0  0
  9 11  1  0  0  0  0
  9 12  1  0  0  0  0
 12 13  1  0  0  0  0
 12 14  1  0  0  0  0
 12 15  1  0  0  0  0
 15 16  1  0  0  0  0
 15 17  1  0  0  0  0
 15 18  1  0  0  0  0
 18 19  1  0  0  0  0
 18 20  2  0  0  0  0
M  END
> <VConfSearch Rank>
158

> <Conf_Id>
87

> <Delta U+W>
0.339

> <U+W>
-51.407

> <U>
10.461

> <W>
-61.867

> <W(PB)>
-64.045

> <W(SA)>
2.178

> <Valence>
9.555

> <Coulomb>
0.483

> <VdW>
0.423

> <VdW6>
-7.223

> <VdW12>
7.646

> <Bond>
0.126

> <Angle>
2.492

> <Pdih>
6.936

> <Idih>
0.001

> <Tether>
0.000

$$$$
VeraChem MOL file


 20 19  0  0  0  0  0  0  0  0999 V2000     
   19.7454   20.9405   19.9726 C   0  0  0  0  0  0  0  0  0  0  0  0
   19.8290   20.3709   19.0485 H   0  0  0  0  0  0  0  0  0  0  0  0
   19.1780   21.8690   19.9406 H   0  0  0  0  0  0  0  0  0  0  0  0
   20.3143   20.5170   21.1043 C   0  0  0  0  0  0  0  0  0  0  0  0
   20.2270   21.1056   22.0168 H   0  0  0  0  0  0  0  0  0  0  0  0
   21.1266   19.2446   21.2179 C   0  0  0  0  0  0  0  0  0  0  0  0
   21.7656   19.2797   22.1103 H   0  0  0  0  0  0  0  0  0  0  0  0
   21.8130   19.1926   20.3620 H   0  0  0  0  0  0  0  0  0  0  0  0
   20.2639   17.9583   21.2338 C   0  0  0  0  0  0  0  0  0  0  0  0
   19.4967   18.0107   20.4492 H   0  0  0  0  0  0  0  0  0  0  0  0
   20.9128   17.1139   20.9643 H   0  0  0  0  0  0  0  0  0  0  0  0
   19.6077   17.6295   22.5985 C   0  0  0  0  0  0  0  0  0  0  0  0
   20.3760   17.5917   23.3830 H   0  0  0  0  0  0  0  0  0  0  0  0
   19.1786   16.6196   22.5399 H   0  0  0  0  0  0  0  0  0  0  0  0
   18.4853   18.6126   23.0191 C   0  0  0  0  0  0  0  0  0  0  0  0
   18.9009   19.6024   23.2330 H   0  0  0  0  0  0  0  0  0  0  0  0
   17.7596   18.7309   22.2057 H   0  0  0  0  0  0  0  0  0  0  0  0
   17.7334   18.1524   24.2627 C   0  0  0  0  0  0  0  0  0  0  0  0
   18.1628   18.4858   25.3496 O   0  5  0  0  0  0  0  0  0  0  0  0
   16.7496   17.4548   24.1130 O   0  0  0  0  0  0  0  0  0  0  0  0
  1  2  1  0  0  0  0
  1  3  1  0  0  0  0
  1  4  2  0  0  0  0
  4  5  1  0  0  0  0
  4  6  1  0  0  0  0
  6  7  1  0  0  0  0
  6  8  1  0  0  0  0
  6  9  1  0  0  0  0
  9 10  1  0  0  0  0
  9 11  1  0  0  0  0
  9 12  1  0  0  0  0
 12 13  1  0  0  0  0
 12 14  1  0  0  0  0
 12 15  1  0  0  0  0
 15 16  1  0  0  0  0
 15 17  1  0  0  0  0
 15 18  1  0  0  0  0
 18 19  1  0  0  0  0
 18 20  2  0  0  0  0
M  END
> <VConfSearch Rank>
159

> <Conf_Id>
51

> <Delta U+W>
1.709

> <U+W>
-50.036

> <U>
10.643

> <W>
-60.679

> <W(PB)>
-62.882

> <W(SA)>
2.203

> <Valence>
11.231

> <Coulomb>
-1.077

> <VdW>
0.489

> <VdW6>
-7.546

> <VdW12>
8.035

> <Bond>
0.159

> <Angle>
3.005

> <Pdih>
8.065

> <Idih>
0.002

> <Tether>
0.000

$$$$
VeraChem MOL file


 20 19  0  0  0  0  0  0  0  0999 V2000     
   17.3190   19.6369   23.5357 C   0  0  0  0  0  0  0  0  0  0  0  0
   17.5228   19.0909   24.4554 H   0  0  0  0  0  0  0  0  0  0  0  0
   16.2869   19.6733   23.1915 H   0  0  0  0  0  0  0  0  0  0  0  0
   18.2969   20.2376   22.8526 C   0  0  0  0  0  0  0  0  0  0  0  0
   18.0717   20.7868   21.9392 H   0  0  0  0  0  0  0  0  0  0  0  0
   19.7494   20.2382   23.2788 C   0  0  0  0  0  0  0  0  0  0  0  0
   19.7965   20.4595   24.3536 H   0  0  0  0  0  0  0  0  0  0  0  0
   20.2911   21.0546   22.7828 H   0  0  0  0  0  0  0  0  0  0  0  0
   20.4706   18.8914   23.0233 C   0  0  0  0  0  0  0  0  0  0  0  0
   21.3655   18.8622   23.6596 H   0  0  0  0  0  0  0  0  0  0  0  0
   19.8376   18.0573   23.3557 H   0  0  0  0  0  0  0  0  0  0  0  0
   20.9269   18.6628   21.5602 C   0  0  0  0  0  0  0  0  0  0  0  0
   21.5746   17.7755   21.5361 H   0  0  0  0  0  0  0  0  0  0  0  0
   21.5479   19.5055   21.2266 H   0  0  0  0  0  0  0  0  0  0  0  0
   19.7651   18.4459   20.5570 C   0  0  0  0  0  0  0  0  0  0  0  0
   19.0847   17.6693   20.9261 H   0  0  0  0  0  0  0  0  0  0  0  0
   19.1807   19.3641   20.4404 H   0  0  0  0  0  0  0  0  0  0  0  0
   20.2507   18.0324   19.1725 C   0  0  0  0  0  0  0  0  0  0  0  0
   20.5169   18.9075   18.3723 O   0  5  0  0  0  0  0  0  0  0  0  0
   20.3698   16.8462   18.9367 O   0  0  0  0  0  0  0  0  0  0  0  0
  1  2  1  0  0  0  0
  1  3  1  0  0  0  0
  1  4  2  0  0  0  0
  4  5  1  0  0  0  0
  4  6  1  0  0  0  0
  6  7  1  0  0  0  0
  6  8  1  0  0  0  0
  6  9  1  0  0  0  0
  9 10  1  0  0  0  0
  9 11  1  0  0  0  0
  9 12  1  0  0  0  0
 12 13  1  0  0  0  0
 12 14  1  0  0  0  0
 12 15  1  0  0  0  0
 15 16  1  0  0  0  0
 15 17  1  0  0  0  0
 15 18  1  0  0  0  0
 18 19  1  0  0  0  0
 18 20  2  0  0  0  0
M  END
> <VConfSearch Rank>
160

> <Conf_Id>
91

> <Delta U+W>
1.604

> <U+W>
-50.141

> <U>
10.644

> <W>
-60.786

> <W(PB)>
-62.965

> <W(SA)>
2.179

> <Valence>
11.230

> <Coulomb>
-1.075

> <VdW>
0.489

> <VdW6>
-7.547

> <VdW12>
8.036

> <Bond>
0.159

> <Angle>
3.006

> <Pdih>
8.064

> <Idih>
0.002

> <Tether>
0.000

$$$$
VeraChem MOL file


 20 19  0  0  0  0  0  0  0  0999 V2000     
   21.2513   19.1030   25.2768 C   0  0  0  0  0  0  0  0  0  0  0  0
   20.4162   19.7327   25.5796 H   0  0  0  0  0  0  0  0  0  0  0  0
   22.1449   19.1231   25.8983 H   0  0  0  0  0  0  0  0  0  0  0  0
   21.1871   18.3367   24.1849 C   0  0  0  0  0  0  0  0  0  0  0  0
   22.0347   17.7142   23.8987 H   0  0  0  0  0  0  0  0  0  0  0  0
   19.9815   18.2564   23.2752 C   0  0  0  0  0  0  0  0  0  0  0  0
   19.1036   18.6966   23.7675 H   0  0  0  0  0  0  0  0  0  0  0  0
   19.7386   17.2035   23.0789 H   0  0  0  0  0  0  0  0  0  0  0  0
   20.2413   18.9852   21.9402 C   0  0  0  0  0  0  0  0  0  0  0  0
   20.4879   20.0367   22.1424 H   0  0  0  0  0  0  0  0  0  0  0  0
   21.1166   18.5415   21.4460 H   0  0  0  0  0  0  0  0  0  0  0  0
   19.0204   18.9105   20.9974 C   0  0  0  0  0  0  0  0  0  0  0  0
   18.1446   19.3545   21.4908 H   0  0  0  0  0  0  0  0  0  0  0  0
   18.7726   17.8591   20.7958 H   0  0  0  0  0  0  0  0  0  0  0  0
   19.2819   19.6442   19.6552 C   0  0  0  0  0  0  0  0  0  0  0  0
   19.5236   20.6959   19.8486 H   0  0  0  0  0  0  0  0  0  0  0  0
   20.1510   19.2020   19.1541 H   0  0  0  0  0  0  0  0  0  0  0  0
   18.1203   19.6187   18.6606 C   0  0  0  0  0  0  0  0  0  0  0  0
   18.2883   20.1819   17.5972 O   0  5  0  0  0  0  0  0  0  0  0  0
   17.0868   19.0495   18.9550 O   0  0  0  0  0  0  0  0  0  0  0  0
  1  2  1  0  0  0  0
  1  3  1  0  0  0  0
  1  4  2  0  0  0  0
  4  5  1  0  0  0  0
  4  6  1  0  0  0  0
  6  7  1  0  0  0  0
  6  8  1  0  0  0  0
  6  9  1  0  0  0  0
  9 10  1  0  0  0  0
  9 11  1  0  0  0  0
  9 12  1  0  0  0  0
 12 13  1  0  0  0  0
 12 14  1  0  0  0  0
 12 15  1  0  0  0  0
 15 16  1  0  0  0  0
 15 17  1  0  0  0  0
 15 18  1  0  0  0  0
 18 19  1  0  0  0  0
 18 20  2  0  0  0  0
M  END
> <VConfSearch Rank>
161

> <Conf_Id>
33

> <Delta U+W>
0.000

> <U+W>
-51.745

> <U>
7.593

> <W>
-59.338

> <W(PB)>
-61.574

> <W(SA)>
2.236

> <Valence>
9.570

> <Coulomb>
-3.091

> <VdW>
1.114

> <VdW6>
-6.064

> <VdW12>
7.178

> <Bond>
0.117

> <Angle>
2.692

> <Pdih>
6.761

> <Idih>
0.000

> <Tether>
0.000

$$$$
VeraChem MOL file


 20 19  0  0  0  0  0  0  0  0999 V2000     
   17.3904   16.6288   20.4878 C   0  0  0  0  0  0  0  0  0  0  0  0
   16.5910   17.3626   20.5772 H   0  0  0  0  0  0  0  0  0  0  0  0
   17.1083   15.6098   20.2282 H   0  0  0  0  0  0  0  0  0  0  0  0
   18.6681   16.9608   20.6903 C   0  0  0  0  0  0  0  0  0  0  0  0
   19.4532   16.2108   20.5967 H   0  0  0  0  0  0  0  0  0  0  0  0
   19.1352   18.3531   21.0523 C   0  0  0  0  0  0  0  0  0  0  0  0
   18.3324   19.0813   20.8737 H   0  0  0  0  0  0  0  0  0  0  0  0
   19.9700   18.6341   20.3979 H   0  0  0  0  0  0  0  0  0  0  0  0
   19.5741   18.4238   22.5322 C   0  0  0  0  0  0  0  0  0  0  0  0
   18.7518   18.0578   23.1625 H   0  0  0  0  0  0  0  0  0  0  0  0
   20.4199   17.7430   22.6998 H   0  0  0  0  0  0  0  0  0  0  0  0
   19.9540   19.8502   22.9959 C   0  0  0  0  0  0  0  0  0  0  0  0
   20.1417   19.8303   24.0784 H   0  0  0  0  0  0  0  0  0  0  0  0
   19.1044   20.5296   22.8412 H   0  0  0  0  0  0  0  0  0  0  0  0
   21.2085   20.4191   22.2834 C   0  0  0  0  0  0  0  0  0  0  0  0
   22.0529   19.7285   22.3946 H   0  0  0  0  0  0  0  0  0  0  0  0
   21.0232   20.5371   21.2098 H   0  0  0  0  0  0  0  0  0  0  0  0
   21.6326   21.7767   22.8322 C   0  0  0  0  0  0  0  0  0  0  0  0
   21.1497   22.7738   22.3329 O   0  5  0  0  0  0  0  0  0  0  0  0
   22.4197   21.8007   23.7577 O   0  0  0  0  0  0  0  0  0  0  0  0
  1  2  1  0  0  0  0
  1  3  1  0  0  0  0
  1  4  2  0  0  0  0
  4  5  1  0  0  0  0
  4  6  1  0  0  0  0
  6  7  1  0  0  0  0
  6  8  1  0  0  0  0
  6  9  1  0  0  0  0
  9 10  1  0  0  0  0
  9 11  1  0  0  0  0
  9 12  1  0  0  0  0
 12 13  1  0  0  0  0
 12 14  1  0  0  0  0
 12 15  1  0  0  0  0
 15 16  1  0  0  0  0
 15 17  1  0  0  0  0
 15 18  1  0  0  0  0
 18 19  1  0  0  0  0
 18 20  2  0  0  0  0
M  END
> <VConfSearch Rank>
162

> <Conf_Id>
37

> <Delta U+W>
-0.384

> <U+W>
-52.130

> <U>
7.491

> <W>
-59.621

> <W(PB)>
-61.853

> <W(SA)>
2.232

> <Valence>
9.604

> <Coulomb>
-2.799

> <VdW>
0.686

> <VdW6>
-6.435

> <VdW12>
7.121

> <Bond>
0.124

> <Angle>
2.493

> <Pdih>
6.986

> <Idih>
0.001

> <Tether>
0.000

$$$$
VeraChem MOL file


 20 19  0  0  0  0  0  0  0  0999 V2000     
   17.2517   18.6115   19.7501 C   0  0  0  0  0  0  0  0  0  0  0  0
   16.4181   18.4939   19.0598 H   0  0  0  0  0  0  0  0  0  0  0  0
   18.1149   17.9687   19.5912 H   0  0  0  0  0  0  0  0  0  0  0  0
   17.1974   19.5097   20.7402 C   0  0  0  0  0  0  0  0  0  0  0  0
   16.3048   20.1254   20.8487 H   0  0  0  0  0  0  0  0  0  0  0  0
   18.2747   19.7869   21.7754 C   0  0  0  0  0  0  0  0  0  0  0  0
   17.8472   19.6427   22.7767 H   0  0  0  0  0  0  0  0  0  0  0  0
   18.5509   20.8484   21.7215 H   0  0  0  0  0  0  0  0  0  0  0  0
   19.5505   18.9233   21.6395 C   0  0  0  0  0  0  0  0  0  0  0  0
   19.2836   17.8601   21.7135 H   0  0  0  0  0  0  0  0  0  0  0  0
   19.9949   19.0789   20.6469 H   0  0  0  0  0  0  0  0  0  0  0  0
   20.5923   19.2665   22.7266 C   0  0  0  0  0  0  0  0  0  0  0  0
   20.1537   19.1129   23.7223 H   0  0  0  0  0  0  0  0  0  0  0  0
   20.8636   20.3292   22.6579 H   0  0  0  0  0  0  0  0  0  0  0  0
   21.8709   18.4031   22.5926 C   0  0  0  0  0  0  0  0  0  0  0  0
   21.6192   17.3387   22.6725 H   0  0  0  0  0  0  0  0  0  0  0  0
   22.3291   18.5550   21.6080 H   0  0  0  0  0  0  0  0  0  0  0  0
   22.9156   18.7237   23.6555 C   0  0  0  0  0  0  0  0  0  0  0  0
   22.8717   18.1133   24.7054 O   0  5  0  0  0  0  0  0  0  0  0  0
   23.7335   19.5891   23.4132 O   0  0  0  0  0  0  0  0  0  0  0  0
  1  2  1  0  0  0  0
  1  3  1  0  0  0  0
  1  4  2  0  0  0  0
  4  5  1  0  0  0  0
  4  6  1  0  0  0  0
  6  7  1  0  0  0  0
  6  8  1  0  0  0  0
  6  9  1  0  0  0  0
  9 10  1  0  0  0  0
  9 11  1  0  0  0  0
  9 12  1  0  0  0  0
 12 13  1  0  0  0  0
 12 14  1  0  0  0  0
 12 15  1  0  0  0  0
 15 16  1  0  0  0  0
 15 17  1  0  0  0  0
 15 18  1  0  0  0  0
 18 19  1  0  0  0  0
 18 20  2  0  0  0  0
M  END
> <VConfSearch Rank>
163

> <Conf_Id>
44

> <Delta U+W>
-1.440

> <U+W>
-53.185

> <U>
6.572

> <W>
-59.757

> <W(PB)>
-62.007

> <W(SA)>
2.249

> <Valence>
7.989

> <Coulomb>
-2.697

> <VdW>
1.281

> <VdW6>
-6.467

> <VdW12>
7.748

> <Bond>
0.136

> <Angle>
2.854

> <Pdih>
4.997

> <Idih>
0.001

> <Tether>
0.000

$$$$
VeraChem MOL file


 20 19  0  0  0  0  0  0  0  0999 V2000     
   21.6091   16.7030   23.6924 C   0  0  0  0  0  0  0  0  0  0  0  0
   20.7506   16.0920   23.4179 H   0  0  0  0  0  0  0  0  0  0  0  0
   22.2788   16.3115   24.4562 H   0  0  0  0  0  0  0  0  0  0  0  0
   21.8341   17.8879   23.1188 C   0  0  0  0  0  0  0  0  0  0  0  0
   22.6992   18.4841   23.4084 H   0  0  0  0  0  0  0  0  0  0  0  0
   20.9504   18.4949   22.0518 C   0  0  0  0  0  0  0  0  0  0  0  0
   20.2834   17.7272   21.6392 H   0  0  0  0  0  0  0  0  0  0  0  0
   21.5725   18.8545   21.2214 H   0  0  0  0  0  0  0  0  0  0  0  0
   20.1179   19.6660   22.6207 C   0  0  0  0  0  0  0  0  0  0  0  0
   19.4558   19.2945   23.4150 H   0  0  0  0  0  0  0  0  0  0  0  0
   20.7971   20.3872   23.0956 H   0  0  0  0  0  0  0  0  0  0  0  0
   19.2824   20.4073   21.5499 C   0  0  0  0  0  0  0  0  0  0  0  0
   19.9444   20.7877   20.7597 H   0  0  0  0  0  0  0  0  0  0  0  0
   18.8164   21.2875   22.0142 H   0  0  0  0  0  0  0  0  0  0  0  0
   18.1702   19.5314   20.9166 C   0  0  0  0  0  0  0  0  0  0  0  0
   18.6066   18.6908   20.3655 H   0  0  0  0  0  0  0  0  0  0  0  0
   17.5286   19.1098   21.6996 H   0  0  0  0  0  0  0  0  0  0  0  0
   17.2861   20.3103   19.9494 C   0  0  0  0  0  0  0  0  0  0  0  0
   16.2954   20.8577   20.3917 O   0  5  0  0  0  0  0  0  0  0  0  0
   17.6219   20.3660   18.7829 O   0  0  0  0  0  0  0  0  0  0  0  0
  1  2  1  0  0  0  0
  1  3  1  0  0  0  0
  1  4  2  0  0  0  0
  4  5  1  0  0  0  0
  4  6  1  0  0  0  0
  6  7  1  0  0  0  0
  6  8  1  0  0  0  0
  6  9  1  0  0  0  0
  9 10  1  0  0  0  0
  9 11  1  0  0  0  0
  9 12  1  0  0  0  0
 12 13  1  0  0  0  0
 12 14  1  0  0  0  0
 12 15  1  0  0  0  0
 15 16  1  0  0  0  0
 15 17  1  0  0  0  0
 15 18  1  0  0  0  0
 18 19  1  0  0  0  0
 18 20  2  0  0  0  0
M  END
> <VConfSearch Rank>
164

> <Conf_Id>
38

> <Delta U+W>
-0.381

> <U+W>
-52.126

> <U>
7.601

> <W>
-59.727

> <W(PB)>
-61.964

> <W(SA)>
2.236

> <Valence>
9.602

> <Coulomb>
-2.686

> <VdW>
0.685

> <VdW6>
-6.453

> <VdW12>
7.139

> <Bond>
0.125

> <Angle>
2.485

> <Pdih>
6.991

> <Idih>
0.001

> <Tether>
0.000

$$$$
VeraChem MOL file


 20 19  0  0  0  0  0  0  0  0999 V2000     
   22.7341   21.0299   21.4380 C   0  0  0  0  0  0  0  0  0  0  0  0
   22.4916   21.1991   20.3901 H   0  0  0  0  0  0  0  0  0  0  0  0
   23.4544   21.7027   21.9004 H   0  0  0  0  0  0  0  0  0  0  0  0
   22.1706   20.0386   22.1333 C   0  0  0  0  0  0  0  0  0  0  0  0
   22.4265   19.8869   23.1817 H   0  0  0  0  0  0  0  0  0  0  0  0
   21.1645   19.0659   21.5596 C   0  0  0  0  0  0  0  0  0  0  0  0
   21.4568   18.0395   21.8187 H   0  0  0  0  0  0  0  0  0  0  0  0
   21.1601   19.1261   20.4627 H   0  0  0  0  0  0  0  0  0  0  0  0
   19.7460   19.3504   22.0961 C   0  0  0  0  0  0  0  0  0  0  0  0
   19.7526   19.2872   23.1931 H   0  0  0  0  0  0  0  0  0  0  0  0
   19.4590   20.3794   21.8392 H   0  0  0  0  0  0  0  0  0  0  0  0
   18.7054   18.3627   21.5216 C   0  0  0  0  0  0  0  0  0  0  0  0
   18.9838   17.3330   21.7859 H   0  0  0  0  0  0  0  0  0  0  0  0
   18.7170   18.4218   20.4248 H   0  0  0  0  0  0  0  0  0  0  0  0
   17.2675   18.6514   22.0258 C   0  0  0  0  0  0  0  0  0  0  0  0
   16.9851   19.6855   21.7939 H   0  0  0  0  0  0  0  0  0  0  0  0
   16.5574   18.0028   21.4995 H   0  0  0  0  0  0  0  0  0  0  0  0
   17.0764   18.4179   23.5217 C   0  0  0  0  0  0  0  0  0  0  0  0
   17.0021   19.3872   24.2511 O   0  5  0  0  0  0  0  0  0  0  0  0
   16.9958   17.2712   23.9163 O   0  0  0  0  0  0  0  0  0  0  0  0
  1  2  1  0  0  0  0
  1  3  1  0  0  0  0
  1  4  2  0  0  0  0
  4  5  1  0  0  0  0
  4  6  1  0  0  0  0
  6  7  1  0  0  0  0
  6  8  1  0  0  0  0
  6  9  1  0  0  0  0
  9 10  1  0  0  0  0
  9 11  1  0  0  0  0
  9 12  1  0  0  0  0
 12 13  1  0  0  0  0
 12 14  1  0  0  0  0
 12 15  1  0  0  0  0
 15 16  1  0  0  0  0
 15 17  1  0  0  0  0
 15 18  1  0  0  0  0
 18 19  1  0  0  0  0
 18 20  2  0  0  0  0
M  END
> <VConfSearch Rank>
165

> <Conf_Id>
58

> <Delta U+W>
0.019

> <U+W>
-51.727

> <U>
8.963

> <W>
-60.690

> <W(PB)>
-62.934

> <W(SA)>
2.244

> <Valence>
9.327

> <Coulomb>
-0.780

> <VdW>
0.417

> <VdW6>
-6.635

> <VdW12>
7.052

> <Bond>
0.105

> <Angle>
2.399

> <Pdih>
6.822

> <Idih>
0.000

> <Tether>
0.000

$$$$
VeraChem MOL file


 20 19  0  0  0  0  0  0  0  0999 V2000     
   16.7569   18.0846   20.4825 C   0  0  0  0  0  0  0  0  0  0  0  0
   16.1416   18.8306   20.9831 H   0  0  0  0  0  0  0  0  0  0  0  0
   16.2571   17.1933   20.1071 H   0  0  0  0  0  0  0  0  0  0  0  0
   18.0737   18.2513   20.3350 C   0  0  0  0  0  0  0  0  0  0  0  0
   18.6717   17.4919   19.8316 H   0  0  0  0  0  0  0  0  0  0  0  0
   18.8358   19.4609   20.8287 C   0  0  0  0  0  0  0  0  0  0  0  0
   18.1392   20.2712   21.0835 H   0  0  0  0  0  0  0  0  0  0  0  0
   19.4824   19.8404   20.0262 H   0  0  0  0  0  0  0  0  0  0  0  0
   19.6940   19.1130   22.0630 C   0  0  0  0  0  0  0  0  0  0  0  0
   19.0444   18.7293   22.8618 H   0  0  0  0  0  0  0  0  0  0  0  0
   20.3913   18.3040   21.8049 H   0  0  0  0  0  0  0  0  0  0  0  0
   20.4821   20.3382   22.5788 C   0  0  0  0  0  0  0  0  0  0  0  0
   19.7783   21.1466   22.8193 H   0  0  0  0  0  0  0  0  0  0  0  0
   21.1409   20.7181   21.7854 H   0  0  0  0  0  0  0  0  0  0  0  0
   21.3278   20.0162   23.8381 C   0  0  0  0  0  0  0  0  0  0  0  0
   21.7690   20.9404   24.2295 H   0  0  0  0  0  0  0  0  0  0  0  0
   20.6879   19.6094   24.6305 H   0  0  0  0  0  0  0  0  0  0  0  0
   22.4705   19.0371   23.5840 C   0  0  0  0  0  0  0  0  0  0  0  0
   23.4604   19.4490   23.0116 O   0  5  0  0  0  0  0  0  0  0  0  0
   22.3460   17.8928   23.9739 O   0  0  0  0  0  0  0  0  0  0  0  0
  1  2  1  0  0  0  0
  1  3  1  0  0  0  0
  1  4  2  0  0  0  0
  4  5  1  0  0  0  0
  4  6  1  0  0  0  0
  6  7  1  0  0  0  0
  6  8  1  0  0  0  0
  6  9  1  0  0  0  0
  9 10  1  0  0  0  0
  9 11  1  0  0  0  0
  9 12  1  0  0  0  0
 12 13  1  0  0  0  0
 12 14  1  0  0  0  0
 12 15  1  0  0  0  0
 15 16  1  0  0  0  0
 15 17  1  0  0  0  0
 15 18  1  0  0  0  0
 18 19  1  0  0  0  0
 18 20  2  0  0  0  0
M  END
> <VConfSearch Rank>
166

> <Conf_Id>
54

> <Delta U+W>
-0.048

> <U+W>
-51.793

> <U>
8.964

> <W>
-60.756

> <W(PB)>
-63.007

> <W(SA)>
2.251

> <Valence>
9.327

> <Coulomb>
-0.780

> <VdW>
0.417

> <VdW6>
-6.635

> <VdW12>
7.052

> <Bond>
0.105

> <Angle>
2.399

> <Pdih>
6.822

> <Idih>
0.000

> <Tether>
0.000

$$$$
VeraChem MOL file


 20 19  0  0  0  0  0  0  0  0999 V2000     
   18.2211   16.5534   20.3975 C   0  0  0  0  0  0  0  0  0  0  0  0
   18.2045   16.2242   19.3599 H   0  0  0  0  0  0  0  0  0  0  0  0
   18.2149   15.7839   21.1677 H   0  0  0  0  0  0  0  0  0  0  0  0
   18.2510   17.8518   20.7091 C   0  0  0  0  0  0  0  0  0  0  0  0
   18.2533   18.6057   19.9225 H   0  0  0  0  0  0  0  0  0  0  0  0
   18.2684   18.3828   22.1267 C   0  0  0  0  0  0  0  0  0  0  0  0
   17.9030   17.6094   22.8159 H   0  0  0  0  0  0  0  0  0  0  0  0
   17.5739   19.2285   22.2183 H   0  0  0  0  0  0  0  0  0  0  0  0
   19.6816   18.8177   22.5758 C   0  0  0  0  0  0  0  0  0  0  0  0
   19.6509   19.0593   23.6471 H   0  0  0  0  0  0  0  0  0  0  0  0
   20.3760   17.9734   22.4655 H   0  0  0  0  0  0  0  0  0  0  0  0
   20.2134   20.0398   21.7898 C   0  0  0  0  0  0  0  0  0  0  0  0
   19.5118   20.8798   21.8879 H   0  0  0  0  0  0  0  0  0  0  0  0
   20.2652   19.7940   20.7210 H   0  0  0  0  0  0  0  0  0  0  0  0
   21.6202   20.4873   22.2650 C   0  0  0  0  0  0  0  0  0  0  0  0
   22.3247   19.6489   22.2046 H   0  0  0  0  0  0  0  0  0  0  0  0
   22.0002   21.2700   21.5980 H   0  0  0  0  0  0  0  0  0  0  0  0
   21.6475   21.0457   23.6850 C   0  0  0  0  0  0  0  0  0  0  0  0
   22.1032   20.3480   24.5696 O   0  5  0  0  0  0  0  0  0  0  0  0
   21.2214   22.1694   23.8664 O   0  0  0  0  0  0  0  0  0  0  0  0
  1  2  1  0  0  0  0
  1  3  1  0  0  0  0
  1  4  2  0  0  0  0
  4  5  1  0  0  0  0
  4  6  1  0  0  0  0
  6  7  1  0  0  0  0
  6  8  1  0  0  0  0
  6  9  1  0  0  0  0
  9 10  1  0  0  0  0
  9 11  1  0  0  0  0
  9 12  1  0  0  0  0
 12 13  1  0  0  0  0
 12 14  1  0  0  0  0
 12 15  1  0  0  0  0
 15 16  1  0  0  0  0
 15 17  1  0  0  0  0
 15 18  1  0  0  0  0
 18 19  1  0  0  0  0
 18 20  2  0  0  0  0
M  END
> <VConfSearch Rank>
167

> <Conf_Id>
27

> <Delta U+W>
0.478

> <U+W>
-51.267

> <U>
9.192

> <W>
-60.459

> <W(PB)>
-62.649

> <W(SA)>
2.190

> <Valence>
9.572

> <Coulomb>
-0.884

> <VdW>
0.504

> <VdW6>
-7.168

> <VdW12>
7.672

> <Bond>
0.127

> <Angle>
2.504

> <Pdih>
6.941

> <Idih>
0.001

> <Tether>
0.000

$$$$
VeraChem MOL file


 20 19  0  0  0  0  0  0  0  0999 V2000     
   18.3528   17.9475   18.9757 C   0  0  0  0  0  0  0  0  0  0  0  0
   18.2991   16.8602   18.9594 H   0  0  0  0  0  0  0  0  0  0  0  0
   18.4703   18.4579   18.0213 H   0  0  0  0  0  0  0  0  0  0  0  0
   18.2810   18.6322   20.1202 C   0  0  0  0  0  0  0  0  0  0  0  0
   18.3337   19.7205   20.1136 H   0  0  0  0  0  0  0  0  0  0  0  0
   18.1115   17.9920   21.4815 C   0  0  0  0  0  0  0  0  0  0  0  0
   17.7176   16.9732   21.3651 H   0  0  0  0  0  0  0  0  0  0  0  0
   17.3637   18.5457   22.0649 H   0  0  0  0  0  0  0  0  0  0  0  0
   19.4398   17.9224   22.2682 C   0  0  0  0  0  0  0  0  0  0  0  0
   19.2792   17.3339   23.1819 H   0  0  0  0  0  0  0  0  0  0  0  0
   20.1883   17.3812   21.6731 H   0  0  0  0  0  0  0  0  0  0  0  0
   19.9847   19.3172   22.6524 C   0  0  0  0  0  0  0  0  0  0  0  0
   19.2251   19.8670   23.2253 H   0  0  0  0  0  0  0  0  0  0  0  0
   20.1873   19.9035   21.7458 H   0  0  0  0  0  0  0  0  0  0  0  0
   21.2834   19.2168   23.4898 C   0  0  0  0  0  0  0  0  0  0  0  0
   21.0988   18.6484   24.4092 H   0  0  0  0  0  0  0  0  0  0  0  0
   22.0563   18.6805   22.9263 H   0  0  0  0  0  0  0  0  0  0  0  0
   21.8423   20.5803   23.8806 C   0  0  0  0  0  0  0  0  0  0  0  0
   22.6338   21.1131   23.1281 O   0  5  0  0  0  0  0  0  0  0  0  0
   21.4579   21.0814   24.9188 O   0  0  0  0  0  0  0  0  0  0  0  0
  1  2  1  0  0  0  0
  1  3  1  0  0  0  0
  1  4  2  0  0  0  0
  4  5  1  0  0  0  0
  4  6  1  0  0  0  0
  6  7  1  0  0  0  0
  6  8  1  0  0  0  0
  6  9  1  0  0  0  0
  9 10  1  0  0  0  0
  9 11  1  0  0  0  0
  9 12  1  0  0  0  0
 12 13  1  0  0  0  0
 12 14  1  0  0  0  0
 12 15  1  0  0  0  0
 15 16  1  0  0  0  0
 15 17  1  0  0  0  0
 15 18  1  0  0  0  0
 18 19  1  0  0  0  0
 18 20  2  0  0  0  0
M  END
> <VConfSearch Rank>
168

> <Conf_Id>
41

> <Delta U+W>
-0.634

> <U+W>
-52.379

> <U>
7.828

> <W>
-60.207

> <W(PB)>
-62.449

> <W(SA)>
2.242

> <Valence>
9.300

> <Coulomb>
-2.080

> <VdW>
0.608

> <VdW6>
-6.341

> <VdW12>
6.949

> <Bond>
0.103

> <Angle>
2.334

> <Pdih>
6.862

> <Idih>
0.001

> <Tether>
0.000

$$$$
VeraChem MOL file


 20 19  0  0  0  0  0  0  0  0999 V2000     
   17.7814   16.5750   20.7367 C   0  0  0  0  0  0  0  0  0  0  0  0
   17.6618   15.5949   20.2781 H   0  0  0  0  0  0  0  0  0  0  0  0
   16.8907   17.0483   21.1469 H   0  0  0  0  0  0  0  0  0  0  0  0
   18.9762   17.1691   20.7938 C   0  0  0  0  0  0  0  0  0  0  0  0
   19.8558   16.6782   20.3779 H   0  0  0  0  0  0  0  0  0  0  0  0
   19.2192   18.5275   21.4129 C   0  0  0  0  0  0  0  0  0  0  0  0
   18.2661   19.0511   21.5673 H   0  0  0  0  0  0  0  0  0  0  0  0
   19.8104   19.1384   20.7185 H   0  0  0  0  0  0  0  0  0  0  0  0
   19.9612   18.3976   22.7619 C   0  0  0  0  0  0  0  0  0  0  0  0
   19.4053   17.7032   23.4069 H   0  0  0  0  0  0  0  0  0  0  0  0
   20.9473   17.9420   22.5963 H   0  0  0  0  0  0  0  0  0  0  0  0
   20.1234   19.7432   23.5110 C   0  0  0  0  0  0  0  0  0  0  0  0
   20.5881   19.5503   24.4878 H   0  0  0  0  0  0  0  0  0  0  0  0
   19.1302   20.1626   23.7205 H   0  0  0  0  0  0  0  0  0  0  0  0
   20.9734   20.8007   22.7549 C   0  0  0  0  0  0  0  0  0  0  0  0
   20.4980   21.0731   21.8058 H   0  0  0  0  0  0  0  0  0  0  0  0
   21.0237   21.7193   23.3511 H   0  0  0  0  0  0  0  0  0  0  0  0
   22.4081   20.3624   22.4748 C   0  0  0  0  0  0  0  0  0  0  0  0
   23.1828   20.3083   23.4098 O   0  5  0  0  0  0  0  0  0  0  0  0
   22.7181   20.1043   21.3285 O   0  0  0  0  0  0  0  0  0  0  0  0
  1  2  1  0  0  0  0
  1  3  1  0  0  0  0
  1  4  2  0  0  0  0
  4  5  1  0  0  0  0
  4  6  1  0  0  0  0
  6  7  1  0  0  0  0
  6  8  1  0  0  0  0
  6  9  1  0  0  0  0
  9 10  1  0  0  0  0
  9 11  1  0  0  0  0
  9 12  1  0  0  0  0
 12 13  1  0  0  0  0
 12 14  1  0  0  0  0
 12 15  1  0  0  0  0
 15 16  1  0  0  0  0
 15 17  1  0  0  0  0
 15 18  1  0  0  0  0
 18 19  1  0  0  0  0
 18 20  2  0  0  0  0
M  END
> <VConfSearch Rank>
169

> <Conf_Id>
84

> <Delta U+W>
0.942

> <U+W>
-50.803

> <U>
10.196

> <W>
-60.999

> <W(PB)>
-63.182

> <W(SA)>
2.182

> <Valence>
9.837

> <Coulomb>
0.032

> <VdW>
0.328

> <VdW6>
-7.642

> <VdW12>
7.969

> <Bond>
0.151

> <Angle>
2.748

> <Pdih>
6.937

> <Idih>
0.001

> <Tether>
0.000

$$$$
VeraChem MOL file


 20 19  0  0  0  0  0  0  0  0999 V2000     
   16.3859   18.1346   22.5881 C   0  0  0  0  0  0  0  0  0  0  0  0
   15.6344   17.3921   22.3253 H   0  0  0  0  0  0  0  0  0  0  0  0
   16.5197   18.3597   23.6449 H   0  0  0  0  0  0  0  0  0  0  0  0
   17.1147   18.7416   21.6478 C   0  0  0  0  0  0  0  0  0  0  0  0
   16.9656   18.5012   20.5953 H   0  0  0  0  0  0  0  0  0  0  0  0
   18.1741   19.7819   21.9362 C   0  0  0  0  0  0  0  0  0  0  0  0
   18.0795   20.1448   22.9687 H   0  0  0  0  0  0  0  0  0  0  0  0
   18.0240   20.6502   21.2809 H   0  0  0  0  0  0  0  0  0  0  0  0
   19.5907   19.2092   21.7212 C   0  0  0  0  0  0  0  0  0  0  0  0
   19.7315   18.3373   22.3750 H   0  0  0  0  0  0  0  0  0  0  0  0
   19.6874   18.8497   20.6875 H   0  0  0  0  0  0  0  0  0  0  0  0
   20.6855   20.2614   22.0087 C   0  0  0  0  0  0  0  0  0  0  0  0
   20.6005   20.6130   23.0464 H   0  0  0  0  0  0  0  0  0  0  0  0
   20.5251   21.1365   21.3643 H   0  0  0  0  0  0  0  0  0  0  0  0
   22.1164   19.7145   21.7674 C   0  0  0  0  0  0  0  0  0  0  0  0
   22.2091   19.3345   20.7428 H   0  0  0  0  0  0  0  0  0  0  0  0
   22.8425   20.5295   21.8707 H   0  0  0  0  0  0  0  0  0  0  0  0
   22.5297   18.6099   22.7359 C   0  0  0  0  0  0  0  0  0  0  0  0
   22.5541   17.4655   22.3276 O   0  5  0  0  0  0  0  0  0  0  0  0
   22.8291   18.9261   23.8706 O   0  0  0  0  0  0  0  0  0  0  0  0
  1  2  1  0  0  0  0
  1  3  1  0  0  0  0
  1  4  2  0  0  0  0
  4  5  1  0  0  0  0
  4  6  1  0  0  0  0
  6  7  1  0  0  0  0
  6  8  1  0  0  0  0
  6  9  1  0  0  0  0
  9 10  1  0  0  0  0
  9 11  1  0  0  0  0
  9 12  1  0  0  0  0
 12 13  1  0  0  0  0
 12 14  1  0  0  0  0
 12 15  1  0  0  0  0
 15 16  1  0  0  0  0
 15 17  1  0  0  0  0
 15 18  1  0  0  0  0
 18 19  1  0  0  0  0
 18 20  2  0  0  0  0
M  END
> <VConfSearch Rank>
170

> <Conf_Id>
81

> <Delta U+W>
-0.051

> <U+W>
-51.796

> <U>
9.412

> <W>
-61.209

> <W(PB)>
-63.452

> <W(SA)>
2.243

> <Valence>
9.329

> <Coulomb>
-0.323

> <VdW>
0.406

> <VdW6>
-6.640

> <VdW12>
7.046

> <Bond>
0.105

> <Angle>
2.401

> <Pdih>
6.823

> <Idih>
0.000

> <Tether>
0.000

$$$$
VeraChem MOL file


 20 19  0  0  0  0  0  0  0  0999 V2000     
   22.8594   18.7944   21.7150 C   0  0  0  0  0  0  0  0  0  0  0  0
   23.1626   17.9054   22.2655 H   0  0  0  0  0  0  0  0  0  0  0  0
   23.5717   19.2117   21.0053 H   0  0  0  0  0  0  0  0  0  0  0  0
   21.6600   19.3527   21.8981 C   0  0  0  0  0  0  0  0  0  0  0  0
   21.3770   20.2439   21.3386 H   0  0  0  0  0  0  0  0  0  0  0  0
   20.6218   18.8328   22.8693 C   0  0  0  0  0  0  0  0  0  0  0  0
   20.1881   19.6652   23.4385 H   0  0  0  0  0  0  0  0  0  0  0  0
   21.1025   18.1815   23.6115 H   0  0  0  0  0  0  0  0  0  0  0  0
   19.5020   18.0305   22.1642 C   0  0  0  0  0  0  0  0  0  0  0  0
   19.9493   17.1548   21.6743 H   0  0  0  0  0  0  0  0  0  0  0  0
   18.8144   17.6354   22.9245 H   0  0  0  0  0  0  0  0  0  0  0  0
   18.6940   18.8328   21.1118 C   0  0  0  0  0  0  0  0  0  0  0  0
   17.9492   18.1655   20.6567 H   0  0  0  0  0  0  0  0  0  0  0  0
   19.3609   19.1437   20.2968 H   0  0  0  0  0  0  0  0  0  0  0  0
   17.9638   20.0815   21.6775 C   0  0  0  0  0  0  0  0  0  0  0  0
   18.6858   20.8050   22.0727 H   0  0  0  0  0  0  0  0  0  0  0  0
   17.4296   20.5884   20.8655 H   0  0  0  0  0  0  0  0  0  0  0  0
   16.9421   19.7656   22.7660 C   0  0  0  0  0  0  0  0  0  0  0  0
   17.2037   20.0795   23.9106 O   0  5  0  0  0  0  0  0  0  0  0  0
   15.9024   19.2288   22.4367 O   0  0  0  0  0  0  0  0  0  0  0  0
  1  2  1  0  0  0  0
  1  3  1  0  0  0  0
  1  4  2  0  0  0  0
  4  5  1  0  0  0  0
  4  6  1  0  0  0  0
  6  7  1  0  0  0  0
  6  8  1  0  0  0  0
  6  9  1  0  0  0  0
  9 10  1  0  0  0  0
  9 11  1  0  0  0  0
  9 12  1  0  0  0  0
 12 13  1  0  0  0  0
 12 14  1  0  0  0  0
 12 15  1  0  0  0  0
 15 16  1  0  0  0  0
 15 17  1  0  0  0  0
 15 18  1  0  0  0  0
 18 19  1  0  0  0  0
 18 20  2  0  0  0  0
M  END
> <VConfSearch Rank>
171

> <Conf_Id>
86

> <Delta U+W>
1.248

> <U+W>
-50.498

> <U>
10.404

> <W>
-60.901

> <W(PB)>
-63.061

> <W(SA)>
2.159

> <Valence>
10.021

> <Coulomb>
0.094

> <VdW>
0.289

> <VdW6>
-8.409

> <VdW12>
8.698

> <Bond>
0.179

> <Angle>
2.939

> <Pdih>
6.902

> <Idih>
0.001

> <Tether>
0.000

$$$$
VeraChem MOL file


 20 19  0  0  0  0  0  0  0  0999 V2000     
   22.7606   18.1400   21.5573 C   0  0  0  0  0  0  0  0  0  0  0  0
   23.7530   18.3573   21.9485 H   0  0  0  0  0  0  0  0  0  0  0  0
   22.4133   17.1098   21.6158 H   0  0  0  0  0  0  0  0  0  0  0  0
   22.0003   19.1033   21.0300 C   0  0  0  0  0  0  0  0  0  0  0  0
   22.3659   20.1287   20.9829 H   0  0  0  0  0  0  0  0  0  0  0  0
   20.6128   18.8782   20.4677 C   0  0  0  0  0  0  0  0  0  0  0  0
   20.4052   17.8041   20.3681 H   0  0  0  0  0  0  0  0  0  0  0  0
   20.5643   19.2981   19.4542 H   0  0  0  0  0  0  0  0  0  0  0  0
   19.5152   19.5374   21.3329 C   0  0  0  0  0  0  0  0  0  0  0  0
   19.7242   20.6109   21.4362 H   0  0  0  0  0  0  0  0  0  0  0  0
   18.5545   19.4551   20.8063 H   0  0  0  0  0  0  0  0  0  0  0  0
   19.3900   18.8908   22.7328 C   0  0  0  0  0  0  0  0  0  0  0  0
   20.3477   18.9784   23.2631 H   0  0  0  0  0  0  0  0  0  0  0  0
   19.1847   17.8163   22.6291 H   0  0  0  0  0  0  0  0  0  0  0  0
   18.2801   19.5458   23.5954 C   0  0  0  0  0  0  0  0  0  0  0  0
   18.3166   19.1361   24.6117 H   0  0  0  0  0  0  0  0  0  0  0  0
   18.4549   20.6251   23.6816 H   0  0  0  0  0  0  0  0  0  0  0  0
   16.8674   19.3217   23.0637 C   0  0  0  0  0  0  0  0  0  0  0  0
   16.3579   18.2314   23.2337 O   0  5  0  0  0  0  0  0  0  0  0  0
   16.3093   20.2451   22.5043 O   0  0  0  0  0  0  0  0  0  0  0  0
  1  2  1  0  0  0  0
  1  3  1  0  0  0  0
  1  4  2  0  0  0  0
  4  5  1  0  0  0  0
  4  6  1  0  0  0  0
  6  7  1  0  0  0  0
  6  8  1  0  0  0  0
  6  9  1  0  0  0  0
  9 10  1  0  0  0  0
  9 11  1  0  0  0  0
  9 12  1  0  0  0  0
 12 13  1  0  0  0  0
 12 14  1  0  0  0  0
 12 15  1  0  0  0  0
 15 16  1  0  0  0  0
 15 17  1  0  0  0  0
 15 18  1  0  0  0  0
 18 19  1  0  0  0  0
 18 20  2  0  0  0  0
M  END
> <VConfSearch Rank>
172

> <Conf_Id>
28

> <Delta U+W>
0.446

> <U+W>
-51.299

> <U>
9.295

> <W>
-60.594

> <W(PB)>
-62.806

> <W(SA)>
2.212

> <Valence>
9.495

> <Coulomb>
-0.610

> <VdW>
0.409

> <VdW6>
-7.332

> <VdW12>
7.741

> <Bond>
0.126

> <Angle>
2.497

> <Pdih>
6.872

> <Idih>
0.000

> <Tether>
0.000

$$$$
VeraChem MOL file


 20 19  0  0  0  0  0  0  0  0999 V2000     
   19.9439   19.0925   19.0268 C   0  0  0  0  0  0  0  0  0  0  0  0
   19.5517   18.1438   19.3870 H   0  0  0  0  0  0  0  0  0  0  0  0
   19.9261   19.2545   17.9504 H   0  0  0  0  0  0  0  0  0  0  0  0
   20.4258   20.0297   19.8510 C   0  0  0  0  0  0  0  0  0  0  0  0
   20.8030   20.9616   19.4305 H   0  0  0  0  0  0  0  0  0  0  0  0
   20.5173   19.9483   21.3657 C   0  0  0  0  0  0  0  0  0  0  0  0
   19.9009   20.7495   21.7933 H   0  0  0  0  0  0  0  0  0  0  0  0
   21.5494   20.1709   21.6675 H   0  0  0  0  0  0  0  0  0  0  0  0
   20.0975   18.5870   21.9733 C   0  0  0  0  0  0  0  0  0  0  0  0
   19.0384   18.3952   21.7525 H   0  0  0  0  0  0  0  0  0  0  0  0
   20.6704   17.7861   21.4866 H   0  0  0  0  0  0  0  0  0  0  0  0
   20.3359   18.4927   23.5008 C   0  0  0  0  0  0  0  0  0  0  0  0
   21.4047   18.6357   23.7098 H   0  0  0  0  0  0  0  0  0  0  0  0
   20.0916   17.4745   23.8339 H   0  0  0  0  0  0  0  0  0  0  0  0
   19.5125   19.5033   24.3454 C   0  0  0  0  0  0  0  0  0  0  0  0
   19.7539   19.3703   25.4064 H   0  0  0  0  0  0  0  0  0  0  0  0
   19.7865   20.5337   24.0924 H   0  0  0  0  0  0  0  0  0  0  0  0
   18.0008   19.3500   24.2025 C   0  0  0  0  0  0  0  0  0  0  0  0
   17.4755   18.3708   24.6952 O   0  5  0  0  0  0  0  0  0  0  0  0
   17.3859   20.2225   23.6217 O   0  0  0  0  0  0  0  0  0  0  0  0
  1  2  1  0  0  0  0
  1  3  1  0  0  0  0
  1  4  2  0  0  0  0
  4  5  1  0  0  0  0
  4  6  1  0  0  0  0
  6  7  1  0  0  0  0
  6  8  1  0  0  0  0
  6  9  1  0  0  0  0
  9 10  1  0  0  0  0
  9 11  1  0  0  0  0
  9 12  1  0  0  0  0
 12 13  1  0  0  0  0
 12 14  1  0  0  0  0
 12 15  1  0  0  0  0
 15 16  1  0  0  0  0
 15 17  1  0  0  0  0
 15 18  1  0  0  0  0
 18 19  1  0  0  0  0
 18 20  2  0  0  0  0
M  END
> <VConfSearch Rank>
173

> <Conf_Id>
53

> <Delta U+W>
0.549

> <U+W>
-51.197

> <U>
10.870

> <W>
-62.067

> <W(PB)>
-64.228

> <W(SA)>
2.161

> <Valence>
8.803

> <Coulomb>
1.020

> <VdW>
1.048

> <VdW6>
-8.312

> <VdW12>
9.360

> <Bond>
0.212

> <Angle>
3.379

> <Pdih>
5.211

> <Idih>
0.001

> <Tether>
0.000

$$$$
VeraChem MOL file


 20 19  0  0  0  0  0  0  0  0999 V2000     
   20.6234   16.7835   20.4311 C   0  0  0  0  0  0  0  0  0  0  0  0
   21.5371   17.0295   20.9677 H   0  0  0  0  0  0  0  0  0  0  0  0
   20.7342   16.3652   19.4323 H   0  0  0  0  0  0  0  0  0  0  0  0
   19.4115   16.9747   20.9636 C   0  0  0  0  0  0  0  0  0  0  0  0
   18.5279   16.7084   20.3843 H   0  0  0  0  0  0  0  0  0  0  0  0
   19.1106   17.5523   22.3368 C   0  0  0  0  0  0  0  0  0  0  0  0
   18.9132   16.7250   23.0310 H   0  0  0  0  0  0  0  0  0  0  0  0
   18.1660   18.1093   22.2907 H   0  0  0  0  0  0  0  0  0  0  0  0
   20.2041   18.4730   22.9387 C   0  0  0  0  0  0  0  0  0  0  0  0
   19.8986   18.7608   23.9539 H   0  0  0  0  0  0  0  0  0  0  0  0
   21.1342   17.9029   23.0616 H   0  0  0  0  0  0  0  0  0  0  0  0
   20.4950   19.7581   22.1196 C   0  0  0  0  0  0  0  0  0  0  0  0
   20.8716   19.4851   21.1255 H   0  0  0  0  0  0  0  0  0  0  0  0
   21.3066   20.3120   22.6110 H   0  0  0  0  0  0  0  0  0  0  0  0
   19.2759   20.7061   21.9536 C   0  0  0  0  0  0  0  0  0  0  0  0
   19.5736   21.5789   21.3610 H   0  0  0  0  0  0  0  0  0  0  0  0
   18.4754   20.2102   21.3930 H   0  0  0  0  0  0  0  0  0  0  0  0
   18.7042   21.2243   23.2700 C   0  0  0  0  0  0  0  0  0  0  0  0
   17.6276   20.7975   23.6386 O   0  5  0  0  0  0  0  0  0  0  0  0
   19.3438   22.0559   23.8839 O   0  0  0  0  0  0  0  0  0  0  0  0
  1  2  1  0  0  0  0
  1  3  1  0  0  0  0
  1  4  2  0  0  0  0
  4  5  1  0  0  0  0
  4  6  1  0  0  0  0
  6  7  1  0  0  0  0
  6  8  1  0  0  0  0
  6  9  1  0  0  0  0
  9 10  1  0  0  0  0
  9 11  1  0  0  0  0
  9 12  1  0  0  0  0
 12 13  1  0  0  0  0
 12 14  1  0  0  0  0
 12 15  1  0  0  0  0
 15 16  1  0  0  0  0
 15 17  1  0  0  0  0
 15 18  1  0  0  0  0
 18 19  1  0  0  0  0
 18 20  2  0  0  0  0
M  END
> <VConfSearch Rank>
174

> <Conf_Id>
66

> <Delta U+W>
1.737

> <U+W>
-50.008

> <U>
11.091

> <W>
-61.099

> <W(PB)>
-63.213

> <W(SA)>
2.114

> <Valence>
9.664

> <Coulomb>
0.658

> <VdW>
0.769

> <VdW6>
-9.171

> <VdW12>
9.940

> <Bond>
0.244

> <Angle>
3.658

> <Pdih>
5.762

> <Idih>
0.001

> <Tether>
0.000

$$$$
VeraChem MOL file


 20 19  0  0  0  0  0  0  0  0999 V2000     
   19.9675   21.1855   23.6011 C   0  0  0  0  0  0  0  0  0  0  0  0
   20.8188   20.5557   23.8497 H   0  0  0  0  0  0  0  0  0  0  0  0
   20.1274   22.2621   23.6214 H   0  0  0  0  0  0  0  0  0  0  0  0
   18.7710   20.6765   23.2881 C   0  0  0  0  0  0  0  0  0  0  0  0
   17.9516   21.3540   23.0496 H   0  0  0  0  0  0  0  0  0  0  0  0
   18.4061   19.2027   23.2147 C   0  0  0  0  0  0  0  0  0  0  0  0
   17.6695   19.0587   22.4144 H   0  0  0  0  0  0  0  0  0  0  0  0
   17.8764   18.9269   24.1361 H   0  0  0  0  0  0  0  0  0  0  0  0
   19.5873   18.2216   22.9943 C   0  0  0  0  0  0  0  0  0  0  0  0
   20.3012   18.3186   23.8228 H   0  0  0  0  0  0  0  0  0  0  0  0
   19.2056   17.1931   23.0515 H   0  0  0  0  0  0  0  0  0  0  0  0
   20.3347   18.3994   21.6481 C   0  0  0  0  0  0  0  0  0  0  0  0
   21.1968   17.7184   21.6341 H   0  0  0  0  0  0  0  0  0  0  0  0
   20.7447   19.4151   21.5725 H   0  0  0  0  0  0  0  0  0  0  0  0
   19.4524   18.1090   20.4062 C   0  0  0  0  0  0  0  0  0  0  0  0
   18.9941   17.1165   20.4902 H   0  0  0  0  0  0  0  0  0  0  0  0
   18.6389   18.8396   20.3331 H   0  0  0  0  0  0  0  0  0  0  0  0
   20.2380   18.1569   19.1006 C   0  0  0  0  0  0  0  0  0  0  0  0
   20.2978   19.2137   18.5037 O   0  5  0  0  0  0  0  0  0  0  0  0
   20.7821   17.1385   18.7215 O   0  0  0  0  0  0  0  0  0  0  0  0
  1  2  1  0  0  0  0
  1  3  1  0  0  0  0
  1  4  2  0  0  0  0
  4  5  1  0  0  0  0
  4  6  1  0  0  0  0
  6  7  1  0  0  0  0
  6  8  1  0  0  0  0
  6  9  1  0  0  0  0
  9 10  1  0  0  0  0
  9 11  1  0  0  0  0
  9 12  1  0  0  0  0
 12 13  1  0  0  0  0
 12 14  1  0  0  0  0
 12 15  1  0  0  0  0
 15 16  1  0  0  0  0
 15 17  1  0  0  0  0
 15 18  1  0  0  0  0
 18 19  1  0  0  0  0
 18 20  2  0  0  0  0
M  END
> <VConfSearch Rank>
175

> <Conf_Id>
64

> <Delta U+W>
0.366

> <U+W>
-51.379

> <U>
10.000

> <W>
-61.379

> <W(PB)>
-63.541

> <W(SA)>
2.162

> <Valence>
9.398

> <Coulomb>
-0.504

> <VdW>
1.105

> <VdW6>
-7.975

> <VdW12>
9.080

> <Bond>
0.216

> <Angle>
3.417

> <Pdih>
5.765

> <Idih>
0.001

> <Tether>
0.000

$$$$
VeraChem MOL file


 20 19  0  0  0  0  0  0  0  0999 V2000     
   17.9590   20.6416   23.6417 C   0  0  0  0  0  0  0  0  0  0  0  0
   17.6506   19.6979   24.0886 H   0  0  0  0  0  0  0  0  0  0  0  0
   17.1789   21.3642   23.4084 H   0  0  0  0  0  0  0  0  0  0  0  0
   19.2429   20.9047   23.3845 C   0  0  0  0  0  0  0  0  0  0  0  0
   19.5302   21.8546   22.9344 H   0  0  0  0  0  0  0  0  0  0  0  0
   20.3811   19.9512   23.6797 C   0  0  0  0  0  0  0  0  0  0  0  0
   20.0356   19.1197   24.3089 H   0  0  0  0  0  0  0  0  0  0  0  0
   21.1502   20.4790   24.2592 H   0  0  0  0  0  0  0  0  0  0  0  0
   21.0248   19.3905   22.3916 C   0  0  0  0  0  0  0  0  0  0  0  0
   21.3697   20.2222   21.7621 H   0  0  0  0  0  0  0  0  0  0  0  0
   21.9174   18.8111   22.6644 H   0  0  0  0  0  0  0  0  0  0  0  0
   20.0606   18.4893   21.5867 C   0  0  0  0  0  0  0  0  0  0  0  0
   19.1749   19.0650   21.2846 H   0  0  0  0  0  0  0  0  0  0  0  0
   19.7036   17.6680   22.2233 H   0  0  0  0  0  0  0  0  0  0  0  0
   20.7392   17.9017   20.3248 C   0  0  0  0  0  0  0  0  0  0  0  0
   21.0902   18.7105   19.6727 H   0  0  0  0  0  0  0  0  0  0  0  0
   21.6173   17.3089   20.6079 H   0  0  0  0  0  0  0  0  0  0  0  0
   19.8075   17.0088   19.5133 C   0  0  0  0  0  0  0  0  0  0  0  0
   19.7542   15.8282   19.7962 O   0  5  0  0  0  0  0  0  0  0  0  0
   19.1492   17.5197   18.6288 O   0  0  0  0  0  0  0  0  0  0  0  0
  1  2  1  0  0  0  0
  1  3  1  0  0  0  0
  1  4  2  0  0  0  0
  4  5  1  0  0  0  0
  4  6  1  0  0  0  0
  6  7  1  0  0  0  0
  6  8  1  0  0  0  0
  6  9  1  0  0  0  0
  9 10  1  0  0  0  0
  9 11  1  0  0  0  0
  9 12  1  0  0  0  0
 12 13  1  0  0  0  0
 12 14  1  0  0  0  0
 12 15  1  0  0  0  0
 15 16  1  0  0  0  0
 15 17  1  0  0  0  0
 15 18  1  0  0  0  0
 18 19  1  0  0  0  0
 18 20  2  0  0  0  0
M  END
> <VConfSearch Rank>
176

> <Conf_Id>
42

> <Delta U+W>
-0.601

> <U+W>
-52.347

> <U>
8.428

> <W>
-60.774

> <W(PB)>
-62.982

> <W(SA)>
2.208

> <Valence>
9.231

> <Coulomb>
-1.304

> <VdW>
0.501

> <VdW6>
-6.515

> <VdW12>
7.016

> <Bond>
0.103

> <Angle>
2.328

> <Pdih>
6.799

> <Idih>
0.000

> <Tether>
0.000

$$$$
VeraChem MOL file


 20 19  0  0  0  0  0  0  0  0999 V2000     
   19.1876   22.1707   21.5605 C   0  0  0  0  0  0  0  0  0  0  0  0
   19.4641   22.4695   22.5703 H   0  0  0  0  0  0  0  0  0  0  0  0
   18.3669   22.7062   21.0863 H   0  0  0  0  0  0  0  0  0  0  0  0
   19.8253   21.1832   20.9262 C   0  0  0  0  0  0  0  0  0  0  0  0
   19.5310   20.8976   19.9166 H   0  0  0  0  0  0  0  0  0  0  0  0
   20.9722   20.3934   21.5201 C   0  0  0  0  0  0  0  0  0  0  0  0
   21.3297   20.8665   22.4448 H   0  0  0  0  0  0  0  0  0  0  0  0
   21.8174   20.4058   20.8191 H   0  0  0  0  0  0  0  0  0  0  0  0
   20.5850   18.9253   21.8076 C   0  0  0  0  0  0  0  0  0  0  0  0
   20.2341   18.4522   20.8800 H   0  0  0  0  0  0  0  0  0  0  0  0
   21.4833   18.3751   22.1189 H   0  0  0  0  0  0  0  0  0  0  0  0
   19.5040   18.7976   22.9069 C   0  0  0  0  0  0  0  0  0  0  0  0
   18.5842   19.3085   22.5901 H   0  0  0  0  0  0  0  0  0  0  0  0
   19.8505   19.3074   23.8159 H   0  0  0  0  0  0  0  0  0  0  0  0
   19.1751   17.3216   23.2506 C   0  0  0  0  0  0  0  0  0  0  0  0
   20.0868   16.7888   23.5466 H   0  0  0  0  0  0  0  0  0  0  0  0
   18.4950   17.2885   24.1098 H   0  0  0  0  0  0  0  0  0  0  0  0
   18.5105   16.5535   22.1116 C   0  0  0  0  0  0  0  0  0  0  0  0
   19.1876   15.7735   21.4711 O   0  5  0  0  0  0  0  0  0  0  0  0
   17.3275   16.7427   21.9071 O   0  0  0  0  0  0  0  0  0  0  0  0
  1  2  1  0  0  0  0
  1  3  1  0  0  0  0
  1  4  2  0  0  0  0
  4  5  1  0  0  0  0
  4  6  1  0  0  0  0
  6  7  1  0  0  0  0
  6  8  1  0  0  0  0
  6  9  1  0  0  0  0
  9 10  1  0  0  0  0
  9 11  1  0  0  0  0
  9 12  1  0  0  0  0
 12 13  1  0  0  0  0
 12 14  1  0  0  0  0
 12 15  1  0  0  0  0
 15 16  1  0  0  0  0
 15 17  1  0  0  0  0
 15 18  1  0  0  0  0
 18 19  1  0  0  0  0
 18 20  2  0  0  0  0
M  END
> <VConfSearch Rank>
177

> <Conf_Id>
68

> <Delta U+W>
0.492

> <U+W>
-51.253

> <U>
10.179

> <W>
-61.432

> <W(PB)>
-63.627

> <W(SA)>
2.195

> <Valence>
9.483

> <Coulomb>
0.361

> <VdW>
0.335

> <VdW6>
-7.385

> <VdW12>
7.720

> <Bond>
0.125

> <Angle>
2.487

> <Pdih>
6.870

> <Idih>
0.001

> <Tether>
0.000

$$$$
VeraChem MOL file


 20 19  0  0  0  0  0  0  0  0999 V2000     
   18.6678   21.4385   24.1949 C   0  0  0  0  0  0  0  0  0  0  0  0
   17.6822   21.7038   23.8159 H   0  0  0  0  0  0  0  0  0  0  0  0
   19.2356   22.2164   24.7025 H   0  0  0  0  0  0  0  0  0  0  0  0
   19.1660   20.2088   24.0421 C   0  0  0  0  0  0  0  0  0  0  0  0
   20.1537   19.9639   24.4317 H   0  0  0  0  0  0  0  0  0  0  0  0
   18.4332   19.0769   23.3539 C   0  0  0  0  0  0  0  0  0  0  0  0
   17.3588   19.3016   23.3134 H   0  0  0  0  0  0  0  0  0  0  0  0
   18.5324   18.1548   23.9420 H   0  0  0  0  0  0  0  0  0  0  0  0
   18.9429   18.8354   21.9151 C   0  0  0  0  0  0  0  0  0  0  0  0
   18.2908   18.0980   21.4274 H   0  0  0  0  0  0  0  0  0  0  0  0
   18.8514   19.7651   21.3364 H   0  0  0  0  0  0  0  0  0  0  0  0
   20.4039   18.3281   21.8718 C   0  0  0  0  0  0  0  0  0  0  0  0
   20.4933   17.4270   22.4934 H   0  0  0  0  0  0  0  0  0  0  0  0
   21.0766   19.0805   22.3057 H   0  0  0  0  0  0  0  0  0  0  0  0
   20.8756   17.9952   20.4325 C   0  0  0  0  0  0  0  0  0  0  0  0
   21.8691   17.5333   20.4703 H   0  0  0  0  0  0  0  0  0  0  0  0
   20.2020   17.2621   19.9725 H   0  0  0  0  0  0  0  0  0  0  0  0
   20.9714   19.2110   19.5151 C   0  0  0  0  0  0  0  0  0  0  0  0
   21.9313   19.9463   19.6379 O   0  5  0  0  0  0  0  0  0  0  0  0
   20.0954   19.3801   18.6898 O   0  0  0  0  0  0  0  0  0  0  0  0
  1  2  1  0  0  0  0
  1  3  1  0  0  0  0
  1  4  2  0  0  0  0
  4  5  1  0  0  0  0
  4  6  1  0  0  0  0
  6  7  1  0  0  0  0
  6  8  1  0  0  0  0
  6  9  1  0  0  0  0
  9 10  1  0  0  0  0
  9 11  1  0  0  0  0
  9 12  1  0  0  0  0
 12 13  1  0  0  0  0
 12 14  1  0  0  0  0
 12 15  1  0  0  0  0
 15 16  1  0  0  0  0
 15 17  1  0  0  0  0
 15 18  1  0  0  0  0
 18 19  1  0  0  0  0
 18 20  2  0  0  0  0
M  END
> <VConfSearch Rank>
178

> <Conf_Id>
87

> <Delta U+W>
0.339

> <U+W>
-51.407

> <U>
10.461

> <W>
-61.867

> <W(PB)>
-64.045

> <W(SA)>
2.178

> <Valence>
9.555

> <Coulomb>
0.483

> <VdW>
0.423

> <VdW6>
-7.223

> <VdW12>
7.646

> <Bond>
0.126

> <Angle>
2.492

> <Pdih>
6.936

> <Idih>
0.001

> <Tether>
0.000

$$$$
VeraChem MOL file


 20 19  0  0  0  0  0  0  0  0999 V2000     
   21.0131   20.8053   20.3947 C   0  0  0  0  0  0  0  0  0  0  0  0
   21.6526   20.1769   19.7770 H   0  0  0  0  0  0  0  0  0  0  0  0
   20.6161   21.7136   19.9448 H   0  0  0  0  0  0  0  0  0  0  0  0
   20.7235   20.4751   21.6559 C   0  0  0  0  0  0  0  0  0  0  0  0
   20.0889   21.1216   22.2612 H   0  0  0  0  0  0  0  0  0  0  0  0
   21.2501   19.2361   22.3482 C   0  0  0  0  0  0  0  0  0  0  0  0
   21.1766   19.3490   23.4381 H   0  0  0  0  0  0  0  0  0  0  0  0
   22.3226   19.1451   22.1298 H   0  0  0  0  0  0  0  0  0  0  0  0
   20.5461   17.9307   21.9018 C   0  0  0  0  0  0  0  0  0  0  0  0
   20.4541   17.9088   20.8072 H   0  0  0  0  0  0  0  0  0  0  0  0
   21.1996   17.0881   22.1658 H   0  0  0  0  0  0  0  0  0  0  0  0
   19.1650   17.6772   22.5571 C   0  0  0  0  0  0  0  0  0  0  0  0
   19.2583   17.7136   23.6512 H   0  0  0  0  0  0  0  0  0  0  0  0
   18.8490   16.6542   22.3097 H   0  0  0  0  0  0  0  0  0  0  0  0
   18.0531   18.6554   22.0987 C   0  0  0  0  0  0  0  0  0  0  0  0
   18.2595   19.6684   22.4583 H   0  0  0  0  0  0  0  0  0  0  0  0
   18.0128   18.6983   21.0038 H   0  0  0  0  0  0  0  0  0  0  0  0
   16.6723   18.2599   22.6092 C   0  0  0  0  0  0  0  0  0  0  0  0
   16.3200   18.6778   23.6946 O   0  5  0  0  0  0  0  0  0  0  0  0
   15.9930   17.5271   21.9175 O   0  0  0  0  0  0  0  0  0  0  0  0
  1  2  1  0  0  0  0
  1  3  1  0  0  0  0
  1  4  2  0  0  0  0
  4  5  1  0  0  0  0
  4  6  1  0  0  0  0
  6  7  1  0  0  0  0
  6  8  1  0  0  0  0
  6  9  1  0  0  0  0
  9 10  1  0  0  0  0
  9 11  1  0  0  0  0
  9 12  1  0  0  0  0
 12 13  1  0  0  0  0
 12 14  1  0  0  0  0
 12 15  1  0  0  0  0
 15 16  1  0  0  0  0
 15 17  1  0  0  0  0
 15 18  1  0  0  0  0
 18 19  1  0  0  0  0
 18 20  2  0  0  0  0
M  END
> <VConfSearch Rank>
179

> <Conf_Id>
51

> <Delta U+W>
1.709

> <U+W>
-50.036

> <U>
10.643

> <W>
-60.679

> <W(PB)>
-62.882

> <W(SA)>
2.203

> <Valence>
11.231

> <Coulomb>
-1.077

> <VdW>
0.489

> <VdW6>
-7.546

> <VdW12>
8.035

> <Bond>
0.159

> <Angle>
3.005

> <Pdih>
8.065

> <Idih>
0.002

> <Tether>
0.000

$$$$
VeraChem MOL file


 20 19  0  0  0  0  0  0  0  0999 V2000     
   20.1815   21.4126   23.5052 C   0  0  0  0  0  0  0  0  0  0  0  0
   21.2279   21.2758   23.7730 H   0  0  0  0  0  0  0  0  0  0  0  0
   19.5307   21.8774   24.2437 H   0  0  0  0  0  0  0  0  0  0  0  0
   19.7114   21.0232   22.3173 C   0  0  0  0  0  0  0  0  0  0  0  0
   18.6630   21.1768   22.0643 H   0  0  0  0  0  0  0  0  0  0  0  0
   20.5606   20.3830   21.2401 C   0  0  0  0  0  0  0  0  0  0  0  0
   21.4961   20.9516   21.1508 H   0  0  0  0  0  0  0  0  0  0  0  0
   20.0654   20.4694   20.2637 H   0  0  0  0  0  0  0  0  0  0  0  0
   20.9122   18.9020   21.5269 C   0  0  0  0  0  0  0  0  0  0  0  0
   21.7836   18.6375   20.9126 H   0  0  0  0  0  0  0  0  0  0  0  0
   21.2341   18.7877   22.5710 H   0  0  0  0  0  0  0  0  0  0  0  0
   19.7848   17.8893   21.2036 C   0  0  0  0  0  0  0  0  0  0  0  0
   20.2027   16.8753   21.2723 H   0  0  0  0  0  0  0  0  0  0  0  0
   19.4558   18.0161   20.1630 H   0  0  0  0  0  0  0  0  0  0  0  0
   18.5594   17.9768   22.1491 C   0  0  0  0  0  0  0  0  0  0  0  0
   18.8845   17.9454   23.1959 H   0  0  0  0  0  0  0  0  0  0  0  0
   18.0255   18.9207   22.0008 H   0  0  0  0  0  0  0  0  0  0  0  0
   17.5617   16.8457   21.9279 C   0  0  0  0  0  0  0  0  0  0  0  0
   16.6866   17.0058   21.1001 O   0  5  0  0  0  0  0  0  0  0  0  0
   17.6978   15.8259   22.5746 O   0  0  0  0  0  0  0  0  0  0  0  0
  1  2  1  0  0  0  0
  1  3  1  0  0  0  0
  1  4  2  0  0  0  0
  4  5  1  0  0  0  0
  4  6  1  0  0  0  0
  6  7  1  0  0  0  0
  6  8  1  0  0  0  0
  6  9  1  0  0  0  0
  9 10  1  0  0  0  0
  9 11  1  0  0  0  0
  9 12  1  0  0  0  0
 12 13  1  0  0  0  0
 12 14  1  0  0  0  0
 12 15  1  0  0  0  0
 15 16  1  0  0  0  0
 15 17  1  0  0  0  0
 15 18  1  0  0  0  0
 18 19  1  0  0  0  0
 18 20  2  0  0  0  0
M  END
> <VConfSearch Rank>
180

> <Conf_Id>
91

> <Delta U+W>
1.604

> <U+W>
-50.141

> <U>
10.644

> <W>
-60.786

> <W(PB)>
-62.965

> <W(SA)>
2.179

> <Valence>
11.230

> <Coulomb>
-1.075

> <VdW>
0.489

> <VdW6>
-7.547

> <VdW12>
8.036

> <Bond>
0.159

> <Angle>
3.006

> <Pdih>
8.064

> <Idih>
0.002

> <Tether>
0.000

$$$$
VeraChem MOL file


 20 19  0  0  0  0  0  0  0  0999 V2000     
   21.8561   20.3865   19.1386 C   0  0  0  0  0  0  0  0  0  0  0  0
   22.1051   21.2237   19.7888 H   0  0  0  0  0  0  0  0  0  0  0  0
   21.9881   20.5280   18.0672 H   0  0  0  0  0  0  0  0  0  0  0  0
   21.4038   19.2307   19.6316 C   0  0  0  0  0  0  0  0  0  0  0  0
   21.1597   18.4052   18.9632 H   0  0  0  0  0  0  0  0  0  0  0  0
   21.1964   18.9609   21.1053 C   0  0  0  0  0  0  0  0  0  0  0  0
   21.7028   19.7277   21.7073 H   0  0  0  0  0  0  0  0  0  0  0  0
   21.6535   17.9982   21.3706 H   0  0  0  0  0  0  0  0  0  0  0  0
   19.6952   18.9367   21.4613 C   0  0  0  0  0  0  0  0  0  0  0  0
   19.2420   19.9003   21.1901 H   0  0  0  0  0  0  0  0  0  0  0  0
   19.1900   18.1666   20.8623 H   0  0  0  0  0  0  0  0  0  0  0  0
   19.4651   18.6594   22.9631 C   0  0  0  0  0  0  0  0  0  0  0  0
   19.9697   19.4296   23.5628 H   0  0  0  0  0  0  0  0  0  0  0  0
   19.9192   17.6964   23.2352 H   0  0  0  0  0  0  0  0  0  0  0  0
   17.9552   18.6358   23.3209 C   0  0  0  0  0  0  0  0  0  0  0  0
   17.4969   19.5964   23.0578 H   0  0  0  0  0  0  0  0  0  0  0  0
   17.4463   17.8649   22.7305 H   0  0  0  0  0  0  0  0  0  0  0  0
   17.6376   18.3669   24.7926 C   0  0  0  0  0  0  0  0  0  0  0  0
   16.4654   18.3396   25.1109 O   0  5  0  0  0  0  0  0  0  0  0  0
   18.5450   18.1925   25.5831 O   0  0  0  0  0  0  0  0  0  0  0  0
  1  2  1  0  0  0  0
  1  3  1  0  0  0  0
  1  4  2  0  0  0  0
  4  5  1  0  0  0  0
  4  6  1  0  0  0  0
  6  7  1  0  0  0  0
  6  8  1  0  0  0  0
  6  9  1  0  0  0  0
  9 10  1  0  0  0  0
  9 11  1  0  0  0  0
  9 12  1  0  0  0  0
 12 13  1  0  0  0  0
 12 14  1  0  0  0  0
 12 15  1  0  0  0  0
 15 16  1  0  0  0  0
 15 17  1  0  0  0  0
 15 18  1  0  0  0  0
 18 19  1  0  0  0  0
 18 20  2  0  0  0  0
M  END
> <VConfSearch Rank>
181

> <Conf_Id>
33

> <Delta U+W>
0.000

> <U+W>
-51.745

> <U>
7.593

> <W>
-59.338

> <W(PB)>
-61.574

> <W(SA)>
2.236

> <Valence>
9.570

> <Coulomb>
-3.091

> <VdW>
1.114

> <VdW6>
-6.064

> <VdW12>
7.178

> <Bond>
0.117

> <Angle>
2.692

> <Pdih>
6.761

> <Idih>
0.000

> <Tether>
0.000

$$$$
VeraChem MOL file


 20 19  0  0  0  0  0  0  0  0999 V2000     
   16.9220   19.0609   19.5978 C   0  0  0  0  0  0  0  0  0  0  0  0
   16.2536   19.3038   20.4223 H   0  0  0  0  0  0  0  0  0  0  0  0
   16.4667   18.7994   18.6441 H   0  0  0  0  0  0  0  0  0  0  0  0
   18.2491   19.0792   19.7470 C   0  0  0  0  0  0  0  0  0  0  0  0
   18.9006   18.8319   18.9092 H   0  0  0  0  0  0  0  0  0  0  0  0
   18.9523   19.4327   21.0386 C   0  0  0  0  0  0  0  0  0  0  0  0
   18.2494   19.9090   21.7355 H   0  0  0  0  0  0  0  0  0  0  0  0
   19.7398   20.1679   20.8301 H   0  0  0  0  0  0  0  0  0  0  0  0
   19.5613   18.1762   21.7005 C   0  0  0  0  0  0  0  0  0  0  0  0
   18.7711   17.4224   21.8218 H   0  0  0  0  0  0  0  0  0  0  0  0
   20.3122   17.7333   21.0319 H   0  0  0  0  0  0  0  0  0  0  0  0
   20.1953   18.4535   23.0845 C   0  0  0  0  0  0  0  0  0  0  0  0
   20.4993   17.4964   23.5307 H   0  0  0  0  0  0  0  0  0  0  0  0
   19.4420   18.8842   23.7585 H   0  0  0  0  0  0  0  0  0  0  0  0
   21.4307   19.3890   23.0231 C   0  0  0  0  0  0  0  0  0  0  0  0
   22.1723   18.9911   22.3203 H   0  0  0  0  0  0  0  0  0  0  0  0
   21.1444   20.3845   22.6658 H   0  0  0  0  0  0  0  0  0  0  0  0
   22.1077   19.5601   24.3782 C   0  0  0  0  0  0  0  0  0  0  0  0
   21.7222   20.4559   25.1033 O   0  5  0  0  0  0  0  0  0  0  0  0
   22.9894   18.7808   24.6814 O   0  0  0  0  0  0  0  0  0  0  0  0
  1  2  1  0  0  0  0
  1  3  1  0  0  0  0
  1  4  2  0  0  0  0
  4  5  1  0  0  0  0
  4  6  1  0  0  0  0
  6  7  1  0  0  0  0
  6  8  1  0  0  0  0
  6  9  1  0  0  0  0
  9 10  1  0  0  0  0
  9 11  1  0  0  0  0
  9 12  1  0  0  0  0
 12 13  1  0  0  0  0
 12 14  1  0  0  0  0
 12 15  1  0  0  0  0
 15 16  1  0  0  0  0
 15 17  1  0  0  0  0
 15 18  1  0  0  0  0
 18 19  1  0  0  0  0
 18 20  2  0  0  0  0
M  END
> <VConfSearch Rank>
182

> <Conf_Id>
37

> <Delta U+W>
-0.384

> <U+W>
-52.130

> <U>
7.491

> <W>
-59.621

> <W(PB)>
-61.853

> <W(SA)>
2.232

> <Valence>
9.604

> <Coulomb>
-2.799

> <VdW>
0.686

> <VdW6>
-6.435

> <VdW12>
7.121

> <Bond>
0.124

> <Angle>
2.493

> <Pdih>
6.986

> <Idih>
0.001

> <Tether>
0.000

$$$$
VeraChem MOL file


 20 19  0  0  0  0  0  0  0  0999 V2000     
   22.7134   18.8266   20.2836 C   0  0  0  0  0  0  0  0  0  0  0  0
   23.6611   18.7819   19.7496 H   0  0  0  0  0  0  0  0  0  0  0  0
   22.4859   17.9973   20.9500 H   0  0  0  0  0  0  0  0  0  0  0  0
   21.8820   19.8611   20.1144 C   0  0  0  0  0  0  0  0  0  0  0  0
   22.1654   20.6626   19.4326 H   0  0  0  0  0  0  0  0  0  0  0  0
   20.5338   20.0623   20.7859 C   0  0  0  0  0  0  0  0  0  0  0  0
   19.7658   20.1736   20.0088 H   0  0  0  0  0  0  0  0  0  0  0  0
   20.5482   21.0179   21.3269 H   0  0  0  0  0  0  0  0  0  0  0  0
   20.1123   18.9356   21.7579 C   0  0  0  0  0  0  0  0  0  0  0  0
   20.0756   17.9796   21.2178 H   0  0  0  0  0  0  0  0  0  0  0  0
   20.8666   18.8331   22.5501 H   0  0  0  0  0  0  0  0  0  0  0  0
   18.7343   19.2163   22.3962 C   0  0  0  0  0  0  0  0  0  0  0  0
   17.9750   19.3200   21.6086 H   0  0  0  0  0  0  0  0  0  0  0  0
   18.7644   20.1718   22.9382 H   0  0  0  0  0  0  0  0  0  0  0  0
   18.3099   18.0895   23.3700 C   0  0  0  0  0  0  0  0  0  0  0  0
   18.2619   17.1300   22.8412 H   0  0  0  0  0  0  0  0  0  0  0  0
   19.0513   17.9818   24.1708 H   0  0  0  0  0  0  0  0  0  0  0  0
   16.9516   18.3439   24.0136 C   0  0  0  0  0  0  0  0  0  0  0  0
   15.9607   17.9315   23.4437 O   0  5  0  0  0  0  0  0  0  0  0  0
   16.9188   18.9649   25.0576 O   0  0  0  0  0  0  0  0  0  0  0  0
  1  2  1  0  0  0  0
  1  3  1  0  0  0  0
  1  4  2  0  0  0  0
  4  5  1  0  0  0  0
  4  6  1  0  0  0  0
  6  7  1  0  0  0  0
  6  8  1  0  0  0  0
  6  9  1  0  0  0  0
  9 10  1  0  0  0  0
  9 11  1  0  0  0  0
  9 12  1  0  0  0  0
 12 13  1  0  0  0  0
 12 14  1  0  0  0  0
 12 15  1  0  0  0  0
 15 16  1  0  0  0  0
 15 17  1  0  0  0  0
 15 18  1  0  0  0  0
 18 19  1  0  0  0  0
 18 20  2  0  0  0  0
M  END
> <VConfSearch Rank>
183

> <Conf_Id>
44

> <Delta U+W>
-1.440

> <U+W>
-53.185

> <U>
6.572

> <W>
-59.757

> <W(PB)>
-62.007

> <W(SA)>
2.249

> <Valence>
7.989

> <Coulomb>
-2.697

> <VdW>
1.281

> <VdW6>
-6.467

> <VdW12>
7.748

> <Bond>
0.136

> <Angle>
2.854

> <Pdih>
4.997

> <Idih>
0.001

> <Tether>
0.000

$$$$
VeraChem MOL file


 20 19  0  0  0  0  0  0  0  0999 V2000     
   20.5579   16.0525   23.4542 C   0  0  0  0  0  0  0  0  0  0  0  0
   20.0363   16.5372   24.2779 H   0  0  0  0  0  0  0  0  0  0  0  0
   21.1308   15.1554   23.6827 H   0  0  0  0  0  0  0  0  0  0  0  0
   20.5021   16.5377   22.2111 C   0  0  0  0  0  0  0  0  0  0  0  0
   21.0322   16.0376   21.4009 H   0  0  0  0  0  0  0  0  0  0  0  0
   19.7272   17.7759   21.8182 C   0  0  0  0  0  0  0  0  0  0  0  0
   19.0239   18.0444   22.6168 H   0  0  0  0  0  0  0  0  0  0  0  0
   19.1262   17.5638   20.9240 H   0  0  0  0  0  0  0  0  0  0  0  0
   20.6792   18.9596   21.5342 C   0  0  0  0  0  0  0  0  0  0  0  0
   21.2409   19.2063   22.4457 H   0  0  0  0  0  0  0  0  0  0  0  0
   21.4221   18.6471   20.7876 H   0  0  0  0  0  0  0  0  0  0  0  0
   19.9550   20.2227   21.0102 C   0  0  0  0  0  0  0  0  0  0  0  0
   19.4006   19.9796   20.0932 H   0  0  0  0  0  0  0  0  0  0  0  0
   20.7100   20.9693   20.7273 H   0  0  0  0  0  0  0  0  0  0  0  0
   18.9908   20.8578   22.0455 C   0  0  0  0  0  0  0  0  0  0  0  0
   18.1705   20.1710   22.2823 H   0  0  0  0  0  0  0  0  0  0  0  0
   19.5232   21.0646   22.9816 H   0  0  0  0  0  0  0  0  0  0  0  0
   18.3750   22.1627   21.5537 C   0  0  0  0  0  0  0  0  0  0  0  0
   18.9609   23.1999   21.7938 O   0  5  0  0  0  0  0  0  0  0  0  0
   17.3358   22.1062   20.9262 O   0  0  0  0  0  0  0  0  0  0  0  0
  1  2  1  0  0  0  0
  1  3  1  0  0  0  0
  1  4  2  0  0  0  0
  4  5  1  0  0  0  0
  4  6  1  0  0  0  0
  6  7  1  0  0  0  0
  6  8  1  0  0  0  0
  6  9  1  0  0  0  0
  9 10  1  0  0  0  0
  9 11  1  0  0  0  0
  9 12  1  0  0  0  0
 12 13  1  0  0  0  0
 12 14  1  0  0  0  0
 12 15  1  0  0  0  0
 15 16  1  0  0  0  0
 15 17  1  0  0  0  0
 15 18  1  0  0  0  0
 18 19  1  0  0  0  0
 18 20  2  0  0  0  0
M  END
> <VConfSearch Rank>
184

> <Conf_Id>
38

> <Delta U+W>
-0.381

> <U+W>
-52.126

> <U>
7.601

> <W>
-59.727

> <W(PB)>
-61.964

> <W(SA)>
2.236

> <Valence>
9.602

> <Coulomb>
-2.686

> <VdW>
0.685

> <VdW6>
-6.453

> <VdW12>
7.139

> <Bond>
0.125

> <Angle>
2.485

> <Pdih>
6.991

> <Idih>
0.001

> <Tether>
0.000

$$$$
VeraChem MOL file


 20 19  0  0  0  0  0  0  0  0999 V2000     
   21.7057   21.5624   23.8578 C   0  0  0  0  0  0  0  0  0  0  0  0
   21.6376   22.3172   23.0760 H   0  0  0  0  0  0  0  0  0  0  0  0
   21.9489   21.9028   24.8629 H   0  0  0  0  0  0  0  0  0  0  0  0
   21.4975   20.2688   23.5988 C   0  0  0  0  0  0  0  0  0  0  0  0
   21.5696   19.5293   24.3960 H   0  0  0  0  0  0  0  0  0  0  0  0
   21.1571   19.7223   22.2301 C   0  0  0  0  0  0  0  0  0  0  0  0
   21.8050   18.8645   22.0056 H   0  0  0  0  0  0  0  0  0  0  0  0
   21.3552   20.4788   21.4586 H   0  0  0  0  0  0  0  0  0  0  0  0
   19.6786   19.2868   22.1561 C   0  0  0  0  0  0  0  0  0  0  0  0
   19.4837   18.5286   22.9271 H   0  0  0  0  0  0  0  0  0  0  0  0
   19.0338   20.1463   22.3860 H   0  0  0  0  0  0  0  0  0  0  0  0
   19.3147   18.7228   20.7641 C   0  0  0  0  0  0  0  0  0  0  0  0
   19.9507   17.8563   20.5354 H   0  0  0  0  0  0  0  0  0  0  0  0
   19.5273   19.4817   19.9989 H   0  0  0  0  0  0  0  0  0  0  0  0
   17.8242   18.3074   20.6601 C   0  0  0  0  0  0  0  0  0  0  0  0
   17.1760   19.1552   20.9130 H   0  0  0  0  0  0  0  0  0  0  0  0
   17.5928   18.0283   19.6254 H   0  0  0  0  0  0  0  0  0  0  0  0
   17.4470   17.1242   21.5471 C   0  0  0  0  0  0  0  0  0  0  0  0
   16.8094   17.3427   22.5584 O   0  5  0  0  0  0  0  0  0  0  0  0
   17.7920   16.0130   21.1961 O   0  0  0  0  0  0  0  0  0  0  0  0
  1  2  1  0  0  0  0
  1  3  1  0  0  0  0
  1  4  2  0  0  0  0
  4  5  1  0  0  0  0
  4  6  1  0  0  0  0
  6  7  1  0  0  0  0
  6  8  1  0  0  0  0
  6  9  1  0  0  0  0
  9 10  1  0  0  0  0
  9 11  1  0  0  0  0
  9 12  1  0  0  0  0
 12 13  1  0  0  0  0
 12 14  1  0  0  0  0
 12 15  1  0  0  0  0
 15 16  1  0  0  0  0
 15 17  1  0  0  0  0
 15 18  1  0  0  0  0
 18 19  1  0  0  0  0
 18 20  2  0  0  0  0
M  END
> <VConfSearch Rank>
185

> <Conf_Id>
58

> <Delta U+W>
0.019

> <U+W>
-51.727

> <U>
8.963

> <W>
-60.690

> <W(PB)>
-62.934

> <W(SA)>
2.244

> <Valence>
9.327

> <Coulomb>
-0.780

> <VdW>
0.417

> <VdW6>
-6.635

> <VdW12>
7.052

> <Bond>
0.105

> <Angle>
2.399

> <Pdih>
6.822

> <Idih>
0.000

> <Tether>
0.000

$$$$
VeraChem MOL file


 20 19  0  0  0  0  0  0  0  0999 V2000     
   20.9470   17.0896   24.6235 C   0  0  0  0  0  0  0  0  0  0  0  0
   21.9766   17.1528   24.2750 H   0  0  0  0  0  0  0  0  0  0  0  0
   20.6785   16.2335   25.2401 H   0  0  0  0  0  0  0  0  0  0  0  0
   20.0449   18.0222   24.3072 C   0  0  0  0  0  0  0  0  0  0  0  0
   19.0190   17.9397   24.6656 H   0  0  0  0  0  0  0  0  0  0  0  0
   20.3438   19.2372   23.4574 C   0  0  0  0  0  0  0  0  0  0  0  0
   21.4292   19.3747   23.3589 H   0  0  0  0  0  0  0  0  0  0  0  0
   19.9548   20.1368   23.9530 H   0  0  0  0  0  0  0  0  0  0  0  0
   19.7126   19.1056   22.0555 C   0  0  0  0  0  0  0  0  0  0  0  0
   20.1004   18.2022   21.5649 H   0  0  0  0  0  0  0  0  0  0  0  0
   18.6268   18.9705   22.1568 H   0  0  0  0  0  0  0  0  0  0  0  0
   20.0061   20.3410   21.1747 C   0  0  0  0  0  0  0  0  0  0  0  0
   21.0930   20.4770   21.0923 H   0  0  0  0  0  0  0  0  0  0  0  0
   19.6100   21.2452   21.6576 H   0  0  0  0  0  0  0  0  0  0  0  0
   19.4054   20.2143   19.7506 C   0  0  0  0  0  0  0  0  0  0  0  0
   19.7415   21.0568   19.1348 H   0  0  0  0  0  0  0  0  0  0  0  0
   19.7701   19.3008   19.2654 H   0  0  0  0  0  0  0  0  0  0  0  0
   17.8797   20.2067   19.7197 C   0  0  0  0  0  0  0  0  0  0  0  0
   17.2987   21.2617   19.8823 O   0  5  0  0  0  0  0  0  0  0  0  0
   17.3129   19.1497   19.5231 O   0  0  0  0  0  0  0  0  0  0  0  0
  1  2  1  0  0  0  0
  1  3  1  0  0  0  0
  1  4  2  0  0  0  0
  4  5  1  0  0  0  0
  4  6  1  0  0  0  0
  6  7  1  0  0  0  0
  6  8  1  0  0  0  0
  6  9  1  0  0  0  0
  9 10  1  0  0  0  0
  9 11  1  0  0  0  0
  9 12  1  0  0  0  0
 12 13  1  0  0  0  0
 12 14  1  0  0  0  0
 12 15  1  0  0  0  0
 15 16  1  0  0  0  0
 15 17  1  0  0  0  0
 15 18  1  0  0  0  0
 18 19  1  0  0  0  0
 18 20  2  0  0  0  0
M  END
> <VConfSearch Rank>
186

> <Conf_Id>
54

> <Delta U+W>
-0.048

> <U+W>
-51.793

> <U>
8.964

> <W>
-60.756

> <W(PB)>
-63.007

> <W(SA)>
2.251

> <Valence>
9.327

> <Coulomb>
-0.780

> <VdW>
0.417

> <VdW6>
-6.635

> <VdW12>
7.052

> <Bond>
0.105

> <Angle>
2.399

> <Pdih>
6.822

> <Idih>
0.000

> <Tether>
0.000

$$$$
VeraChem MOL file


 20 19  0  0  0  0  0  0  0  0999 V2000     
   19.3110   15.8591   22.8738 C   0  0  0  0  0  0  0  0  0  0  0  0
   19.5331   15.2898   23.7748 H   0  0  0  0  0  0  0  0  0  0  0  0
   18.3869   15.6246   22.3479 H   0  0  0  0  0  0  0  0  0  0  0  0
   20.1408   16.8094   22.4357 C   0  0  0  0  0  0  0  0  0  0  0  0
   21.0623   17.0257   22.9754 H   0  0  0  0  0  0  0  0  0  0  0  0
   19.9013   17.6350   21.1896 C   0  0  0  0  0  0  0  0  0  0  0  0
   19.1814   17.1211   20.5381 H   0  0  0  0  0  0  0  0  0  0  0  0
   20.8316   17.7201   20.6122 H   0  0  0  0  0  0  0  0  0  0  0  0
   19.3572   19.0449   21.5124 C   0  0  0  0  0  0  0  0  0  0  0  0
   19.0761   19.5369   20.5712 H   0  0  0  0  0  0  0  0  0  0  0  0
   18.4365   18.9544   22.1050 H   0  0  0  0  0  0  0  0  0  0  0  0
   20.3809   19.9270   22.2661 C   0  0  0  0  0  0  0  0  0  0  0  0
   21.3073   20.0057   21.6803 H   0  0  0  0  0  0  0  0  0  0  0  0
   20.6478   19.4478   23.2172 H   0  0  0  0  0  0  0  0  0  0  0  0
   19.8378   21.3492   22.5619 C   0  0  0  0  0  0  0  0  0  0  0  0
   18.8945   21.2863   23.1177 H   0  0  0  0  0  0  0  0  0  0  0  0
   20.5478   21.8867   23.2015 H   0  0  0  0  0  0  0  0  0  0  0  0
   19.6133   22.2000   21.3150 C   0  0  0  0  0  0  0  0  0  0  0  0
   18.4726   22.3708   20.9321 O   0  5  0  0  0  0  0  0  0  0  0  0
   20.5861   22.6785   20.7657 O   0  0  0  0  0  0  0  0  0  0  0  0
  1  2  1  0  0  0  0
  1  3  1  0  0  0  0
  1  4  2  0  0  0  0
  4  5  1  0  0  0  0
  4  6  1  0  0  0  0
  6  7  1  0  0  0  0
  6  8  1  0  0  0  0
  6  9  1  0  0  0  0
  9 10  1  0  0  0  0
  9 11  1  0  0  0  0
  9 12  1  0  0  0  0
 12 13  1  0  0  0  0
 12 14  1  0  0  0  0
 12 15  1  0  0  0  0
 15 16  1  0  0  0  0
 15 17  1  0  0  0  0
 15 18  1  0  0  0  0
 18 19  1  0  0  0  0
 18 20  2  0  0  0  0
M  END
> <VConfSearch Rank>
187

> <Conf_Id>
27

> <Delta U+W>
0.478

> <U+W>
-51.267

> <U>
9.192

> <W>
-60.459

> <W(PB)>
-62.649

> <W(SA)>
2.190

> <Valence>
9.572

> <Coulomb>
-0.884

> <VdW>
0.504

> <VdW6>
-7.168

> <VdW12>
7.672

> <Bond>
0.127

> <Angle>
2.504

> <Pdih>
6.941

> <Idih>
0.001

> <Tether>
0.000

$$$$
VeraChem MOL file


 20 19  0  0  0  0  0  0  0  0999 V2000     
   16.9829   16.8307   22.1371 C   0  0  0  0  0  0  0  0  0  0  0  0
   16.9529   16.4442   23.1546 H   0  0  0  0  0  0  0  0  0  0  0  0
   16.5530   16.2103   21.3525 H   0  0  0  0  0  0  0  0  0  0  0  0
   17.5277   18.0176   21.8578 C   0  0  0  0  0  0  0  0  0  0  0  0
   17.5444   18.3869   20.8328 H   0  0  0  0  0  0  0  0  0  0  0  0
   18.1373   18.9357   22.8957 C   0  0  0  0  0  0  0  0  0  0  0  0
   17.7658   18.6650   23.8933 H   0  0  0  0  0  0  0  0  0  0  0  0
   17.8130   19.9696   22.7172 H   0  0  0  0  0  0  0  0  0  0  0  0
   19.6811   18.8677   22.9070 C   0  0  0  0  0  0  0  0  0  0  0  0
   20.0544   19.4487   23.7613 H   0  0  0  0  0  0  0  0  0  0  0  0
   19.9993   17.8287   23.0701 H   0  0  0  0  0  0  0  0  0  0  0  0
   20.3163   19.4122   21.6069 C   0  0  0  0  0  0  0  0  0  0  0  0
   19.9766   20.4423   21.4316 H   0  0  0  0  0  0  0  0  0  0  0  0
   19.9822   18.8150   20.7476 H   0  0  0  0  0  0  0  0  0  0  0  0
   21.8634   19.3873   21.6683 C   0  0  0  0  0  0  0  0  0  0  0  0
   22.2192   19.9922   22.5110 H   0  0  0  0  0  0  0  0  0  0  0  0
   22.2192   18.3628   21.8312 H   0  0  0  0  0  0  0  0  0  0  0  0
   22.5147   19.9185   20.3964 C   0  0  0  0  0  0  0  0  0  0  0  0
   22.7600   19.1299   19.5050 O   0  5  0  0  0  0  0  0  0  0  0  0
   22.7434   21.1097   20.3237 O   0  0  0  0  0  0  0  0  0  0  0  0
  1  2  1  0  0  0  0
  1  3  1  0  0  0  0
  1  4  2  0  0  0  0
  4  5  1  0  0  0  0
  4  6  1  0  0  0  0
  6  7  1  0  0  0  0
  6  8  1  0  0  0  0
  6  9  1  0  0  0  0
  9 10  1  0  0  0  0
  9 11  1  0  0  0  0
  9 12  1  0  0  0  0
 12 13  1  0  0  0  0
 12 14  1  0  0  0  0
 12 15  1  0  0  0  0
 15 16  1  0  0  0  0
 15 17  1  0  0  0  0
 15 18  1  0  0  0  0
 18 19  1  0  0  0  0
 18 20  2  0  0  0  0
M  END
> <VConfSearch Rank>
188

> <Conf_Id>
41

> <Delta U+W>
-0.634

> <U+W>
-52.379

> <U>
7.828

> <W>
-60.207

> <W(PB)>
-62.449

> <W(SA)>
2.242

> <Valence>
9.300

> <Coulomb>
-2.080

> <VdW>
0.608

> <VdW6>
-6.341

> <VdW12>
6.949

> <Bond>
0.103

> <Angle>
2.334

> <Pdih>
6.862

> <Idih>
0.001

> <Tether>
0.000

$$$$
VeraChem MOL file


 20 19  0  0  0  0  0  0  0  0999 V2000     
   19.3201   16.0804   20.1850 C   0  0  0  0  0  0  0  0  0  0  0  0
   18.6353   15.5899   19.4953 H   0  0  0  0  0  0  0  0  0  0  0  0
   20.3478   15.7218   20.2107 H   0  0  0  0  0  0  0  0  0  0  0  0
   18.9117   17.0841   20.9658 C   0  0  0  0  0  0  0  0  0  0  0  0
   17.8787   17.4288   20.9246 H   0  0  0  0  0  0  0  0  0  0  0  0
   19.8032   17.8119   21.9472 C   0  0  0  0  0  0  0  0  0  0  0  0
   20.7304   17.2462   22.1105 H   0  0  0  0  0  0  0  0  0  0  0  0
   19.2931   17.8757   22.9171 H   0  0  0  0  0  0  0  0  0  0  0  0
   20.1463   19.2300   21.4389 C   0  0  0  0  0  0  0  0  0  0  0  0
   20.5638   19.1520   20.4257 H   0  0  0  0  0  0  0  0  0  0  0  0
   19.2242   19.8206   21.3478 H   0  0  0  0  0  0  0  0  0  0  0  0
   21.1633   19.9792   22.3347 C   0  0  0  0  0  0  0  0  0  0  0  0
   21.4090   20.9407   21.8629 H   0  0  0  0  0  0  0  0  0  0  0  0
   22.1005   19.4077   22.3739 H   0  0  0  0  0  0  0  0  0  0  0  0
   20.6691   20.2465   23.7827 C   0  0  0  0  0  0  0  0  0  0  0  0
   20.4854   19.3032   24.3096 H   0  0  0  0  0  0  0  0  0  0  0  0
   21.4540   20.7669   24.3437 H   0  0  0  0  0  0  0  0  0  0  0  0
   19.4095   21.1043   23.8627 C   0  0  0  0  0  0  0  0  0  0  0  0
   19.5058   22.2880   23.6041 O   0  5  0  0  0  0  0  0  0  0  0  0
   18.3700   20.5714   24.1983 O   0  0  0  0  0  0  0  0  0  0  0  0
  1  2  1  0  0  0  0
  1  3  1  0  0  0  0
  1  4  2  0  0  0  0
  4  5  1  0  0  0  0
  4  6  1  0  0  0  0
  6  7  1  0  0  0  0
  6  8  1  0  0  0  0
  6  9  1  0  0  0  0
  9 10  1  0  0  0  0
  9 11  1  0  0  0  0
  9 12  1  0  0  0  0
 12 13  1  0  0  0  0
 12 14  1  0  0  0  0
 12 15  1  0  0  0  0
 15 16  1  0  0  0  0
 15 17  1  0  0  0  0
 15 18  1  0  0  0  0
 18 19  1  0  0  0  0
 18 20  2  0  0  0  0
M  END
> <VConfSearch Rank>
189

> <Conf_Id>
84

> <Delta U+W>
0.942

> <U+W>
-50.803

> <U>
10.196

> <W>
-60.999

> <W(PB)>
-63.182

> <W(SA)>
2.182

> <Valence>
9.837

> <Coulomb>
0.032

> <VdW>
0.328

> <VdW6>
-7.642

> <VdW12>
7.969

> <Bond>
0.151

> <Angle>
2.748

> <Pdih>
6.937

> <Idih>
0.001

> <Tether>
0.000

$$$$
VeraChem MOL file


 20 19  0  0  0  0  0  0  0  0999 V2000     
   20.7113   19.4445   18.7782 C   0  0  0  0  0  0  0  0  0  0  0  0
   20.9385   18.8918   17.8683 H   0  0  0  0  0  0  0  0  0  0  0  0
   20.1027   20.3421   18.6805 H   0  0  0  0  0  0  0  0  0  0  0  0
   21.1614   19.0328   19.9664 C   0  0  0  0  0  0  0  0  0  0  0  0
   21.7685   18.1310   20.0426 H   0  0  0  0  0  0  0  0  0  0  0  0
   20.8878   19.7479   21.2708 C   0  0  0  0  0  0  0  0  0  0  0  0
   20.5025   20.7583   21.0770 H   0  0  0  0  0  0  0  0  0  0  0  0
   21.8268   19.8689   21.8272 H   0  0  0  0  0  0  0  0  0  0  0  0
   19.8724   18.9677   22.1317 C   0  0  0  0  0  0  0  0  0  0  0  0
   18.9379   18.8449   21.5666 H   0  0  0  0  0  0  0  0  0  0  0  0
   20.2588   17.9584   22.3293 H   0  0  0  0  0  0  0  0  0  0  0  0
   19.5843   19.6839   23.4706 C   0  0  0  0  0  0  0  0  0  0  0  0
   19.1842   20.6888   23.2766 H   0  0  0  0  0  0  0  0  0  0  0  0
   20.5262   19.8191   24.0192 H   0  0  0  0  0  0  0  0  0  0  0  0
   18.5896   18.8990   24.3648 C   0  0  0  0  0  0  0  0  0  0  0  0
   18.9623   17.8835   24.5453 H   0  0  0  0  0  0  0  0  0  0  0  0
   18.5124   19.3876   25.3432 H   0  0  0  0  0  0  0  0  0  0  0  0
   17.1793   18.8052   23.7892 C   0  0  0  0  0  0  0  0  0  0  0  0
   16.8216   17.7466   23.3114 O   0  5  0  0  0  0  0  0  0  0  0  0
   16.4711   19.7912   23.8464 O   0  0  0  0  0  0  0  0  0  0  0  0
  1  2  1  0  0  0  0
  1  3  1  0  0  0  0
  1  4  2  0  0  0  0
  4  5  1  0  0  0  0
  4  6  1  0  0  0  0
  6  7  1  0  0  0  0
  6  8  1  0  0  0  0
  6  9  1  0  0  0  0
  9 10  1  0  0  0  0
  9 11  1  0  0  0  0
  9 12  1  0  0  0  0
 12 13  1  0  0  0  0
 12 14  1  0  0  0  0
 12 15  1  0  0  0  0
 15 16  1  0  0  0  0
 15 17  1  0  0  0  0
 15 18  1  0  0  0  0
 18 19  1  0  0  0  0
 18 20  2  0  0  0  0
M  END
> <VConfSearch Rank>
190

> <Conf_Id>
81

> <Delta U+W>
-0.051

> <U+W>
-51.796

> <U>
9.412

> <W>
-61.209

> <W(PB)>
-63.452

> <W(SA)>
2.243

> <Valence>
9.329

> <Coulomb>
-0.323

> <VdW>
0.406

> <VdW6>
-6.640

> <VdW12>
7.046

> <Bond>
0.105

> <Angle>
2.401

> <Pdih>
6.823

> <Idih>
0.000

> <Tether>
0.000

$$$$
VeraChem MOL file


 20 19  0  0  0  0  0  0  0  0999 V2000     
   17.3310   17.8209   20.1524 C   0  0  0  0  0  0  0  0  0  0  0  0
   17.7709   16.9845   19.6117 H   0  0  0  0  0  0  0  0  0  0  0  0
   16.2447   17.8902   20.1706 H   0  0  0  0  0  0  0  0  0  0  0  0
   18.0908   18.7271   20.7729 C   0  0  0  0  0  0  0  0  0  0  0  0
   17.6305   19.5581   21.3065 H   0  0  0  0  0  0  0  0  0  0  0  0
   19.6042   18.6990   20.7863 C   0  0  0  0  0  0  0  0  0  0  0  0
   20.0014   19.7030   20.5887 H   0  0  0  0  0  0  0  0  0  0  0  0
   19.9700   18.0660   19.9667 H   0  0  0  0  0  0  0  0  0  0  0  0
   20.1736   18.1547   22.1184 C   0  0  0  0  0  0  0  0  0  0  0  0
   19.8328   17.1189   22.2516 H   0  0  0  0  0  0  0  0  0  0  0  0
   21.2687   18.1074   22.0444 H   0  0  0  0  0  0  0  0  0  0  0  0
   19.7811   18.9749   23.3743 C   0  0  0  0  0  0  0  0  0  0  0  0
   20.2124   18.4891   24.2605 H   0  0  0  0  0  0  0  0  0  0  0  0
   18.6920   18.9399   23.5091 H   0  0  0  0  0  0  0  0  0  0  0  0
   20.2439   20.4571   23.3445 C   0  0  0  0  0  0  0  0  0  0  0  0
   19.7710   20.9927   22.5135 H   0  0  0  0  0  0  0  0  0  0  0  0
   19.9163   20.9582   24.2628 H   0  0  0  0  0  0  0  0  0  0  0  0
   21.7560   20.6356   23.2440 C   0  0  0  0  0  0  0  0  0  0  0  0
   22.2201   21.0420   22.1968 O   0  5  0  0  0  0  0  0  0  0  0  0
   22.4289   20.3796   24.2233 O   0  0  0  0  0  0  0  0  0  0  0  0
  1  2  1  0  0  0  0
  1  3  1  0  0  0  0
  1  4  2  0  0  0  0
  4  5  1  0  0  0  0
  4  6  1  0  0  0  0
  6  7  1  0  0  0  0
  6  8  1  0  0  0  0
  6  9  1  0  0  0  0
  9 10  1  0  0  0  0
  9 11  1  0  0  0  0
  9 12  1  0  0  0  0
 12 13  1  0  0  0  0
 12 14  1  0  0  0  0
 12 15  1  0  0  0  0
 15 16  1  0  0  0  0
 15 17  1  0  0  0  0
 15 18  1  0  0  0  0
 18 19  1  0  0  0  0
 18 20  2  0  0  0  0
M  END
> <VConfSearch Rank>
191

> <Conf_Id>
86

> <Delta U+W>
1.248

> <U+W>
-50.498

> <U>
10.404

> <W>
-60.901

> <W(PB)>
-63.061

> <W(SA)>
2.159

> <Valence>
10.021

> <Coulomb>
0.094

> <VdW>
0.289

> <VdW6>
-8.409

> <VdW12>
8.698

> <Bond>
0.179

> <Angle>
2.939

> <Pdih>
6.902

> <Idih>
0.001

> <Tether>
0.000

$$$$
VeraChem MOL file


 20 19  0  0  0  0  0  0  0  0999 V2000     
   18.4011   20.4773   19.6112 C   0  0  0  0  0  0  0  0  0  0  0  0
   18.2174   21.4893   19.2546 H   0  0  0  0  0  0  0  0  0  0  0  0
   18.9315   19.7995   18.9444 H   0  0  0  0  0  0  0  0  0  0  0  0
   17.9933   20.0873   20.8218 C   0  0  0  0  0  0  0  0  0  0  0  0
   17.4659   20.7822   21.4748 H   0  0  0  0  0  0  0  0  0  0  0  0
   18.2124   18.6995   21.3857 C   0  0  0  0  0  0  0  0  0  0  0  0
   18.5620   18.0140   20.6018 H   0  0  0  0  0  0  0  0  0  0  0  0
   17.2525   18.3009   21.7400 H   0  0  0  0  0  0  0  0  0  0  0  0
   19.2171   18.6953   22.5599 C   0  0  0  0  0  0  0  0  0  0  0  0
   18.8701   19.3836   23.3427 H   0  0  0  0  0  0  0  0  0  0  0  0
   19.2306   17.6926   23.0086 H   0  0  0  0  0  0  0  0  0  0  0  0
   20.6498   19.0803   22.1209 C   0  0  0  0  0  0  0  0  0  0  0  0
   20.6390   20.0854   21.6784 H   0  0  0  0  0  0  0  0  0  0  0  0
   20.9950   18.3940   21.3353 H   0  0  0  0  0  0  0  0  0  0  0  0
   21.6590   19.0642   23.2983 C   0  0  0  0  0  0  0  0  0  0  0  0
   22.6234   19.4605   22.9593 H   0  0  0  0  0  0  0  0  0  0  0  0
   21.3111   19.7215   24.1043 H   0  0  0  0  0  0  0  0  0  0  0  0
   21.9146   17.6757   23.8776 C   0  0  0  0  0  0  0  0  0  0  0  0
   22.6296   16.9173   23.2525 O   0  5  0  0  0  0  0  0  0  0  0  0
   21.4024   17.3928   24.9428 O   0  0  0  0  0  0  0  0  0  0  0  0
  1  2  1  0  0  0  0
  1  3  1  0  0  0  0
  1  4  2  0  0  0  0
  4  5  1  0  0  0  0
  4  6  1  0  0  0  0
  6  7  1  0  0  0  0
  6  8  1  0  0  0  0
  6  9  1  0  0  0  0
  9 10  1  0  0  0  0
  9 11  1  0  0  0  0
  9 12  1  0  0  0  0
 12 13  1  0  0  0  0
 12 14  1  0  0  0  0
 12 15  1  0  0  0  0
 15 16  1  0  0  0  0
 15 17  1  0  0  0  0
 15 18  1  0  0  0  0
 18 19  1  0  0  0  0
 18 20  2  0  0  0  0
M  END
> <VConfSearch Rank>
192

> <Conf_Id>
28

> <Delta U+W>
0.446

> <U+W>
-51.299

> <U>
9.295

> <W>
-60.594

> <W(PB)>
-62.806

> <W(SA)>
2.212

> <Valence>
9.495

> <Coulomb>
-0.610

> <VdW>
0.409

> <VdW6>
-7.332

> <VdW12>
7.741

> <Bond>
0.126

> <Angle>
2.497

> <Pdih>
6.872

> <Idih>
0.000

> <Tether>
0.000

$$$$
VeraChem MOL file


 20 19  0  0  0  0  0  0  0  0999 V2000     
   20.9808   21.0221   24.4625 C   0  0  0  0  0  0  0  0  0  0  0  0
   21.3409   20.0067   24.6128 H   0  0  0  0  0  0  0  0  0  0  0  0
   21.4069   21.7941   25.1010 H   0  0  0  0  0  0  0  0  0  0  0  0
   20.0616   21.3290   23.5400 C   0  0  0  0  0  0  0  0  0  0  0  0
   19.7421   22.3655   23.4349 H   0  0  0  0  0  0  0  0  0  0  0  0
   19.3784   20.3669   22.5823 C   0  0  0  0  0  0  0  0  0  0  0  0
   19.6303   20.6630   21.5559 H   0  0  0  0  0  0  0  0  0  0  0  0
   18.2915   20.4943   22.6727 H   0  0  0  0  0  0  0  0  0  0  0  0
   19.7299   18.8737   22.7950 C   0  0  0  0  0  0  0  0  0  0  0  0
   20.8033   18.7184   22.6194 H   0  0  0  0  0  0  0  0  0  0  0  0
   19.5411   18.6077   23.8440 H   0  0  0  0  0  0  0  0  0  0  0  0
   18.9114   17.9127   21.8975 C   0  0  0  0  0  0  0  0  0  0  0  0
   17.8419   18.0377   22.1143 H   0  0  0  0  0  0  0  0  0  0  0  0
   19.1607   16.8776   22.1693 H   0  0  0  0  0  0  0  0  0  0  0  0
   19.1467   18.0970   20.3732 C   0  0  0  0  0  0  0  0  0  0  0  0
   18.5208   17.3860   19.8214 H   0  0  0  0  0  0  0  0  0  0  0  0
   18.8361   19.0974   20.0513 H   0  0  0  0  0  0  0  0  0  0  0  0
   20.5895   17.8670   19.9323 C   0  0  0  0  0  0  0  0  0  0  0  0
   21.0206   16.7308   19.9539 O   0  5  0  0  0  0  0  0  0  0  0  0
   21.2373   18.8252   19.5593 O   0  0  0  0  0  0  0  0  0  0  0  0
  1  2  1  0  0  0  0
  1  3  1  0  0  0  0
  1  4  2  0  0  0  0
  4  5  1  0  0  0  0
  4  6  1  0  0  0  0
  6  7  1  0  0  0  0
  6  8  1  0  0  0  0
  6  9  1  0  0  0  0
  9 10  1  0  0  0  0
  9 11  1  0  0  0  0
  9 12  1  0  0  0  0
 12 13  1  0  0  0  0
 12 14  1  0  0  0  0
 12 15  1  0  0  0  0
 15 16  1  0  0  0  0
 15 17  1  0  0  0  0
 15 18  1  0  0  0  0
 18 19  1  0  0  0  0
 18 20  2  0  0  0  0
M  END
> <VConfSearch Rank>
193

> <Conf_Id>
53

> <Delta U+W>
0.549

> <U+W>
-51.197

> <U>
10.870

> <W>
-62.067

> <W(PB)>
-64.228

> <W(SA)>
2.161

> <Valence>
8.803

> <Coulomb>
1.020

> <VdW>
1.048

> <VdW6>
-8.312

> <VdW12>
9.360

> <Bond>
0.212

> <Angle>
3.379

> <Pdih>
5.211

> <Idih>
0.001

> <Tether>
0.000

$$$$
VeraChem MOL file


 20 19  0  0  0  0  0  0  0  0999 V2000     
   18.6771   18.7549   24.6701 C   0  0  0  0  0  0  0  0  0  0  0  0
   18.9781   17.7187   24.5328 H   0  0  0  0  0  0  0  0  0  0  0  0
   17.8496   18.9430   25.3518 H   0  0  0  0  0  0  0  0  0  0  0  0
   19.2904   19.7637   24.0417 C   0  0  0  0  0  0  0  0  0  0  0  0
   18.9512   20.7843   24.2169 H   0  0  0  0  0  0  0  0  0  0  0  0
   20.4482   19.6467   23.0641 C   0  0  0  0  0  0  0  0  0  0  0  0
   21.3832   19.8583   23.5992 H   0  0  0  0  0  0  0  0  0  0  0  0
   20.3670   20.4467   22.3171 H   0  0  0  0  0  0  0  0  0  0  0  0
   20.5783   18.2877   22.3281 C   0  0  0  0  0  0  0  0  0  0  0  0
   21.4887   18.3089   21.7136 H   0  0  0  0  0  0  0  0  0  0  0  0
   20.7380   17.4881   23.0633 H   0  0  0  0  0  0  0  0  0  0  0  0
   19.3722   17.9198   21.4243 C   0  0  0  0  0  0  0  0  0  0  0  0
   18.4671   17.8231   22.0376 H   0  0  0  0  0  0  0  0  0  0  0  0
   19.5506   16.9280   20.9866 H   0  0  0  0  0  0  0  0  0  0  0  0
   19.0968   18.9279   20.2753 C   0  0  0  0  0  0  0  0  0  0  0  0
   18.2293   18.5898   19.6967 H   0  0  0  0  0  0  0  0  0  0  0  0
   18.8340   19.9117   20.6803 H   0  0  0  0  0  0  0  0  0  0  0  0
   20.2575   19.0938   19.2989 C   0  0  0  0  0  0  0  0  0  0  0  0
   20.8871   20.1332   19.3230 O   0  5  0  0  0  0  0  0  0  0  0  0
   20.4902   18.1846   18.5264 O   0  0  0  0  0  0  0  0  0  0  0  0
  1  2  1  0  0  0  0
  1  3  1  0  0  0  0
  1  4  2  0  0  0  0
  4  5  1  0  0  0  0
  4  6  1  0  0  0  0
  6  7  1  0  0  0  0
  6  8  1  0  0  0  0
  6  9  1  0  0  0  0
  9 10  1  0  0  0  0
  9 11  1  0  0  0  0
  9 12  1  0  0  0  0
 12 13  1  0  0  0  0
 12 14  1  0  0  0  0
 12 15  1  0  0  0  0
 15 16  1  0  0  0  0
 15 17  1  0  0  0  0
 15 18  1  0  0  0  0
 18 19  1  0  0  0  0
 18 20  2  0  0  0  0
M  END
> <VConfSearch Rank>
194

> <Conf_Id>
66

> <Delta U+W>
1.737

> <U+W>
-50.008

> <U>
11.091

> <W>
-61.099

> <W(PB)>
-63.213

> <W(SA)>
2.114

> <Valence>
9.664

> <Coulomb>
0.658

> <VdW>
0.769

> <VdW6>
-9.171

> <VdW12>
9.940

> <Bond>
0.244

> <Angle>
3.658

> <Pdih>
5.762

> <Idih>
0.001

> <Tether>
0.000

$$$$
VeraChem MOL file


 20 19  0  0  0  0  0  0  0  0999 V2000     
   16.8796   19.3089   22.2269 C   0  0  0  0  0  0  0  0  0  0  0  0
   17.2055   20.3454   22.2780 H   0  0  0  0  0  0  0  0  0  0  0  0
   15.9252   19.1150   21.7406 H   0  0  0  0  0  0  0  0  0  0  0  0
   17.6038   18.3075   22.7385 C   0  0  0  0  0  0  0  0  0  0  0  0
   17.2283   17.2875   22.6616 H   0  0  0  0  0  0  0  0  0  0  0  0
   18.9489   18.4285   23.4361 C   0  0  0  0  0  0  0  0  0  0  0  0
   19.5508   17.5413   23.2031 H   0  0  0  0  0  0  0  0  0  0  0  0
   18.7862   18.3798   24.5209 H   0  0  0  0  0  0  0  0  0  0  0  0
   19.7743   19.6988   23.1024 C   0  0  0  0  0  0  0  0  0  0  0  0
   19.2012   20.5911   23.3869 H   0  0  0  0  0  0  0  0  0  0  0  0
   20.6729   19.7103   23.7341 H   0  0  0  0  0  0  0  0  0  0  0  0
   20.2087   19.8181   21.6192 C   0  0  0  0  0  0  0  0  0  0  0  0
   20.7080   20.7865   21.4779 H   0  0  0  0  0  0  0  0  0  0  0  0
   19.3270   19.8289   20.9649 H   0  0  0  0  0  0  0  0  0  0  0  0
   21.1719   18.6916   21.1630 C   0  0  0  0  0  0  0  0  0  0  0  0
   22.0346   18.6340   21.8372 H   0  0  0  0  0  0  0  0  0  0  0  0
   20.6679   17.7190   21.1932 H   0  0  0  0  0  0  0  0  0  0  0  0
   21.6938   18.9001   19.7458 C   0  0  0  0  0  0  0  0  0  0  0  0
   21.0740   18.4040   18.8258 O   0  5  0  0  0  0  0  0  0  0  0  0
   22.6997   19.5659   19.5978 O   0  0  0  0  0  0  0  0  0  0  0  0
  1  2  1  0  0  0  0
  1  3  1  0  0  0  0
  1  4  2  0  0  0  0
  4  5  1  0  0  0  0
  4  6  1  0  0  0  0
  6  7  1  0  0  0  0
  6  8  1  0  0  0  0
  6  9  1  0  0  0  0
  9 10  1  0  0  0  0
  9 11  1  0  0  0  0
  9 12  1  0  0  0  0
 12 13  1  0  0  0  0
 12 14  1  0  0  0  0
 12 15  1  0  0  0  0
 15 16  1  0  0  0  0
 15 17  1  0  0  0  0
 15 18  1  0  0  0  0
 18 19  1  0  0  0  0
 18 20  2  0  0  0  0
M  END
> <VConfSearch Rank>
195

> <Conf_Id>
64

> <Delta U+W>
0.366

> <U+W>
-51.379

> <U>
10.000

> <W>
-61.379

> <W(PB)>
-63.541

> <W(SA)>
2.162

> <Valence>
9.398

> <Coulomb>
-0.504

> <VdW>
1.105

> <VdW6>
-7.975

> <VdW12>
9.080

> <Bond>
0.216

> <Angle>
3.417

> <Pdih>
5.765

> <Idih>
0.001

> <Tether>
0.000

$$$$
VeraChem MOL file


 20 19  0  0  0  0  0  0  0  0999 V2000     
   20.9411   16.3823   21.2797 C   0  0  0  0  0  0  0  0  0  0  0  0
   19.9329   16.0059   21.4450 H   0  0  0  0  0  0  0  0  0  0  0  0
   21.7693   15.7638   21.6213 H   0  0  0  0  0  0  0  0  0  0  0  0
   21.1574   17.5586   20.6851 C   0  0  0  0  0  0  0  0  0  0  0  0
   22.1744   17.9184   20.5314 H   0  0  0  0  0  0  0  0  0  0  0  0
   20.0588   18.4724   20.1851 C   0  0  0  0  0  0  0  0  0  0  0  0
   19.0909   17.9530   20.1918 H   0  0  0  0  0  0  0  0  0  0  0  0
   20.2609   18.7371   19.1387 H   0  0  0  0  0  0  0  0  0  0  0  0
   19.9532   19.7708   21.0163 C   0  0  0  0  0  0  0  0  0  0  0  0
   20.9215   20.2899   21.0101 H   0  0  0  0  0  0  0  0  0  0  0  0
   19.2323   20.4440   20.5325 H   0  0  0  0  0  0  0  0  0  0  0  0
   19.5073   19.5115   22.4735 C   0  0  0  0  0  0  0  0  0  0  0  0
   20.2350   18.8604   22.9771 H   0  0  0  0  0  0  0  0  0  0  0  0
   18.5472   18.9773   22.4771 H   0  0  0  0  0  0  0  0  0  0  0  0
   19.3639   20.8285   23.2753 C   0  0  0  0  0  0  0  0  0  0  0  0
   20.3187   21.3676   23.2912 H   0  0  0  0  0  0  0  0  0  0  0  0
   18.6281   21.4856   22.7964 H   0  0  0  0  0  0  0  0  0  0  0  0
   18.9250   20.5988   24.7171 C   0  0  0  0  0  0  0  0  0  0  0  0
   17.7339   20.5533   24.9536 O   0  5  0  0  0  0  0  0  0  0  0  0
   19.7855   20.4575   25.5634 O   0  0  0  0  0  0  0  0  0  0  0  0
  1  2  1  0  0  0  0
  1  3  1  0  0  0  0
  1  4  2  0  0  0  0
  4  5  1  0  0  0  0
  4  6  1  0  0  0  0
  6  7  1  0  0  0  0
  6  8  1  0  0  0  0
  6  9  1  0  0  0  0
  9 10  1  0  0  0  0
  9 11  1  0  0  0  0
  9 12  1  0  0  0  0
 12 13  1  0  0  0  0
 12 14  1  0  0  0  0
 12 15  1  0  0  0  0
 15 16  1  0  0  0  0
 15 17  1  0  0  0  0
 15 18  1  0  0  0  0
 18 19  1  0  0  0  0
 18 20  2  0  0  0  0
M  END
> <VConfSearch Rank>
196

> <Conf_Id>
42

> <Delta U+W>
-0.601

> <U+W>
-52.347

> <U>
8.428

> <W>
-60.774

> <W(PB)>
-62.982

> <W(SA)>
2.208

> <Valence>
9.231

> <Coulomb>
-1.304

> <VdW>
0.501

> <VdW6>
-6.515

> <VdW12>
7.016

> <Bond>
0.103

> <Angle>
2.328

> <Pdih>
6.799

> <Idih>
0.000

> <Tether>
0.000

$$$$
VeraChem MOL file


 20 19  0  0  0  0  0  0  0  0999 V2000     
   19.1517   16.2808   21.7585 C   0  0  0  0  0  0  0  0  0  0  0  0
   19.4276   16.0467   22.7854 H   0  0  0  0  0  0  0  0  0  0  0  0
   19.4304   15.5633   20.9887 H   0  0  0  0  0  0  0  0  0  0  0  0
   18.5001   17.4054   21.4505 C   0  0  0  0  0  0  0  0  0  0  0  0
   18.2358   17.6222   20.4159 H   0  0  0  0  0  0  0  0  0  0  0  0
   18.0813   18.4491   22.4640 C   0  0  0  0  0  0  0  0  0  0  0  0
   18.2072   18.0679   23.4864 H   0  0  0  0  0  0  0  0  0  0  0  0
   17.0104   18.6589   22.3414 H   0  0  0  0  0  0  0  0  0  0  0  0
   18.8688   19.7691   22.3044 C   0  0  0  0  0  0  0  0  0  0  0  0
   18.7360   20.1521   21.2831 H   0  0  0  0  0  0  0  0  0  0  0  0
   18.4403   20.5225   22.9792 H   0  0  0  0  0  0  0  0  0  0  0  0
   20.3755   19.6063   22.6152 C   0  0  0  0  0  0  0  0  0  0  0  0
   20.8267   18.8855   21.9193 H   0  0  0  0  0  0  0  0  0  0  0  0
   20.4936   19.1869   23.6234 H   0  0  0  0  0  0  0  0  0  0  0  0
   21.1493   20.9477   22.5330 C   0  0  0  0  0  0  0  0  0  0  0  0
   20.6978   21.6878   23.2045 H   0  0  0  0  0  0  0  0  0  0  0  0
   22.1804   20.7971   22.8738 H   0  0  0  0  0  0  0  0  0  0  0  0
   21.2141   21.5405   21.1283 C   0  0  0  0  0  0  0  0  0  0  0  0
   20.4827   22.4742   20.8631 O   0  5  0  0  0  0  0  0  0  0  0  0
   22.0083   21.0636   20.3416 O   0  0  0  0  0  0  0  0  0  0  0  0
  1  2  1  0  0  0  0
  1  3  1  0  0  0  0
  1  4  2  0  0  0  0
  4  5  1  0  0  0  0
  4  6  1  0  0  0  0
  6  7  1  0  0  0  0
  6  8  1  0  0  0  0
  6  9  1  0  0  0  0
  9 10  1  0  0  0  0
  9 11  1  0  0  0  0
  9 12  1  0  0  0  0
 12 13  1  0  0  0  0
 12 14  1  0  0  0  0
 12 15  1  0  0  0  0
 15 16  1  0  0  0  0
 15 17  1  0  0  0  0
 15 18  1  0  0  0  0
 18 19  1  0  0  0  0
 18 20  2  0  0  0  0
M  END
> <VConfSearch Rank>
197

> <Conf_Id>
68

> <Delta U+W>
0.492

> <U+W>
-51.253

> <U>
10.179

> <W>
-61.432

> <W(PB)>
-63.627

> <W(SA)>
2.195

> <Valence>
9.483

> <Coulomb>
0.361

> <VdW>
0.335

> <VdW6>
-7.385

> <VdW12>
7.720

> <Bond>
0.125

> <Angle>
2.487

> <Pdih>
6.870

> <Idih>
0.001

> <Tether>
0.000

$$$$
VeraChem MOL file


 20 19  0  0  0  0  0  0  0  0999 V2000     
   18.6488   21.0743   19.6759 C   0  0  0  0  0  0  0  0  0  0  0  0
   17.5860   20.8421   19.6294 H   0  0  0  0  0  0  0  0  0  0  0  0
   19.1487   21.3233   18.7414 H   0  0  0  0  0  0  0  0  0  0  0  0
   19.3176   21.0520   20.8317 C   0  0  0  0  0  0  0  0  0  0  0  0
   20.3805   21.2904   20.8561 H   0  0  0  0  0  0  0  0  0  0  0  0
   18.6889   20.7211   22.1685 C   0  0  0  0  0  0  0  0  0  0  0  0
   17.5987   20.8398   22.1048 H   0  0  0  0  0  0  0  0  0  0  0  0
   19.0316   21.4344   22.9299 H   0  0  0  0  0  0  0  0  0  0  0  0
   19.0038   19.2788   22.6255 C   0  0  0  0  0  0  0  0  0  0  0  0
   18.4180   19.0574   23.5280 H   0  0  0  0  0  0  0  0  0  0  0  0
   18.6686   18.5719   21.8538 H   0  0  0  0  0  0  0  0  0  0  0  0
   20.5050   19.0579   22.9278 C   0  0  0  0  0  0  0  0  0  0  0  0
   20.8398   19.8017   23.6633 H   0  0  0  0  0  0  0  0  0  0  0  0
   21.0999   19.2209   22.0188 H   0  0  0  0  0  0  0  0  0  0  0  0
   20.7981   17.6382   23.4786 C   0  0  0  0  0  0  0  0  0  0  0  0
   21.8491   17.5736   23.7840 H   0  0  0  0  0  0  0  0  0  0  0  0
   20.1950   17.4467   24.3743 H   0  0  0  0  0  0  0  0  0  0  0  0
   20.5449   16.5188   22.4728 C   0  0  0  0  0  0  0  0  0  0  0  0
   21.3743   16.3312   21.6044 O   0  5  0  0  0  0  0  0  0  0  0  0
   19.5362   15.8520   22.5952 O   0  0  0  0  0  0  0  0  0  0  0  0
  1  2  1  0  0  0  0
  1  3  1  0  0  0  0
  1  4  2  0  0  0  0
  4  5  1  0  0  0  0
  4  6  1  0  0  0  0
  6  7  1  0  0  0  0
  6  8  1  0  0  0  0
  6  9  1  0  0  0  0
  9 10  1  0  0  0  0
  9 11  1  0  0  0  0
  9 12  1  0  0  0  0
 12 13  1  0  0  0  0
 12 14  1  0  0  0  0
 12 15  1  0  0  0  0
 15 16  1  0  0  0  0
 15 17  1  0  0  0  0
 15 18  1  0  0  0  0
 18 19  1  0  0  0  0
 18 20  2  0  0  0  0
M  END
> <VConfSearch Rank>
198

> <Conf_Id>
87

> <Delta U+W>
0.339

> <U+W>
-51.407

> <U>
10.461

> <W>
-61.867

> <W(PB)>
-64.045

> <W(SA)>
2.178

> <Valence>
9.555

> <Coulomb>
0.483

> <VdW>
0.423

> <VdW6>
-7.223

> <VdW12>
7.646

> <Bond>
0.126

> <Angle>
2.492

> <Pdih>
6.936

> <Idih>
0.001

> <Tether>
0.000

$$$$
VeraChem MOL file


 20 19  0  0  0  0  0  0  0  0999 V2000     
   17.5101   17.1812   22.7929 C   0  0  0  0  0  0  0  0  0  0  0  0
   17.8935   16.1974   22.5270 H   0  0  0  0  0  0  0  0  0  0  0  0
   16.9217   17.2611   23.7052 H   0  0  0  0  0  0  0  0  0  0  0  0
   17.7533   18.2511   22.0314 C   0  0  0  0  0  0  0  0  0  0  0  0
   17.3534   19.2256   22.3094 H   0  0  0  0  0  0  0  0  0  0  0  0
   18.5513   18.2105   20.7456 C   0  0  0  0  0  0  0  0  0  0  0  0
   18.3299   19.0942   20.1324 H   0  0  0  0  0  0  0  0  0  0  0  0
   18.2162   17.3469   20.1555 H   0  0  0  0  0  0  0  0  0  0  0  0
   20.0793   18.0892   20.9685 C   0  0  0  0  0  0  0  0  0  0  0  0
   20.2885   17.3239   21.7284 H   0  0  0  0  0  0  0  0  0  0  0  0
   20.5274   17.7184   20.0366 H   0  0  0  0  0  0  0  0  0  0  0  0
   20.7921   19.4146   21.3377 C   0  0  0  0  0  0  0  0  0  0  0  0
   20.5693   20.1813   20.5830 H   0  0  0  0  0  0  0  0  0  0  0  0
   21.8771   19.2460   21.2933 H   0  0  0  0  0  0  0  0  0  0  0  0
   20.4400   19.9563   22.7469 C   0  0  0  0  0  0  0  0  0  0  0  0
   19.3942   20.2770   22.7856 H   0  0  0  0  0  0  0  0  0  0  0  0
   20.5695   19.1695   23.4995 H   0  0  0  0  0  0  0  0  0  0  0  0
   21.3003   21.1474   23.1528 C   0  0  0  0  0  0  0  0  0  0  0  0
   20.9218   22.2605   22.8453 O   0  5  0  0  0  0  0  0  0  0  0  0
   22.3374   20.9299   23.7478 O   0  0  0  0  0  0  0  0  0  0  0  0
  1  2  1  0  0  0  0
  1  3  1  0  0  0  0
  1  4  2  0  0  0  0
  4  5  1  0  0  0  0
  4  6  1  0  0  0  0
  6  7  1  0  0  0  0
  6  8  1  0  0  0  0
  6  9  1  0  0  0  0
  9 10  1  0  0  0  0
  9 11  1  0  0  0  0
  9 12  1  0  0  0  0
 12 13  1  0  0  0  0
 12 14  1  0  0  0  0
 12 15  1  0  0  0  0
 15 16  1  0  0  0  0
 15 17  1  0  0  0  0
 15 18  1  0  0  0  0
 18 19  1  0  0  0  0
 18 20  2  0  0  0  0
M  END
> <VConfSearch Rank>
199

> <Conf_Id>
51

> <Delta U+W>
1.709

> <U+W>
-50.036

> <U>
10.643

> <W>
-60.679

> <W(PB)>
-62.882

> <W(SA)>
2.203

> <Valence>
11.231

> <Coulomb>
-1.077

> <VdW>
0.489

> <VdW6>
-7.546

> <VdW12>
8.035

> <Bond>
0.159

> <Angle>
3.005

> <Pdih>
8.065

> <Idih>
0.002

> <Tether>
0.000

$$$$
VeraChem MOL file


 20 19  0  0  0  0  0  0  0  0999 V2000     
   19.5318   16.8412   20.2640 C   0  0  0  0  0  0  0  0  0  0  0  0
   18.7607   17.1014   19.5407 H   0  0  0  0  0  0  0  0  0  0  0  0
   19.6028   15.7988   20.5694 H   0  0  0  0  0  0  0  0  0  0  0  0
   20.3587   17.7648   20.7610 C   0  0  0  0  0  0  0  0  0  0  0  0
   21.1299   17.4834   21.4771 H   0  0  0  0  0  0  0  0  0  0  0  0
   20.3249   19.2274   20.3722 C   0  0  0  0  0  0  0  0  0  0  0  0
   20.2349   19.2949   19.2796 H   0  0  0  0  0  0  0  0  0  0  0  0
   21.2792   19.7097   20.6226 H   0  0  0  0  0  0  0  0  0  0  0  0
   19.1512   20.0112   21.0105 C   0  0  0  0  0  0  0  0  0  0  0  0
   18.9963   20.9252   20.4211 H   0  0  0  0  0  0  0  0  0  0  0  0
   18.2210   19.4338   20.9207 H   0  0  0  0  0  0  0  0  0  0  0  0
   19.3745   20.4349   22.4842 C   0  0  0  0  0  0  0  0  0  0  0  0
   18.5705   21.1279   22.7688 H   0  0  0  0  0  0  0  0  0  0  0  0
   20.3126   20.9999   22.5725 H   0  0  0  0  0  0  0  0  0  0  0  0
   19.3820   19.2567   23.4917 C   0  0  0  0  0  0  0  0  0  0  0  0
   18.4935   18.6300   23.3497 H   0  0  0  0  0  0  0  0  0  0  0  0
   20.2591   18.6211   23.3340 H   0  0  0  0  0  0  0  0  0  0  0  0
   19.4076   19.7218   24.9431 C   0  0  0  0  0  0  0  0  0  0  0  0
   20.4879   19.9170   25.4645 O   0  5  0  0  0  0  0  0  0  0  0  0
   18.3462   19.8968   25.5084 O   0  0  0  0  0  0  0  0  0  0  0  0
  1  2  1  0  0  0  0
  1  3  1  0  0  0  0
  1  4  2  0  0  0  0
  4  5  1  0  0  0  0
  4  6  1  0  0  0  0
  6  7  1  0  0  0  0
  6  8  1  0  0  0  0
  6  9  1  0  0  0  0
  9 10  1  0  0  0  0
  9 11  1  0  0  0  0
  9 12  1  0  0  0  0
 12 13  1  0  0  0  0
 12 14  1  0  0  0  0
 12 15  1  0  0  0  0
 15 16  1  0  0  0  0
 15 17  1  0  0  0  0
 15 18  1  0  0  0  0
 18 19  1  0  0  0  0
 18 20  2  0  0  0  0
M  END
> <VConfSearch Rank>
200

> <Conf_Id>
91

> <Delta U+W>
1.604

> <U+W>
-50.141

> <U>
10.644

> <W>
-60.786

> <W(PB)>
-62.965

> <W(SA)>
2.179

> <Valence>
11.230

> <Coulomb>
-1.075

> <VdW>
0.489

> <VdW6>
-7.547

> <VdW12>
8.036

> <Bond>
0.159

> <Angle>
3.006

> <Pdih>
8.064

> <Idih>
0.002

> <Tether>
0.000

$$$$
VeraChem MOL file


 20 19  0  0  0  0  0  0  0  0999 V2000     
   18.1551   18.1251   25.0627 C   0  0  0  0  0  0  0  0  0  0  0  0
   17.5573   17.4006   24.5120 H   0  0  0  0  0  0  0  0  0  0  0  0
   17.7775   18.4547   26.0293 H   0  0  0  0  0  0  0  0  0  0  0  0
   19.3055   18.5957   24.5743 C   0  0  0  0  0  0  0  0  0  0  0  0
   19.8885   19.3212   25.1413 H   0  0  0  0  0  0  0  0  0  0  0  0
   19.8923   18.1844   23.2423 C   0  0  0  0  0  0  0  0  0  0  0  0
   19.3925   17.2800   22.8695 H   0  0  0  0  0  0  0  0  0  0  0  0
   20.9527   17.9289   23.3710 H   0  0  0  0  0  0  0  0  0  0  0  0
   19.7549   19.3141   22.2003 C   0  0  0  0  0  0  0  0  0  0  0  0
   18.6930   19.5687   22.0785 H   0  0  0  0  0  0  0  0  0  0  0  0
   20.2589   20.2170   22.5716 H   0  0  0  0  0  0  0  0  0  0  0  0
   20.3521   18.9116   20.8341 C   0  0  0  0  0  0  0  0  0  0  0  0
   19.8481   18.0089   20.4619 H   0  0  0  0  0  0  0  0  0  0  0  0
   21.4139   18.6557   20.9555 H   0  0  0  0  0  0  0  0  0  0  0  0
   20.2130   20.0478   19.7862 C   0  0  0  0  0  0  0  0  0  0  0  0
   19.1551   20.3039   19.6553 H   0  0  0  0  0  0  0  0  0  0  0  0
   20.7193   20.9503   20.1484 H   0  0  0  0  0  0  0  0  0  0  0  0
   20.7803   19.7313   18.4015 C   0  0  0  0  0  0  0  0  0  0  0  0
   20.6909   20.5977   17.5544 O   0  5  0  0  0  0  0  0  0  0  0  0
   21.2920   18.6482   18.1928 O   0  0  0  0  0  0  0  0  0  0  0  0
  1  2  1  0  0  0  0
  1  3  1  0  0  0  0
  1  4  2  0  0  0  0
  4  5  1  0  0  0  0
  4  6  1  0  0  0  0
  6  7  1  0  0  0  0
  6  8  1  0  0  0  0
  6  9  1  0  0  0  0
  9 10  1  0  0  0  0
  9 11  1  0  0  0  0
  9 12  1  0  0  0  0
 12 13  1  0  0  0  0
 12 14  1  0  0  0  0
 12 15  1  0  0  0  0
 15 16  1  0  0  0  0
 15 17  1  0  0  0  0
 15 18  1  0  0  0  0
 18 19  1  0  0  0  0
 18 20  2  0  0  0  0
M  END
> <VConfSearch Rank>
201

> <Conf_Id>
33

> <Delta U+W>
0.000

> <U+W>
-51.745

> <U>
7.593

> <W>
-59.338

> <W(PB)>
-61.574

> <W(SA)>
2.236

> <Valence>
9.570

> <Coulomb>
-3.091

> <VdW>
1.114

> <VdW6>
-6.064

> <VdW12>
7.178

> <Bond>
0.117

> <Angle>
2.692

> <Pdih>
6.761

> <Idih>
0.000

> <Tether>
0.000

$$$$
VeraChem MOL file


 20 19  0  0  0  0  0  0  0  0999 V2000     
   22.3248   17.8427   24.0929 C   0  0  0  0  0  0  0  0  0  0  0  0
   21.5738   17.5737   24.8341 H   0  0  0  0  0  0  0  0  0  0  0  0
   23.3682   17.8083   24.4018 H   0  0  0  0  0  0  0  0  0  0  0  0
   21.9836   18.2036   22.8532 C   0  0  0  0  0  0  0  0  0  0  0  0
   22.7509   18.4699   22.1266 H   0  0  0  0  0  0  0  0  0  0  0  0
   20.5580   18.2738   22.3526 C   0  0  0  0  0  0  0  0  0  0  0  0
   19.8856   17.7527   23.0474 H   0  0  0  0  0  0  0  0  0  0  0  0
   20.4882   17.7504   21.3907 H   0  0  0  0  0  0  0  0  0  0  0  0
   20.0976   19.7402   22.1933 C   0  0  0  0  0  0  0  0  0  0  0  0
   20.2560   20.2658   23.1451 H   0  0  0  0  0  0  0  0  0  0  0  0
   20.7287   20.2472   21.4505 H   0  0  0  0  0  0  0  0  0  0  0  0
   18.6092   19.8800   21.7943 C   0  0  0  0  0  0  0  0  0  0  0  0
   18.3377   20.9446   21.8140 H   0  0  0  0  0  0  0  0  0  0  0  0
   17.9759   19.3848   22.5434 H   0  0  0  0  0  0  0  0  0  0  0  0
   18.2893   19.3105   20.3878 C   0  0  0  0  0  0  0  0  0  0  0  0
   18.9451   19.7665   19.6366 H   0  0  0  0  0  0  0  0  0  0  0  0
   18.4640   18.2291   20.3595 H   0  0  0  0  0  0  0  0  0  0  0  0
   16.8450   19.5576   19.9669 C   0  0  0  0  0  0  0  0  0  0  0  0
   16.0098   18.7276   20.2673 O   0  5  0  0  0  0  0  0  0  0  0  0
   16.5899   20.5831   19.3669 O   0  0  0  0  0  0  0  0  0  0  0  0
  1  2  1  0  0  0  0
  1  3  1  0  0  0  0
  1  4  2  0  0  0  0
  4  5  1  0  0  0  0
  4  6  1  0  0  0  0
  6  7  1  0  0  0  0
  6  8  1  0  0  0  0
  6  9  1  0  0  0  0
  9 10  1  0  0  0  0
  9 11  1  0  0  0  0
  9 12  1  0  0  0  0
 12 13  1  0  0  0  0
 12 14  1  0  0  0  0
 12 15  1  0  0  0  0
 15 16  1  0  0  0  0
 15 17  1  0  0  0  0
 15 18  1  0  0  0  0
 18 19  1  0  0  0  0
 18 20  2  0  0  0  0
M  END
> <VConfSearch Rank>
202

> <Conf_Id>
37

> <Delta U+W>
-0.384

> <U+W>
-52.130

> <U>
7.491

> <W>
-59.621

> <W(PB)>
-61.853

> <W(SA)>
2.232

> <Valence>
9.604

> <Coulomb>
-2.799

> <VdW>
0.686

> <VdW6>
-6.435

> <VdW12>
7.121

> <Bond>
0.124

> <Angle>
2.493

> <Pdih>
6.986

> <Idih>
0.001

> <Tether>
0.000

$$$$
VeraChem MOL file


 20 19  0  0  0  0  0  0  0  0999 V2000     
   20.1002   16.7108   24.3118 C   0  0  0  0  0  0  0  0  0  0  0  0
   20.2036   15.9489   25.0825 H   0  0  0  0  0  0  0  0  0  0  0  0
   19.9684   17.7364   24.6500 H   0  0  0  0  0  0  0  0  0  0  0  0
   20.1360   16.3809   23.0157 C   0  0  0  0  0  0  0  0  0  0  0  0
   20.2706   15.3355   22.7386 H   0  0  0  0  0  0  0  0  0  0  0  0
   20.0063   17.3267   21.8335 C   0  0  0  0  0  0  0  0  0  0  0  0
   19.1632   16.9993   21.2106 H   0  0  0  0  0  0  0  0  0  0  0  0
   20.8985   17.2254   21.2011 H   0  0  0  0  0  0  0  0  0  0  0  0
   19.8144   18.8157   22.2048 C   0  0  0  0  0  0  0  0  0  0  0  0
   18.9113   18.9269   22.8206 H   0  0  0  0  0  0  0  0  0  0  0  0
   20.6654   19.1555   22.8110 H   0  0  0  0  0  0  0  0  0  0  0  0
   19.6914   19.7072   20.9498 C   0  0  0  0  0  0  0  0  0  0  0  0
   18.8415   19.3723   20.3389 H   0  0  0  0  0  0  0  0  0  0  0  0
   20.5921   19.6004   20.3293 H   0  0  0  0  0  0  0  0  0  0  0  0
   19.4991   21.1988   21.3189 C   0  0  0  0  0  0  0  0  0  0  0  0
   18.5958   21.3249   21.9278 H   0  0  0  0  0  0  0  0  0  0  0  0
   20.3464   21.5529   21.9184 H   0  0  0  0  0  0  0  0  0  0  0  0
   19.3751   22.1001   20.0956 C   0  0  0  0  0  0  0  0  0  0  0  0
   18.2672   22.2926   19.6351 O   0  5  0  0  0  0  0  0  0  0  0  0
   20.3917   22.5697   19.6238 O   0  0  0  0  0  0  0  0  0  0  0  0
  1  2  1  0  0  0  0
  1  3  1  0  0  0  0
  1  4  2  0  0  0  0
  4  5  1  0  0  0  0
  4  6  1  0  0  0  0
  6  7  1  0  0  0  0
  6  8  1  0  0  0  0
  6  9  1  0  0  0  0
  9 10  1  0  0  0  0
  9 11  1  0  0  0  0
  9 12  1  0  0  0  0
 12 13  1  0  0  0  0
 12 14  1  0  0  0  0
 12 15  1  0  0  0  0
 15 16  1  0  0  0  0
 15 17  1  0  0  0  0
 15 18  1  0  0  0  0
 18 19  1  0  0  0  0
 18 20  2  0  0  0  0
M  END
> <VConfSearch Rank>
203

> <Conf_Id>
44

> <Delta U+W>
-1.440

> <U+W>
-53.185

> <U>
6.572

> <W>
-59.757

> <W(PB)>
-62.007

> <W(SA)>
2.249

> <Valence>
7.989

> <Coulomb>
-2.697

> <VdW>
1.281

> <VdW6>
-6.467

> <VdW12>
7.748

> <Bond>
0.136

> <Angle>
2.854

> <Pdih>
4.997

> <Idih>
0.001

> <Tether>
0.000

$$$$
VeraChem MOL file


 20 19  0  0  0  0  0  0  0  0999 V2000     
   18.5896   15.8788   22.5458 C   0  0  0  0  0  0  0  0  0  0  0  0
   19.3474   15.9317   23.3260 H   0  0  0  0  0  0  0  0  0  0  0  0
   18.1678   14.9003   22.3227 H   0  0  0  0  0  0  0  0  0  0  0  0
   18.1922   16.9688   21.8841 C   0  0  0  0  0  0  0  0  0  0  0  0
   17.4327   16.8939   21.1062 H   0  0  0  0  0  0  0  0  0  0  0  0
   18.7307   18.3590   22.1394 C   0  0  0  0  0  0  0  0  0  0  0  0
   19.2687   18.3805   23.0959 H   0  0  0  0  0  0  0  0  0  0  0  0
   17.8946   19.0652   22.2296 H   0  0  0  0  0  0  0  0  0  0  0  0
   19.6687   18.8094   20.9969 C   0  0  0  0  0  0  0  0  0  0  0  0
   20.5333   18.1335   20.9431 H   0  0  0  0  0  0  0  0  0  0  0  0
   19.1373   18.7095   20.0405 H   0  0  0  0  0  0  0  0  0  0  0  0
   20.1575   20.2707   21.1387 C   0  0  0  0  0  0  0  0  0  0  0  0
   19.2940   20.9487   21.1830 H   0  0  0  0  0  0  0  0  0  0  0  0
   20.7195   20.5431   20.2347 H   0  0  0  0  0  0  0  0  0  0  0  0
   21.0627   20.5033   22.3763 C   0  0  0  0  0  0  0  0  0  0  0  0
   20.5041   20.3282   23.3026 H   0  0  0  0  0  0  0  0  0  0  0  0
   21.9053   19.8017   22.3662 H   0  0  0  0  0  0  0  0  0  0  0  0
   21.6265   21.9184   22.4360 C   0  0  0  0  0  0  0  0  0  0  0  0
   22.6918   22.1349   21.8927 O   0  5  0  0  0  0  0  0  0  0  0  0
   20.9763   22.7716   23.0069 O   0  0  0  0  0  0  0  0  0  0  0  0
  1  2  1  0  0  0  0
  1  3  1  0  0  0  0
  1  4  2  0  0  0  0
  4  5  1  0  0  0  0
  4  6  1  0  0  0  0
  6  7  1  0  0  0  0
  6  8  1  0  0  0  0
  6  9  1  0  0  0  0
  9 10  1  0  0  0  0
  9 11  1  0  0  0  0
  9 12  1  0  0  0  0
 12 13  1  0  0  0  0
 12 14  1  0  0  0  0
 12 15  1  0  0  0  0
 15 16  1  0  0  0  0
 15 17  1  0  0  0  0
 15 18  1  0  0  0  0
 18 19  1  0  0  0  0
 18 20  2  0  0  0  0
M  END
> <VConfSearch Rank>
204

> <Conf_Id>
38

> <Delta U+W>
-0.381

> <U+W>
-52.126

> <U>
7.601

> <W>
-59.727

> <W(PB)>
-61.964

> <W(SA)>
2.236

> <Valence>
9.602

> <Coulomb>
-2.686

> <VdW>
0.685

> <VdW6>
-6.453

> <VdW12>
7.139

> <Bond>
0.125

> <Angle>
2.485

> <Pdih>
6.991

> <Idih>
0.001

> <Tether>
0.000

$$$$
VeraChem MOL file


 20 19  0  0  0  0  0  0  0  0999 V2000     
   20.1284   20.9239   18.9277 C   0  0  0  0  0  0  0  0  0  0  0  0
   19.6999   20.1005   18.3584 H   0  0  0  0  0  0  0  0  0  0  0  0
   20.1244   21.9089   18.4641 H   0  0  0  0  0  0  0  0  0  0  0  0
   20.6378   20.7376   20.1481 C   0  0  0  0  0  0  0  0  0  0  0  0
   21.0611   21.5755   20.7017 H   0  0  0  0  0  0  0  0  0  0  0  0
   20.6789   19.4010   20.8548 C   0  0  0  0  0  0  0  0  0  0  0  0
   21.6872   19.2272   21.2538 H   0  0  0  0  0  0  0  0  0  0  0  0
   20.4758   18.5886   20.1438 H   0  0  0  0  0  0  0  0  0  0  0  0
   19.6515   19.3470   22.0048 C   0  0  0  0  0  0  0  0  0  0  0  0
   19.8583   20.1590   22.7157 H   0  0  0  0  0  0  0  0  0  0  0  0
   18.6448   19.5260   21.6026 H   0  0  0  0  0  0  0  0  0  0  0  0
   19.6825   17.9879   22.7398 C   0  0  0  0  0  0  0  0  0  0  0  0
   20.6854   17.8105   23.1526 H   0  0  0  0  0  0  0  0  0  0  0  0
   19.4903   17.1818   22.0189 H   0  0  0  0  0  0  0  0  0  0  0  0
   18.6353   17.9029   23.8805 C   0  0  0  0  0  0  0  0  0  0  0  0
   17.6311   18.1054   23.4889 H   0  0  0  0  0  0  0  0  0  0  0  0
   18.6182   16.8849   24.2872 H   0  0  0  0  0  0  0  0  0  0  0  0
   18.9060   18.8540   25.0428 C   0  0  0  0  0  0  0  0  0  0  0  0
   18.2163   19.8494   25.1451 O   0  5  0  0  0  0  0  0  0  0  0  0
   19.7936   18.5674   25.8220 O   0  0  0  0  0  0  0  0  0  0  0  0
  1  2  1  0  0  0  0
  1  3  1  0  0  0  0
  1  4  2  0  0  0  0
  4  5  1  0  0  0  0
  4  6  1  0  0  0  0
  6  7  1  0  0  0  0
  6  8  1  0  0  0  0
  6  9  1  0  0  0  0
  9 10  1  0  0  0  0
  9 11  1  0  0  0  0
  9 12  1  0  0  0  0
 12 13  1  0  0  0  0
 12 14  1  0  0  0  0
 12 15  1  0  0  0  0
 15 16  1  0  0  0  0
 15 17  1  0  0  0  0
 15 18  1  0  0  0  0
 18 19  1  0  0  0  0
 18 20  2  0  0  0  0
M  END
> <VConfSearch Rank>
205

> <Conf_Id>
58

> <Delta U+W>
0.019

> <U+W>
-51.727

> <U>
8.963

> <W>
-60.690

> <W(PB)>
-62.934

> <W(SA)>
2.244

> <Valence>
9.327

> <Coulomb>
-0.780

> <VdW>
0.417

> <VdW6>
-6.635

> <VdW12>
7.052

> <Bond>
0.105

> <Angle>
2.399

> <Pdih>
6.822

> <Idih>
0.000

> <Tether>
0.000

$$$$
VeraChem MOL file


 20 19  0  0  0  0  0  0  0  0999 V2000     
   17.6658   16.4375   22.7777 C   0  0  0  0  0  0  0  0  0  0  0  0
   18.0471   16.3492   23.7937 H   0  0  0  0  0  0  0  0  0  0  0  0
   17.2040   15.5553   22.3375 H   0  0  0  0  0  0  0  0  0  0  0  0
   17.7613   17.5805   22.0935 C   0  0  0  0  0  0  0  0  0  0  0  0
   17.3740   17.6476   21.0771 H   0  0  0  0  0  0  0  0  0  0  0  0
   18.3878   18.8448   22.6382 C   0  0  0  0  0  0  0  0  0  0  0  0
   18.5127   18.7687   23.7270 H   0  0  0  0  0  0  0  0  0  0  0  0
   17.7174   19.6952   22.4556 H   0  0  0  0  0  0  0  0  0  0  0  0
   19.7573   19.1158   21.9809 C   0  0  0  0  0  0  0  0  0  0  0  0
   20.4236   18.2610   22.1617 H   0  0  0  0  0  0  0  0  0  0  0  0
   19.6292   19.1937   20.8924 H   0  0  0  0  0  0  0  0  0  0  0  0
   20.4103   20.4067   22.5245 C   0  0  0  0  0  0  0  0  0  0  0  0
   20.5199   20.3259   23.6145 H   0  0  0  0  0  0  0  0  0  0  0  0
   19.7511   21.2654   22.3357 H   0  0  0  0  0  0  0  0  0  0  0  0
   21.8022   20.6803   21.8979 C   0  0  0  0  0  0  0  0  0  0  0  0
   22.2692   21.5350   22.4012 H   0  0  0  0  0  0  0  0  0  0  0  0
   22.4639   19.8196   22.0539 H   0  0  0  0  0  0  0  0  0  0  0  0
   21.7590   20.9973   20.4057 C   0  0  0  0  0  0  0  0  0  0  0  0
   21.3775   22.1000   20.0658 O   0  5  0  0  0  0  0  0  0  0  0  0
   22.1177   20.1388   19.6239 O   0  0  0  0  0  0  0  0  0  0  0  0
  1  2  1  0  0  0  0
  1  3  1  0  0  0  0
  1  4  2  0  0  0  0
  4  5  1  0  0  0  0
  4  6  1  0  0  0  0
  6  7  1  0  0  0  0
  6  8  1  0  0  0  0
  6  9  1  0  0  0  0
  9 10  1  0  0  0  0
  9 11  1  0  0  0  0
  9 12  1  0  0  0  0
 12 13  1  0  0  0  0
 12 14  1  0  0  0  0
 12 15  1  0  0  0  0
 15 16  1  0  0  0  0
 15 17  1  0  0  0  0
 15 18  1  0  0  0  0
 18 19  1  0  0  0  0
 18 20  2  0  0  0  0
M  END
> <VConfSearch Rank>
206

> <Conf_Id>
54

> <Delta U+W>
-0.048

> <U+W>
-51.793

> <U>
8.964

> <W>
-60.756

> <W(PB)>
-63.007

> <W(SA)>
2.251

> <Valence>
9.327

> <Coulomb>
-0.780

> <VdW>
0.417

> <VdW6>
-6.635

> <VdW12>
7.052

> <Bond>
0.105

> <Angle>
2.399

> <Pdih>
6.822

> <Idih>
0.000

> <Tether>
0.000

$$$$
VeraChem MOL file


 20 19  0  0  0  0  0  0  0  0999 V2000     
   21.5497   21.7651   20.9518 C   0  0  0  0  0  0  0  0  0  0  0  0
   21.6302   22.2802   19.9961 H   0  0  0  0  0  0  0  0  0  0  0  0
   21.5714   22.3751   21.8534 H   0  0  0  0  0  0  0  0  0  0  0  0
   21.4262   20.4366   21.0116 C   0  0  0  0  0  0  0  0  0  0  0  0
   21.4101   19.8446   20.0970 H   0  0  0  0  0  0  0  0  0  0  0  0
   21.3165   19.6530   22.3022 C   0  0  0  0  0  0  0  0  0  0  0  0
   21.7000   20.2572   23.1355 H   0  0  0  0  0  0  0  0  0  0  0  0
   21.9527   18.7592   22.2528 H   0  0  0  0  0  0  0  0  0  0  0  0
   19.8614   19.2403   22.6191 C   0  0  0  0  0  0  0  0  0  0  0  0
   19.8321   18.8015   23.6259 H   0  0  0  0  0  0  0  0  0  0  0  0
   19.2260   20.1361   22.6499 H   0  0  0  0  0  0  0  0  0  0  0  0
   19.2882   18.2258   21.6011 C   0  0  0  0  0  0  0  0  0  0  0  0
   19.9316   17.3360   21.5594 H   0  0  0  0  0  0  0  0  0  0  0  0
   19.2967   18.6697   20.5969 H   0  0  0  0  0  0  0  0  0  0  0  0
   17.8376   17.7955   21.9415 C   0  0  0  0  0  0  0  0  0  0  0  0
   17.1897   18.6769   22.0198 H   0  0  0  0  0  0  0  0  0  0  0  0
   17.4380   17.1790   21.1277 H   0  0  0  0  0  0  0  0  0  0  0  0
   17.7162   16.9852   23.2289 C   0  0  0  0  0  0  0  0  0  0  0  0
   17.2681   17.5353   24.2156 O   0  5  0  0  0  0  0  0  0  0  0  0
   18.0637   15.8208   23.2073 O   0  0  0  0  0  0  0  0  0  0  0  0
  1  2  1  0  0  0  0
  1  3  1  0  0  0  0
  1  4  2  0  0  0  0
  4  5  1  0  0  0  0
  4  6  1  0  0  0  0
  6  7  1  0  0  0  0
  6  8  1  0  0  0  0
  6  9  1  0  0  0  0
  9 10  1  0  0  0  0
  9 11  1  0  0  0  0
  9 12  1  0  0  0  0
 12 13  1  0  0  0  0
 12 14  1  0  0  0  0
 12 15  1  0  0  0  0
 15 16  1  0  0  0  0
 15 17  1  0  0  0  0
 15 18  1  0  0  0  0
 18 19  1  0  0  0  0
 18 20  2  0  0  0  0
M  END
> <VConfSearch Rank>
207

> <Conf_Id>
27

> <Delta U+W>
0.478

> <U+W>
-51.267

> <U>
9.192

> <W>
-60.459

> <W(PB)>
-62.649

> <W(SA)>
2.190

> <Valence>
9.572

> <Coulomb>
-0.884

> <VdW>
0.504

> <VdW6>
-7.168

> <VdW12>
7.672

> <Bond>
0.127

> <Angle>
2.504

> <Pdih>
6.941

> <Idih>
0.001

> <Tether>
0.000

$$$$
VeraChem MOL file


 20 19  0  0  0  0  0  0  0  0999 V2000     
   21.6511   18.4789   24.6207 C   0  0  0  0  0  0  0  0  0  0  0  0
   21.8798   17.4186   24.7156 H   0  0  0  0  0  0  0  0  0  0  0  0
   21.6320   19.0712   25.5339 H   0  0  0  0  0  0  0  0  0  0  0  0
   21.4000   19.0344   23.4324 C   0  0  0  0  0  0  0  0  0  0  0  0
   21.1763   20.0983   23.3595 H   0  0  0  0  0  0  0  0  0  0  0  0
   21.4150   18.2762   22.1222 C   0  0  0  0  0  0  0  0  0  0  0  0
   21.9811   17.3424   22.2412 H   0  0  0  0  0  0  0  0  0  0  0  0
   21.9439   18.8607   21.3576 H   0  0  0  0  0  0  0  0  0  0  0  0
   19.9926   17.9328   21.6250 C   0  0  0  0  0  0  0  0  0  0  0  0
   20.0735   17.2743   20.7494 H   0  0  0  0  0  0  0  0  0  0  0  0
   19.4632   17.3618   22.4002 H   0  0  0  0  0  0  0  0  0  0  0  0
   19.1705   19.1853   21.2436 C   0  0  0  0  0  0  0  0  0  0  0  0
   19.7134   19.7689   20.4872 H   0  0  0  0  0  0  0  0  0  0  0  0
   19.0480   19.8350   22.1208 H   0  0  0  0  0  0  0  0  0  0  0  0
   17.7724   18.8102   20.6935 C   0  0  0  0  0  0  0  0  0  0  0  0
   17.8723   18.1741   19.8059 H   0  0  0  0  0  0  0  0  0  0  0  0
   17.2127   18.2369   21.4423 H   0  0  0  0  0  0  0  0  0  0  0  0
   16.9405   20.0290   20.3110 C   0  0  0  0  0  0  0  0  0  0  0  0
   16.2269   20.5261   21.1598 O   0  5  0  0  0  0  0  0  0  0  0  0
   17.0414   20.4600   19.1793 O   0  0  0  0  0  0  0  0  0  0  0  0
  1  2  1  0  0  0  0
  1  3  1  0  0  0  0
  1  4  2  0  0  0  0
  4  5  1  0  0  0  0
  4  6  1  0  0  0  0
  6  7  1  0  0  0  0
  6  8  1  0  0  0  0
  6  9  1  0  0  0  0
  9 10  1  0  0  0  0
  9 11  1  0  0  0  0
  9 12  1  0  0  0  0
 12 13  1  0  0  0  0
 12 14  1  0  0  0  0
 12 15  1  0  0  0  0
 15 16  1  0  0  0  0
 15 17  1  0  0  0  0
 15 18  1  0  0  0  0
 18 19  1  0  0  0  0
 18 20  2  0  0  0  0
M  END
> <VConfSearch Rank>
208

> <Conf_Id>
41

> <Delta U+W>
-0.634

> <U+W>
-52.379

> <U>
7.828

> <W>
-60.207

> <W(PB)>
-62.449

> <W(SA)>
2.242

> <Valence>
9.300

> <Coulomb>
-2.080

> <VdW>
0.608

> <VdW6>
-6.341

> <VdW12>
6.949

> <Bond>
0.103

> <Angle>
2.334

> <Pdih>
6.862

> <Idih>
0.001

> <Tether>
0.000

$$$$
VeraChem MOL file


 20 19  0  0  0  0  0  0  0  0999 V2000     
   21.4702   20.2480   19.3118 C   0  0  0  0  0  0  0  0  0  0  0  0
   22.2945   20.1949   18.6026 H   0  0  0  0  0  0  0  0  0  0  0  0
   20.5856   20.8071   19.0110 H   0  0  0  0  0  0  0  0  0  0  0  0
   21.5444   19.6475   20.5024 C   0  0  0  0  0  0  0  0  0  0  0  0
   22.4386   19.0920   20.7843 H   0  0  0  0  0  0  0  0  0  0  0  0
   20.4425   19.6783   21.5380 C   0  0  0  0  0  0  0  0  0  0  0  0
   19.7069   20.4545   21.2876 H   0  0  0  0  0  0  0  0  0  0  0  0
   20.8718   19.9474   22.5117 H   0  0  0  0  0  0  0  0  0  0  0  0
   19.7345   18.3085   21.6356 C   0  0  0  0  0  0  0  0  0  0  0  0
   19.3997   18.0101   20.6326 H   0  0  0  0  0  0  0  0  0  0  0  0
   20.4550   17.5449   21.9599 H   0  0  0  0  0  0  0  0  0  0  0  0
   18.5098   18.3110   22.5834 C   0  0  0  0  0  0  0  0  0  0  0  0
   18.0228   17.3273   22.5345 H   0  0  0  0  0  0  0  0  0  0  0  0
   17.7717   19.0380   22.2186 H   0  0  0  0  0  0  0  0  0  0  0  0
   18.8461   18.6274   24.0664 C   0  0  0  0  0  0  0  0  0  0  0  0
   19.2662   19.6350   24.1618 H   0  0  0  0  0  0  0  0  0  0  0  0
   17.9228   18.6194   24.6574 H   0  0  0  0  0  0  0  0  0  0  0  0
   19.8072   17.6339   24.7129 C   0  0  0  0  0  0  0  0  0  0  0  0
   19.3913   16.5218   24.9732 O   0  5  0  0  0  0  0  0  0  0  0  0
   20.9395   18.0024   24.9557 O   0  0  0  0  0  0  0  0  0  0  0  0
  1  2  1  0  0  0  0
  1  3  1  0  0  0  0
  1  4  2  0  0  0  0
  4  5  1  0  0  0  0
  4  6  1  0  0  0  0
  6  7  1  0  0  0  0
  6  8  1  0  0  0  0
  6  9  1  0  0  0  0
  9 10  1  0  0  0  0
  9 11  1  0  0  0  0
  9 12  1  0  0  0  0
 12 13  1  0  0  0  0
 12 14  1  0  0  0  0
 12 15  1  0  0  0  0
 15 16  1  0  0  0  0
 15 17  1  0  0  0  0
 15 18  1  0  0  0  0
 18 19  1  0  0  0  0
 18 20  2  0  0  0  0
M  END
> <VConfSearch Rank>
209

> <Conf_Id>
84

> <Delta U+W>
0.942

> <U+W>
-50.803

> <U>
10.196

> <W>
-60.999

> <W(PB)>
-63.182

> <W(SA)>
2.182

> <Valence>
9.837

> <Coulomb>
0.032

> <VdW>
0.328

> <VdW6>
-7.642

> <VdW12>
7.969

> <Bond>
0.151

> <Angle>
2.748

> <Pdih>
6.937

> <Idih>
0.001

> <Tether>
0.000

$$$$
VeraChem MOL file


 20 19  0  0  0  0  0  0  0  0999 V2000     
   18.1940   19.0975   18.9205 C   0  0  0  0  0  0  0  0  0  0  0  0
   17.2632   19.0496   18.3578 H   0  0  0  0  0  0  0  0  0  0  0  0
   18.9421   19.8167   18.5911 H   0  0  0  0  0  0  0  0  0  0  0  0
   18.4047   18.3049   19.9746 C   0  0  0  0  0  0  0  0  0  0  0  0
   17.6424   17.5922   20.2886 H   0  0  0  0  0  0  0  0  0  0  0  0
   19.6704   18.3142   20.8027 C   0  0  0  0  0  0  0  0  0  0  0  0
   20.4657   18.8587   20.2756 H   0  0  0  0  0  0  0  0  0  0  0  0
   20.0282   17.2848   20.9380 H   0  0  0  0  0  0  0  0  0  0  0  0
   19.4298   18.9644   22.1812 C   0  0  0  0  0  0  0  0  0  0  0  0
   19.0660   19.9915   22.0382 H   0  0  0  0  0  0  0  0  0  0  0  0
   18.6373   18.4179   22.7107 H   0  0  0  0  0  0  0  0  0  0  0  0
   20.7135   18.9787   23.0416 C   0  0  0  0  0  0  0  0  0  0  0  0
   21.5042   19.5368   22.5212 H   0  0  0  0  0  0  0  0  0  0  0  0
   21.0798   17.9502   23.1629 H   0  0  0  0  0  0  0  0  0  0  0  0
   20.4846   19.5998   24.4440 C   0  0  0  0  0  0  0  0  0  0  0  0
   19.6786   19.0701   24.9662 H   0  0  0  0  0  0  0  0  0  0  0  0
   21.3896   19.4782   25.0508 H   0  0  0  0  0  0  0  0  0  0  0  0
   20.1508   21.0886   24.4160 C   0  0  0  0  0  0  0  0  0  0  0  0
   19.0011   21.4250   24.6209 O   0  5  0  0  0  0  0  0  0  0  0  0
   21.0537   21.8737   24.2026 O   0  0  0  0  0  0  0  0  0  0  0  0
  1  2  1  0  0  0  0
  1  3  1  0  0  0  0
  1  4  2  0  0  0  0
  4  5  1  0  0  0  0
  4  6  1  0  0  0  0
  6  7  1  0  0  0  0
  6  8  1  0  0  0  0
  6  9  1  0  0  0  0
  9 10  1  0  0  0  0
  9 11  1  0  0  0  0
  9 12  1  0  0  0  0
 12 13  1  0  0  0  0
 12 14  1  0  0  0  0
 12 15  1  0  0  0  0
 15 16  1  0  0  0  0
 15 17  1  0  0  0  0
 15 18  1  0  0  0  0
 18 19  1  0  0  0  0
 18 20  2  0  0  0  0
M  END
> <VConfSearch Rank>
210

> <Conf_Id>
81

> <Delta U+W>
-0.051

> <U+W>
-51.796

> <U>
9.412

> <W>
-61.209

> <W(PB)>
-63.452

> <W(SA)>
2.243

> <Valence>
9.329

> <Coulomb>
-0.323

> <VdW>
0.406

> <VdW6>
-6.640

> <VdW12>
7.046

> <Bond>
0.105

> <Angle>
2.401

> <Pdih>
6.823

> <Idih>
0.000

> <Tether>
0.000

$$$$
VeraChem MOL file


 20 19  0  0  0  0  0  0  0  0999 V2000     
   19.7057   17.9384   25.0661 C   0  0  0  0  0  0  0  0  0  0  0  0
   20.7501   17.8079   25.3449 H   0  0  0  0  0  0  0  0  0  0  0  0
   18.9683   17.9297   25.8669 H   0  0  0  0  0  0  0  0  0  0  0  0
   19.3397   18.1059   23.7927 C   0  0  0  0  0  0  0  0  0  0  0  0
   18.2887   18.2325   23.5347 H   0  0  0  0  0  0  0  0  0  0  0  0
   20.3061   18.1236   22.6277 C   0  0  0  0  0  0  0  0  0  0  0  0
   19.9149   17.5119   21.8045 H   0  0  0  0  0  0  0  0  0  0  0  0
   21.2533   17.6540   22.9253 H   0  0  0  0  0  0  0  0  0  0  0  0
   20.6047   19.5578   22.1290 C   0  0  0  0  0  0  0  0  0  0  0  0
   21.0750   20.1248   22.9440 H   0  0  0  0  0  0  0  0  0  0  0  0
   21.3507   19.5067   21.3241 H   0  0  0  0  0  0  0  0  0  0  0  0
   19.3642   20.3410   21.6271 C   0  0  0  0  0  0  0  0  0  0  0  0
   19.6827   21.3481   21.3246 H   0  0  0  0  0  0  0  0  0  0  0  0
   18.6596   20.4824   22.4573 H   0  0  0  0  0  0  0  0  0  0  0  0
   18.6221   19.6750   20.4364 C   0  0  0  0  0  0  0  0  0  0  0  0
   18.2239   18.6965   20.7281 H   0  0  0  0  0  0  0  0  0  0  0  0
   17.7589   20.2902   20.1568 H   0  0  0  0  0  0  0  0  0  0  0  0
   19.4801   19.5011   19.1866 C   0  0  0  0  0  0  0  0  0  0  0  0
   19.8334   18.3789   18.8816 O   0  5  0  0  0  0  0  0  0  0  0  0
   19.7580   20.4925   18.5406 O   0  0  0  0  0  0  0  0  0  0  0  0
  1  2  1  0  0  0  0
  1  3  1  0  0  0  0
  1  4  2  0  0  0  0
  4  5  1  0  0  0  0
  4  6  1  0  0  0  0
  6  7  1  0  0  0  0
  6  8  1  0  0  0  0
  6  9  1  0  0  0  0
  9 10  1  0  0  0  0
  9 11  1  0  0  0  0
  9 12  1  0  0  0  0
 12 13  1  0  0  0  0
 12 14  1  0  0  0  0
 12 15  1  0  0  0  0
 15 16  1  0  0  0  0
 15 17  1  0  0  0  0
 15 18  1  0  0  0  0
 18 19  1  0  0  0  0
 18 20  2  0  0  0  0
M  END
> <VConfSearch Rank>
211

> <Conf_Id>
86

> <Delta U+W>
1.248

> <U+W>
-50.498

> <U>
10.404

> <W>
-60.901

> <W(PB)>
-63.061

> <W(SA)>
2.159

> <Valence>
10.021

> <Coulomb>
0.094

> <VdW>
0.289

> <VdW6>
-8.409

> <VdW12>
8.698

> <Bond>
0.179

> <Angle>
2.939

> <Pdih>
6.902

> <Idih>
0.001

> <Tether>
0.000

$$$$
VeraChem MOL file


 20 19  0  0  0  0  0  0  0  0999 V2000     
   18.4577   16.8928   20.2142 C   0  0  0  0  0  0  0  0  0  0  0  0
   17.4766   16.4412   20.0782 H   0  0  0  0  0  0  0  0  0  0  0  0
   18.9113   17.3759   19.3503 H   0  0  0  0  0  0  0  0  0  0  0  0
   19.0761   16.8568   21.3976 C   0  0  0  0  0  0  0  0  0  0  0  0
   18.6038   16.3702   22.2505 H   0  0  0  0  0  0  0  0  0  0  0  0
   20.4383   17.4620   21.6629 C   0  0  0  0  0  0  0  0  0  0  0  0
   20.9253   17.7472   20.7205 H   0  0  0  0  0  0  0  0  0  0  0  0
   21.0829   16.7042   22.1276 H   0  0  0  0  0  0  0  0  0  0  0  0
   20.3622   18.6912   22.5964 C   0  0  0  0  0  0  0  0  0  0  0  0
   19.8718   18.4078   23.5377 H   0  0  0  0  0  0  0  0  0  0  0  0
   21.3840   18.9998   22.8566 H   0  0  0  0  0  0  0  0  0  0  0  0
   19.6142   19.8833   21.9539 C   0  0  0  0  0  0  0  0  0  0  0  0
   18.5903   19.5783   21.6994 H   0  0  0  0  0  0  0  0  0  0  0  0
   20.1028   20.1640   21.0105 H   0  0  0  0  0  0  0  0  0  0  0  0
   19.5491   21.1199   22.8875 C   0  0  0  0  0  0  0  0  0  0  0  0
   18.9076   21.8860   22.4363 H   0  0  0  0  0  0  0  0  0  0  0  0
   19.0917   20.8470   23.8462 H   0  0  0  0  0  0  0  0  0  0  0  0
   20.9055   21.7636   23.1603 C   0  0  0  0  0  0  0  0  0  0  0  0
   21.4007   22.4478   22.2864 O   0  5  0  0  0  0  0  0  0  0  0  0
   21.4259   21.5740   24.2422 O   0  0  0  0  0  0  0  0  0  0  0  0
  1  2  1  0  0  0  0
  1  3  1  0  0  0  0
  1  4  2  0  0  0  0
  4  5  1  0  0  0  0
  4  6  1  0  0  0  0
  6  7  1  0  0  0  0
  6  8  1  0  0  0  0
  6  9  1  0  0  0  0
  9 10  1  0  0  0  0
  9 11  1  0  0  0  0
  9 12  1  0  0  0  0
 12 13  1  0  0  0  0
 12 14  1  0  0  0  0
 12 15  1  0  0  0  0
 15 16  1  0  0  0  0
 15 17  1  0  0  0  0
 15 18  1  0  0  0  0
 18 19  1  0  0  0  0
 18 20  2  0  0  0  0
M  END
> <VConfSearch Rank>
212

> <Conf_Id>
28

> <Delta U+W>
0.446

> <U+W>
-51.299

> <U>
9.295

> <W>
-60.594

> <W(PB)>
-62.806

> <W(SA)>
2.212

> <Valence>
9.495

> <Coulomb>
-0.610

> <VdW>
0.409

> <VdW6>
-7.332

> <VdW12>
7.741

> <Bond>
0.126

> <Angle>
2.497

> <Pdih>
6.872

> <Idih>
0.000

> <Tether>
0.000

$$$$
VeraChem MOL file


 20 19  0  0  0  0  0  0  0  0999 V2000     
   16.7871   18.4261   22.2721 C   0  0  0  0  0  0  0  0  0  0  0  0
   16.8393   19.5000   22.4381 H   0  0  0  0  0  0  0  0  0  0  0  0
   15.7951   17.9963   22.1448 H   0  0  0  0  0  0  0  0  0  0  0  0
   17.8783   17.6537   22.2197 C   0  0  0  0  0  0  0  0  0  0  0  0
   17.7622   16.5839   22.0480 H   0  0  0  0  0  0  0  0  0  0  0  0
   19.3204   18.1054   22.3797 C   0  0  0  0  0  0  0  0  0  0  0  0
   19.8578   17.8840   21.4486 H   0  0  0  0  0  0  0  0  0  0  0  0
   19.7971   17.4902   23.1543 H   0  0  0  0  0  0  0  0  0  0  0  0
   19.5003   19.6003   22.7424 C   0  0  0  0  0  0  0  0  0  0  0  0
   19.1057   20.2271   21.9309 H   0  0  0  0  0  0  0  0  0  0  0  0
   18.9007   19.8265   23.6346 H   0  0  0  0  0  0  0  0  0  0  0  0
   20.9699   19.9922   23.0350 C   0  0  0  0  0  0  0  0  0  0  0  0
   21.3419   19.3970   23.8799 H   0  0  0  0  0  0  0  0  0  0  0  0
   20.9970   21.0407   23.3627 H   0  0  0  0  0  0  0  0  0  0  0  0
   21.9345   19.8230   21.8293 C   0  0  0  0  0  0  0  0  0  0  0  0
   22.9475   20.1121   22.1324 H   0  0  0  0  0  0  0  0  0  0  0  0
   21.9911   18.7725   21.5228 H   0  0  0  0  0  0  0  0  0  0  0  0
   21.5672   20.6685   20.6131 C   0  0  0  0  0  0  0  0  0  0  0  0
   21.7217   21.8720   20.6846 O   0  5  0  0  0  0  0  0  0  0  0  0
   21.1568   20.1009   19.6199 O   0  0  0  0  0  0  0  0  0  0  0  0
  1  2  1  0  0  0  0
  1  3  1  0  0  0  0
  1  4  2  0  0  0  0
  4  5  1  0  0  0  0
  4  6  1  0  0  0  0
  6  7  1  0  0  0  0
  6  8  1  0  0  0  0
  6  9  1  0  0  0  0
  9 10  1  0  0  0  0
  9 11  1  0  0  0  0
  9 12  1  0  0  0  0
 12 13  1  0  0  0  0
 12 14  1  0  0  0  0
 12 15  1  0  0  0  0
 15 16  1  0  0  0  0
 15 17  1  0  0  0  0
 15 18  1  0  0  0  0
 18 19  1  0  0  0  0
 18 20  2  0  0  0  0
M  END
> <VConfSearch Rank>
213

> <Conf_Id>
53

> <Delta U+W>
0.549

> <U+W>
-51.197

> <U>
10.870

> <W>
-62.067

> <W(PB)>
-64.228

> <W(SA)>
2.161

> <Valence>
8.803

> <Coulomb>
1.020

> <VdW>
1.048

> <VdW6>
-8.312

> <VdW12>
9.360

> <Bond>
0.212

> <Angle>
3.379

> <Pdih>
5.211

> <Idih>
0.001

> <Tether>
0.000

$$$$
VeraChem MOL file


 20 19  0  0  0  0  0  0  0  0999 V2000     
   21.5282   20.0609   23.8241 C   0  0  0  0  0  0  0  0  0  0  0  0
   20.6809   19.9193   24.4914 H   0  0  0  0  0  0  0  0  0  0  0  0
   22.1991   20.8889   24.0460 H   0  0  0  0  0  0  0  0  0  0  0  0
   21.7524   19.2586   22.7778 C   0  0  0  0  0  0  0  0  0  0  0  0
   22.6180   19.4427   22.1421 H   0  0  0  0  0  0  0  0  0  0  0  0
   20.8998   18.0756   22.3494 C   0  0  0  0  0  0  0  0  0  0  0  0
   21.3630   17.1537   22.7249 H   0  0  0  0  0  0  0  0  0  0  0  0
   20.9405   17.9832   21.2565 H   0  0  0  0  0  0  0  0  0  0  0  0
   19.4137   18.1163   22.7919 C   0  0  0  0  0  0  0  0  0  0  0  0
   18.9321   17.1777   22.4853 H   0  0  0  0  0  0  0  0  0  0  0  0
   19.3596   18.1305   23.8883 H   0  0  0  0  0  0  0  0  0  0  0  0
   18.5985   19.3072   22.2228 C   0  0  0  0  0  0  0  0  0  0  0  0
   19.0257   20.2523   22.5816 H   0  0  0  0  0  0  0  0  0  0  0  0
   17.5786   19.2608   22.6286 H   0  0  0  0  0  0  0  0  0  0  0  0
   18.5150   19.3486   20.6725 C   0  0  0  0  0  0  0  0  0  0  0  0
   17.9273   20.2211   20.3643 H   0  0  0  0  0  0  0  0  0  0  0  0
   19.5119   19.4774   20.2359 H   0  0  0  0  0  0  0  0  0  0  0  0
   17.8622   18.1182   20.0493 C   0  0  0  0  0  0  0  0  0  0  0  0
   18.5680   17.3353   19.4442 O   0  5  0  0  0  0  0  0  0  0  0  0
   16.6601   17.9846   20.1706 O   0  0  0  0  0  0  0  0  0  0  0  0
  1  2  1  0  0  0  0
  1  3  1  0  0  0  0
  1  4  2  0  0  0  0
  4  5  1  0  0  0  0
  4  6  1  0  0  0  0
  6  7  1  0  0  0  0
  6  8  1  0  0  0  0
  6  9  1  0  0  0  0
  9 10  1  0  0  0  0
  9 11  1  0  0  0  0
  9 12  1  0  0  0  0
 12 13  1  0  0  0  0
 12 14  1  0  0  0  0
 12 15  1  0  0  0  0
 15 16  1  0  0  0  0
 15 17  1  0  0  0  0
 15 18  1  0  0  0  0
 18 19  1  0  0  0  0
 18 20  2  0  0  0  0
M  END
> <VConfSearch Rank>
214

> <Conf_Id>
66

> <Delta U+W>
1.737

> <U+W>
-50.008

> <U>
11.091

> <W>
-61.099

> <W(PB)>
-63.213

> <W(SA)>
2.114

> <Valence>
9.664

> <Coulomb>
0.658

> <VdW>
0.769

> <VdW6>
-9.171

> <VdW12>
9.940

> <Bond>
0.244

> <Angle>
3.658

> <Pdih>
5.762

> <Idih>
0.001

> <Tether>
0.000

$$$$
VeraChem MOL file


 20 19  0  0  0  0  0  0  0  0999 V2000     
   22.2163   19.2956   22.5079 C   0  0  0  0  0  0  0  0  0  0  0  0
   21.7819   19.9869   23.2266 H   0  0  0  0  0  0  0  0  0  0  0  0
   23.1062   18.7525   22.8211 H   0  0  0  0  0  0  0  0  0  0  0  0
   21.6965   19.1139   21.2890 C   0  0  0  0  0  0  0  0  0  0  0  0
   22.1739   18.4103   20.6076 H   0  0  0  0  0  0  0  0  0  0  0  0
   20.4619   19.7952   20.7214 C   0  0  0  0  0  0  0  0  0  0  0  0
   19.9408   19.0921   20.0597 H   0  0  0  0  0  0  0  0  0  0  0  0
   20.7846   20.6127   20.0633 H   0  0  0  0  0  0  0  0  0  0  0  0
   19.4535   20.3486   21.7623 C   0  0  0  0  0  0  0  0  0  0  0  0
   19.9531   21.0966   22.3918 H   0  0  0  0  0  0  0  0  0  0  0  0
   18.6609   20.8916   21.2299 H   0  0  0  0  0  0  0  0  0  0  0  0
   18.7978   19.2724   22.6648 C   0  0  0  0  0  0  0  0  0  0  0  0
   18.1732   19.7777   23.4142 H   0  0  0  0  0  0  0  0  0  0  0  0
   19.5679   18.7259   23.2251 H   0  0  0  0  0  0  0  0  0  0  0  0
   17.9175   18.2618   21.8846 C   0  0  0  0  0  0  0  0  0  0  0  0
   17.1744   18.7943   21.2793 H   0  0  0  0  0  0  0  0  0  0  0  0
   18.5311   17.6661   21.1993 H   0  0  0  0  0  0  0  0  0  0  0  0
   17.1748   17.2962   22.8012 C   0  0  0  0  0  0  0  0  0  0  0  0
   17.7086   16.2401   23.0778 O   0  5  0  0  0  0  0  0  0  0  0  0
   16.0871   17.6319   23.2267 O   0  0  0  0  0  0  0  0  0  0  0  0
  1  2  1  0  0  0  0
  1  3  1  0  0  0  0
  1  4  2  0  0  0  0
  4  5  1  0  0  0  0
  4  6  1  0  0  0  0
  6  7  1  0  0  0  0
  6  8  1  0  0  0  0
  6  9  1  0  0  0  0
  9 10  1  0  0  0  0
  9 11  1  0  0  0  0
  9 12  1  0  0  0  0
 12 13  1  0  0  0  0
 12 14  1  0  0  0  0
 12 15  1  0  0  0  0
 15 16  1  0  0  0  0
 15 17  1  0  0  0  0
 15 18  1  0  0  0  0
 18 19  1  0  0  0  0
 18 20  2  0  0  0  0
M  END
> <VConfSearch Rank>
215

> <Conf_Id>
64

> <Delta U+W>
0.366

> <U+W>
-51.379

> <U>
10.000

> <W>
-61.379

> <W(PB)>
-63.541

> <W(SA)>
2.162

> <Valence>
9.398

> <Coulomb>
-0.504

> <VdW>
1.105

> <VdW6>
-7.975

> <VdW12>
9.080

> <Bond>
0.216

> <Angle>
3.417

> <Pdih>
5.765

> <Idih>
0.001

> <Tether>
0.000

$$$$
VeraChem MOL file


 20 19  0  0  0  0  0  0  0  0999 V2000     
   16.9551   19.3973   22.0848 C   0  0  0  0  0  0  0  0  0  0  0  0
   16.8952   18.3390   22.3336 H   0  0  0  0  0  0  0  0  0  0  0  0
   16.2132   19.7922   21.3928 H   0  0  0  0  0  0  0  0  0  0  0  0
   17.9028   20.1829   22.6031 C   0  0  0  0  0  0  0  0  0  0  0  0
   17.9466   21.2393   22.3392 H   0  0  0  0  0  0  0  0  0  0  0  0
   18.9666   19.7064   23.5692 C   0  0  0  0  0  0  0  0  0  0  0  0
   18.7316   18.6982   23.9365 H   0  0  0  0  0  0  0  0  0  0  0  0
   18.9720   20.3631   24.4493 H   0  0  0  0  0  0  0  0  0  0  0  0
   20.3763   19.7094   22.9362 C   0  0  0  0  0  0  0  0  0  0  0  0
   20.6109   20.7177   22.5683 H   0  0  0  0  0  0  0  0  0  0  0  0
   21.1155   19.4790   23.7157 H   0  0  0  0  0  0  0  0  0  0  0  0
   20.5157   18.6864   21.7857 C   0  0  0  0  0  0  0  0  0  0  0  0
   19.7991   18.9221   20.9868 H   0  0  0  0  0  0  0  0  0  0  0  0
   20.2641   17.6814   22.1517 H   0  0  0  0  0  0  0  0  0  0  0  0
   21.9476   18.6734   21.1963 C   0  0  0  0  0  0  0  0  0  0  0  0
   22.2087   19.6679   20.8151 H   0  0  0  0  0  0  0  0  0  0  0  0
   22.6764   18.4232   21.9765 H   0  0  0  0  0  0  0  0  0  0  0  0
   22.1102   17.6718   20.0586 C   0  0  0  0  0  0  0  0  0  0  0  0
   22.4251   16.5320   20.3388 O   0  5  0  0  0  0  0  0  0  0  0  0
   21.9043   18.0539   18.9236 O   0  0  0  0  0  0  0  0  0  0  0  0
  1  2  1  0  0  0  0
  1  3  1  0  0  0  0
  1  4  2  0  0  0  0
  4  5  1  0  0  0  0
  4  6  1  0  0  0  0
  6  7  1  0  0  0  0
  6  8  1  0  0  0  0
  6  9  1  0  0  0  0
  9 10  1  0  0  0  0
  9 11  1  0  0  0  0
  9 12  1  0  0  0  0
 12 13  1  0  0  0  0
 12 14  1  0  0  0  0
 12 15  1  0  0  0  0
 15 16  1  0  0  0  0
 15 17  1  0  0  0  0
 15 18  1  0  0  0  0
 18 19  1  0  0  0  0
 18 20  2  0  0  0  0
M  END
> <VConfSearch Rank>
216

> <Conf_Id>
42

> <Delta U+W>
-0.601

> <U+W>
-52.347

> <U>
8.428

> <W>
-60.774

> <W(PB)>
-62.982

> <W(SA)>
2.208

> <Valence>
9.231

> <Coulomb>
-1.304

> <VdW>
0.501

> <VdW6>
-6.515

> <VdW12>
7.016

> <Bond>
0.103

> <Angle>
2.328

> <Pdih>
6.799

> <Idih>
0.000

> <Tether>
0.000

$$$$
VeraChem MOL file


 20 19  0  0  0  0  0  0  0  0999 V2000     
   21.4523   19.5555   24.4864 C   0  0  0  0  0  0  0  0  0  0  0  0
   21.2089   18.5738   24.8895 H   0  0  0  0  0  0  0  0  0  0  0  0
   21.5850   20.3699   25.1964 H   0  0  0  0  0  0  0  0  0  0  0  0
   21.5798   19.7576   23.1723 C   0  0  0  0  0  0  0  0  0  0  0  0
   21.8210   20.7488   22.7892 H   0  0  0  0  0  0  0  0  0  0  0  0
   21.4088   18.6769   22.1261 C   0  0  0  0  0  0  0  0  0  0  0  0
   21.3640   17.6858   22.5975 H   0  0  0  0  0  0  0  0  0  0  0  0
   22.2902   18.6687   21.4712 H   0  0  0  0  0  0  0  0  0  0  0  0
   20.1473   18.8945   21.2606 C   0  0  0  0  0  0  0  0  0  0  0  0
   20.1974   19.8836   20.7846 H   0  0  0  0  0  0  0  0  0  0  0  0
   20.1423   18.1560   20.4474 H   0  0  0  0  0  0  0  0  0  0  0  0
   18.8369   18.7654   22.0727 C   0  0  0  0  0  0  0  0  0  0  0  0
   18.8094   19.5267   22.8645 H   0  0  0  0  0  0  0  0  0  0  0  0
   18.8169   17.7885   22.5741 H   0  0  0  0  0  0  0  0  0  0  0  0
   17.5711   18.9041   21.1875 C   0  0  0  0  0  0  0  0  0  0  0  0
   17.5929   18.1665   20.3762 H   0  0  0  0  0  0  0  0  0  0  0  0
   16.6792   18.6895   21.7878 H   0  0  0  0  0  0  0  0  0  0  0  0
   17.3897   20.2918   20.5790 C   0  0  0  0  0  0  0  0  0  0  0  0
   17.6672   20.4469   19.4060 O   0  5  0  0  0  0  0  0  0  0  0  0
   16.9577   21.1771   21.2908 O   0  0  0  0  0  0  0  0  0  0  0  0
  1  2  1  0  0  0  0
  1  3  1  0  0  0  0
  1  4  2  0  0  0  0
  4  5  1  0  0  0  0
  4  6  1  0  0  0  0
  6  7  1  0  0  0  0
  6  8  1  0  0  0  0
  6  9  1  0  0  0  0
  9 10  1  0  0  0  0
  9 11  1  0  0  0  0
  9 12  1  0  0  0  0
 12 13  1  0  0  0  0
 12 14  1  0  0  0  0
 12 15  1  0  0  0  0
 15 16  1  0  0  0  0
 15 17  1  0  0  0  0
 15 18  1  0  0  0  0
 18 19  1  0  0  0  0
 18 20  2  0  0  0  0
M  END
> <VConfSearch Rank>
217

> <Conf_Id>
68

> <Delta U+W>
0.492

> <U+W>
-51.253

> <U>
10.179

> <W>
-61.432

> <W(PB)>
-63.627

> <W(SA)>
2.195

> <Valence>
9.483

> <Coulomb>
0.361

> <VdW>
0.335

> <VdW6>
-7.385

> <VdW12>
7.720

> <Bond>
0.125

> <Angle>
2.487

> <Pdih>
6.870

> <Idih>
0.001

> <Tether>
0.000

$$$$
VeraChem MOL file


 20 19  0  0  0  0  0  0  0  0999 V2000     
   18.5875   17.6648   24.6536 C   0  0  0  0  0  0  0  0  0  0  0  0
   17.7621   17.0830   24.2465 H   0  0  0  0  0  0  0  0  0  0  0  0
   18.5043   17.9978   25.6867 H   0  0  0  0  0  0  0  0  0  0  0  0
   19.6605   17.9634   23.9165 C   0  0  0  0  0  0  0  0  0  0  0  0
   20.4766   18.5447   24.3446 H   0  0  0  0  0  0  0  0  0  0  0  0
   19.8478   17.5305   22.4781 C   0  0  0  0  0  0  0  0  0  0  0  0
   19.1770   16.6901   22.2537 H   0  0  0  0  0  0  0  0  0  0  0  0
   20.8695   17.1560   22.3302 H   0  0  0  0  0  0  0  0  0  0  0  0
   19.5612   18.6732   21.4779 C   0  0  0  0  0  0  0  0  0  0  0  0
   19.5857   18.2657   20.4581 H   0  0  0  0  0  0  0  0  0  0  0  0
   18.5418   19.0503   21.6396 H   0  0  0  0  0  0  0  0  0  0  0  0
   20.5772   19.8351   21.5849 C   0  0  0  0  0  0  0  0  0  0  0  0
   21.5949   19.4382   21.4709 H   0  0  0  0  0  0  0  0  0  0  0  0
   20.5246   20.2904   22.5833 H   0  0  0  0  0  0  0  0  0  0  0  0
   20.3417   20.9316   20.5139 C   0  0  0  0  0  0  0  0  0  0  0  0
   21.1530   21.6676   20.5587 H   0  0  0  0  0  0  0  0  0  0  0  0
   20.3668   20.4923   19.5093 H   0  0  0  0  0  0  0  0  0  0  0  0
   19.0276   21.6892   20.6812 C   0  0  0  0  0  0  0  0  0  0  0  0
   18.9661   22.5451   21.5418 O   0  5  0  0  0  0  0  0  0  0  0  0
   18.1075   21.4179   19.9349 O   0  0  0  0  0  0  0  0  0  0  0  0
  1  2  1  0  0  0  0
  1  3  1  0  0  0  0
  1  4  2  0  0  0  0
  4  5  1  0  0  0  0
  4  6  1  0  0  0  0
  6  7  1  0  0  0  0
  6  8  1  0  0  0  0
  6  9  1  0  0  0  0
  9 10  1  0  0  0  0
  9 11  1  0  0  0  0
  9 12  1  0  0  0  0
 12 13  1  0  0  0  0
 12 14  1  0  0  0  0
 12 15  1  0  0  0  0
 15 16  1  0  0  0  0
 15 17  1  0  0  0  0
 15 18  1  0  0  0  0
 18 19  1  0  0  0  0
 18 20  2  0  0  0  0
M  END
> <VConfSearch Rank>
218

> <Conf_Id>
87

> <Delta U+W>
0.339

> <U+W>
-51.407

> <U>
10.461

> <W>
-61.867

> <W(PB)>
-64.045

> <W(SA)>
2.178

> <Valence>
9.555

> <Coulomb>
0.483

> <VdW>
0.423

> <VdW6>
-7.223

> <VdW12>
7.646

> <Bond>
0.126

> <Angle>
2.492

> <Pdih>
6.936

> <Idih>
0.001

> <Tether>
0.000

$$$$
VeraChem MOL file


 20 19  0  0  0  0  0  0  0  0999 V2000     
   20.0449   19.4319   19.2076 C   0  0  0  0  0  0  0  0  0  0  0  0
   20.1207   18.4327   18.7818 H   0  0  0  0  0  0  0  0  0  0  0  0
   19.5734   20.2023   18.6000 H   0  0  0  0  0  0  0  0  0  0  0  0
   20.5099   19.7038   20.4297 C   0  0  0  0  0  0  0  0  0  0  0  0
   20.4330   20.7121   20.8350 H   0  0  0  0  0  0  0  0  0  0  0  0
   21.1869   18.6862   21.3229 C   0  0  0  0  0  0  0  0  0  0  0  0
   21.7789   19.1932   22.0966 H   0  0  0  0  0  0  0  0  0  0  0  0
   21.9087   18.1194   20.7195 H   0  0  0  0  0  0  0  0  0  0  0  0
   20.2030   17.6857   21.9788 C   0  0  0  0  0  0  0  0  0  0  0  0
   19.4867   17.3185   21.2312 H   0  0  0  0  0  0  0  0  0  0  0  0
   20.7796   16.8076   22.3000 H   0  0  0  0  0  0  0  0  0  0  0  0
   19.4475   18.2304   23.2172 C   0  0  0  0  0  0  0  0  0  0  0  0
   20.1665   18.6094   23.9565 H   0  0  0  0  0  0  0  0  0  0  0  0
   18.9254   17.3917   23.6984 H   0  0  0  0  0  0  0  0  0  0  0  0
   18.4061   19.3324   22.8944 C   0  0  0  0  0  0  0  0  0  0  0  0
   18.9047   20.2441   22.5504 H   0  0  0  0  0  0  0  0  0  0  0  0
   17.7389   19.0005   22.0901 H   0  0  0  0  0  0  0  0  0  0  0  0
   17.5490   19.7049   24.0986 C   0  0  0  0  0  0  0  0  0  0  0  0
   17.9516   20.5779   24.8420 O   0  5  0  0  0  0  0  0  0  0  0  0
   16.5109   19.0978   24.2739 O   0  0  0  0  0  0  0  0  0  0  0  0
  1  2  1  0  0  0  0
  1  3  1  0  0  0  0
  1  4  2  0  0  0  0
  4  5  1  0  0  0  0
  4  6  1  0  0  0  0
  6  7  1  0  0  0  0
  6  8  1  0  0  0  0
  6  9  1  0  0  0  0
  9 10  1  0  0  0  0
  9 11  1  0  0  0  0
  9 12  1  0  0  0  0
 12 13  1  0  0  0  0
 12 14  1  0  0  0  0
 12 15  1  0  0  0  0
 15 16  1  0  0  0  0
 15 17  1  0  0  0  0
 15 18  1  0  0  0  0
 18 19  1  0  0  0  0
 18 20  2  0  0  0  0
M  END
> <VConfSearch Rank>
219

> <Conf_Id>
51

> <Delta U+W>
1.709

> <U+W>
-50.036

> <U>
10.643

> <W>
-60.679

> <W(PB)>
-62.882

> <W(SA)>
2.203

> <Valence>
11.231

> <Coulomb>
-1.077

> <VdW>
0.489

> <VdW6>
-7.546

> <VdW12>
8.035

> <Bond>
0.159

> <Angle>
3.005

> <Pdih>
8.065

> <Idih>
0.002

> <Tether>
0.000

$$$$
VeraChem MOL file


 20 19  0  0  0  0  0  0  0  0999 V2000     
   17.5834   19.0665   19.9809 C   0  0  0  0  0  0  0  0  0  0  0  0
   16.8699   19.8040   20.3445 H   0  0  0  0  0  0  0  0  0  0  0  0
   17.1847   18.1875   19.4774 H   0  0  0  0  0  0  0  0  0  0  0  0
   18.8984   19.2304   20.1474 C   0  0  0  0  0  0  0  0  0  0  0  0
   19.5972   18.4855   19.7686 H   0  0  0  0  0  0  0  0  0  0  0  0
   19.5219   20.4317   20.8256 C   0  0  0  0  0  0  0  0  0  0  0  0
   19.0350   21.3388   20.4426 H   0  0  0  0  0  0  0  0  0  0  0  0
   20.5798   20.5205   20.5448 H   0  0  0  0  0  0  0  0  0  0  0  0
   19.3824   20.4140   22.3681 C   0  0  0  0  0  0  0  0  0  0  0  0
   19.5302   21.4400   22.7316 H   0  0  0  0  0  0  0  0  0  0  0  0
   18.3565   20.1397   22.6495 H   0  0  0  0  0  0  0  0  0  0  0  0
   20.3976   19.5040   23.1046 C   0  0  0  0  0  0  0  0  0  0  0  0
   20.3245   19.7080   24.1819 H   0  0  0  0  0  0  0  0  0  0  0  0
   21.4216   19.7718   22.8101 H   0  0  0  0  0  0  0  0  0  0  0  0
   20.1733   17.9867   22.8794 C   0  0  0  0  0  0  0  0  0  0  0  0
   19.1281   17.7233   23.0808 H   0  0  0  0  0  0  0  0  0  0  0  0
   20.3841   17.7166   21.8398 H   0  0  0  0  0  0  0  0  0  0  0  0
   21.0602   17.1212   23.7670 C   0  0  0  0  0  0  0  0  0  0  0  0
   22.1633   16.8190   23.3562 O   0  5  0  0  0  0  0  0  0  0  0  0
   20.6330   16.7886   24.8550 O   0  0  0  0  0  0  0  0  0  0  0  0
  1  2  1  0  0  0  0
  1  3  1  0  0  0  0
  1  4  2  0  0  0  0
  4  5  1  0  0  0  0
  4  6  1  0  0  0  0
  6  7  1  0  0  0  0
  6  8  1  0  0  0  0
  6  9  1  0  0  0  0
  9 10  1  0  0  0  0
  9 11  1  0  0  0  0
  9 12  1  0  0  0  0
 12 13  1  0  0  0  0
 12 14  1  0  0  0  0
 12 15  1  0  0  0  0
 15 16  1  0  0  0  0
 15 17  1  0  0  0  0
 15 18  1  0  0  0  0
 18 19  1  0  0  0  0
 18 20  2  0  0  0  0
M  END
> <VConfSearch Rank>
220

> <Conf_Id>
91

> <Delta U+W>
1.604

> <U+W>
-50.141

> <U>
10.644

> <W>
-60.786

> <W(PB)>
-62.965

> <W(SA)>
2.179

> <Valence>
11.230

> <Coulomb>
-1.075

> <VdW>
0.489

> <VdW6>
-7.547

> <VdW12>
8.036

> <Bond>
0.159

> <Angle>
3.006

> <Pdih>
8.064

> <Idih>
0.002

> <Tether>
0.000

$$$$
VeraChem MOL file


 20 19  0  0  0  0  0  0  0  0999 V2000     
   22.2398   17.1304   23.9200 C   0  0  0  0  0  0  0  0  0  0  0  0
   21.4237   16.8655   24.5903 H   0  0  0  0  0  0  0  0  0  0  0  0
   23.2533   17.0558   24.3107 H   0  0  0  0  0  0  0  0  0  0  0  0
   22.0110   17.5340   22.6676 C   0  0  0  0  0  0  0  0  0  0  0  0
   22.8421   17.7952   22.0130 H   0  0  0  0  0  0  0  0  0  0  0  0
   20.6334   17.6610   22.0563 C   0  0  0  0  0  0  0  0  0  0  0  0
   19.8921   17.1401   22.6775 H   0  0  0  0  0  0  0  0  0  0  0  0
   20.6211   17.1719   21.0730 H   0  0  0  0  0  0  0  0  0  0  0  0
   20.2262   19.1414   21.9031 C   0  0  0  0  0  0  0  0  0  0  0  0
   20.2441   19.6269   22.8887 H   0  0  0  0  0  0  0  0  0  0  0  0
   20.9654   19.6609   21.2779 H   0  0  0  0  0  0  0  0  0  0  0  0
   18.8221   19.2895   21.2772 C   0  0  0  0  0  0  0  0  0  0  0  0
   18.0821   18.7705   21.9022 H   0  0  0  0  0  0  0  0  0  0  0  0
   18.8032   18.8030   20.2920 H   0  0  0  0  0  0  0  0  0  0  0  0
   18.4127   20.7785   21.1240 C   0  0  0  0  0  0  0  0  0  0  0  0
   18.4232   21.2687   22.1046 H   0  0  0  0  0  0  0  0  0  0  0  0
   19.1436   21.3013   20.4959 H   0  0  0  0  0  0  0  0  0  0  0  0
   17.0318   21.0157   20.5105 C   0  0  0  0  0  0  0  0  0  0  0  0
   16.6768   22.1695   20.3733 O   0  5  0  0  0  0  0  0  0  0  0  0
   16.3454   20.0661   20.1854 O   0  0  0  0  0  0  0  0  0  0  0  0
  1  2  1  0  0  0  0
  1  3  1  0  0  0  0
  1  4  2  0  0  0  0
  4  5  1  0  0  0  0
  4  6  1  0  0  0  0
  6  7  1  0  0  0  0
  6  8  1  0  0  0  0
  6  9  1  0  0  0  0
  9 10  1  0  0  0  0
  9 11  1  0  0  0  0
  9 12  1  0  0  0  0
 12 13  1  0  0  0  0
 12 14  1  0  0  0  0
 12 15  1  0  0  0  0
 15 16  1  0  0  0  0
 15 17  1  0  0  0  0
 15 18  1  0  0  0  0
 18 19  1  0  0  0  0
 18 20  2  0  0  0  0
M  END
> <VConfSearch Rank>
221

> <Conf_Id>
33

> <Delta U+W>
0.000

> <U+W>
-51.745

> <U>
7.593

> <W>
-59.338

> <W(PB)>
-61.574

> <W(SA)>
2.236

> <Valence>
9.570

> <Coulomb>
-3.091

> <VdW>
1.114

> <VdW6>
-6.064

> <VdW12>
7.178

> <Bond>
0.117

> <Angle>
2.692

> <Pdih>
6.761

> <Idih>
0.000

> <Tether>
0.000

$$$$
VeraChem MOL file


 20 19  0  0  0  0  0  0  0  0999 V2000     
   17.0766   16.5995   21.3478 C   0  0  0  0  0  0  0  0  0  0  0  0
   16.8299   16.6367   22.4077 H   0  0  0  0  0  0  0  0  0  0  0  0
   16.6041   15.8215   20.7506 H   0  0  0  0  0  0  0  0  0  0  0  0
   17.9268   17.4707   20.7984 C   0  0  0  0  0  0  0  0  0  0  0  0
   18.1609   17.4157   19.7355 H   0  0  0  0  0  0  0  0  0  0  0  0
   18.6196   18.5766   21.5630 C   0  0  0  0  0  0  0  0  0  0  0  0
   18.1406   18.7196   22.5411 H   0  0  0  0  0  0  0  0  0  0  0  0
   18.5066   19.5196   21.0133 H   0  0  0  0  0  0  0  0  0  0  0  0
   20.1177   18.2568   21.7656 C   0  0  0  0  0  0  0  0  0  0  0  0
   20.2074   17.2703   22.2410 H   0  0  0  0  0  0  0  0  0  0  0  0
   20.6139   18.1764   20.7887 H   0  0  0  0  0  0  0  0  0  0  0  0
   20.8577   19.2957   22.6416 C   0  0  0  0  0  0  0  0  0  0  0  0
   21.8791   18.9357   22.8278 H   0  0  0  0  0  0  0  0  0  0  0  0
   20.3705   19.3676   23.6239 H   0  0  0  0  0  0  0  0  0  0  0  0
   20.9359   20.7045   21.9980 C   0  0  0  0  0  0  0  0  0  0  0  0
   21.3819   20.6398   20.9983 H   0  0  0  0  0  0  0  0  0  0  0  0
   19.9339   21.1322   21.8806 H   0  0  0  0  0  0  0  0  0  0  0  0
   21.7638   21.6836   22.8226 C   0  0  0  0  0  0  0  0  0  0  0  0
   21.1986   22.3322   23.6808 O   0  5  0  0  0  0  0  0  0  0  0  0
   22.9559   21.7574   22.5985 O   0  0  0  0  0  0  0  0  0  0  0  0
  1  2  1  0  0  0  0
  1  3  1  0  0  0  0
  1  4  2  0  0  0  0
  4  5  1  0  0  0  0
  4  6  1  0  0  0  0
  6  7  1  0  0  0  0
  6  8  1  0  0  0  0
  6  9  1  0  0  0  0
  9 10  1  0  0  0  0
  9 11  1  0  0  0  0
  9 12  1  0  0  0  0
 12 13  1  0  0  0  0
 12 14  1  0  0  0  0
 12 15  1  0  0  0  0
 15 16  1  0  0  0  0
 15 17  1  0  0  0  0
 15 18  1  0  0  0  0
 18 19  1  0  0  0  0
 18 20  2  0  0  0  0
M  END
> <VConfSearch Rank>
222

> <Conf_Id>
37

> <Delta U+W>
-0.384

> <U+W>
-52.130

> <U>
7.491

> <W>
-59.621

> <W(PB)>
-61.853

> <W(SA)>
2.232

> <Valence>
9.604

> <Coulomb>
-2.799

> <VdW>
0.686

> <VdW6>
-6.435

> <VdW12>
7.121

> <Bond>
0.124

> <Angle>
2.493

> <Pdih>
6.986

> <Idih>
0.001

> <Tether>
0.000

$$$$
VeraChem MOL file


 20 19  0  0  0  0  0  0  0  0999 V2000     
   19.2867   21.3861   19.5904 C   0  0  0  0  0  0  0  0  0  0  0  0
   19.1424   22.1602   18.8386 H   0  0  0  0  0  0  0  0  0  0  0  0
   18.3924   20.8917   19.9637 H   0  0  0  0  0  0  0  0  0  0  0  0
   20.5138   21.0727   20.0215 C   0  0  0  0  0  0  0  0  0  0  0  0
   21.3718   21.6037   19.6097 H   0  0  0  0  0  0  0  0  0  0  0  0
   20.8713   20.0222   21.0596 C   0  0  0  0  0  0  0  0  0  0  0  0
   21.4304   20.5050   21.8722 H   0  0  0  0  0  0  0  0  0  0  0  0
   21.5674   19.3026   20.6081 H   0  0  0  0  0  0  0  0  0  0  0  0
   19.6676   19.2567   21.6572 C   0  0  0  0  0  0  0  0  0  0  0  0
   18.9772   19.9692   22.1291 H   0  0  0  0  0  0  0  0  0  0  0  0
   19.1157   18.7538   20.8512 H   0  0  0  0  0  0  0  0  0  0  0  0
   20.1159   18.2104   22.7010 C   0  0  0  0  0  0  0  0  0  0  0  0
   20.6689   18.7073   23.5102 H   0  0  0  0  0  0  0  0  0  0  0  0
   20.8071   17.4944   22.2350 H   0  0  0  0  0  0  0  0  0  0  0  0
   18.9124   17.4425   23.3009 C   0  0  0  0  0  0  0  0  0  0  0  0
   18.2185   18.1421   23.7822 H   0  0  0  0  0  0  0  0  0  0  0  0
   18.3567   16.9292   22.5069 H   0  0  0  0  0  0  0  0  0  0  0  0
   19.3296   16.4028   24.3349 C   0  0  0  0  0  0  0  0  0  0  0  0
   19.4125   16.7502   25.4964 O   0  5  0  0  0  0  0  0  0  0  0  0
   19.5798   15.2782   23.9487 O   0  0  0  0  0  0  0  0  0  0  0  0
  1  2  1  0  0  0  0
  1  3  1  0  0  0  0
  1  4  2  0  0  0  0
  4  5  1  0  0  0  0
  4  6  1  0  0  0  0
  6  7  1  0  0  0  0
  6  8  1  0  0  0  0
  6  9  1  0  0  0  0
  9 10  1  0  0  0  0
  9 11  1  0  0  0  0
  9 12  1  0  0  0  0
 12 13  1  0  0  0  0
 12 14  1  0  0  0  0
 12 15  1  0  0  0  0
 15 16  1  0  0  0  0
 15 17  1  0  0  0  0
 15 18  1  0  0  0  0
 18 19  1  0  0  0  0
 18 20  2  0  0  0  0
M  END
> <VConfSearch Rank>
223

> <Conf_Id>
44

> <Delta U+W>
-1.440

> <U+W>
-53.185

> <U>
6.572

> <W>
-59.757

> <W(PB)>
-62.007

> <W(SA)>
2.249

> <Valence>
7.989

> <Coulomb>
-2.697

> <VdW>
1.281

> <VdW6>
-6.467

> <VdW12>
7.748

> <Bond>
0.136

> <Angle>
2.854

> <Pdih>
4.997

> <Idih>
0.001

> <Tether>
0.000

$$$$
VeraChem MOL file


 20 19  0  0  0  0  0  0  0  0999 V2000     
   17.6421   19.2129   19.2242 C   0  0  0  0  0  0  0  0  0  0  0  0
   16.9093   19.1234   20.0245 H   0  0  0  0  0  0  0  0  0  0  0  0
   17.2922   19.0579   18.2050 H   0  0  0  0  0  0  0  0  0  0  0  0
   18.9216   19.4990   19.4786 C   0  0  0  0  0  0  0  0  0  0  0  0
   19.6393   19.5836   18.6628 H   0  0  0  0  0  0  0  0  0  0  0  0
   19.4796   19.7284   20.8656 C   0  0  0  0  0  0  0  0  0  0  0  0
   18.6585   19.8925   21.5752 H   0  0  0  0  0  0  0  0  0  0  0  0
   20.0893   20.6417   20.8691 H   0  0  0  0  0  0  0  0  0  0  0  0
   20.3399   18.5291   21.3232 C   0  0  0  0  0  0  0  0  0  0  0  0
   19.7156   17.6262   21.3720 H   0  0  0  0  0  0  0  0  0  0  0  0
   21.1092   18.3331   20.5637 H   0  0  0  0  0  0  0  0  0  0  0  0
   21.0383   18.7540   22.6855 C   0  0  0  0  0  0  0  0  0  0  0  0
   21.6707   19.6512   22.6353 H   0  0  0  0  0  0  0  0  0  0  0  0
   21.7139   17.9091   22.8784 H   0  0  0  0  0  0  0  0  0  0  0  0
   20.0504   18.8824   23.8741 C   0  0  0  0  0  0  0  0  0  0  0  0
   19.4200   19.7712   23.7587 H   0  0  0  0  0  0  0  0  0  0  0  0
   19.3840   18.0123   23.9081 H   0  0  0  0  0  0  0  0  0  0  0  0
   20.7587   18.9884   25.2198 C   0  0  0  0  0  0  0  0  0  0  0  0
   21.0030   17.9615   25.8219 O   0  5  0  0  0  0  0  0  0  0  0  0
   21.0652   20.0936   25.6215 O   0  0  0  0  0  0  0  0  0  0  0  0
  1  2  1  0  0  0  0
  1  3  1  0  0  0  0
  1  4  2  0  0  0  0
  4  5  1  0  0  0  0
  4  6  1  0  0  0  0
  6  7  1  0  0  0  0
  6  8  1  0  0  0  0
  6  9  1  0  0  0  0
  9 10  1  0  0  0  0
  9 11  1  0  0  0  0
  9 12  1  0  0  0  0
 12 13  1  0  0  0  0
 12 14  1  0  0  0  0
 12 15  1  0  0  0  0
 15 16  1  0  0  0  0
 15 17  1  0  0  0  0
 15 18  1  0  0  0  0
 18 19  1  0  0  0  0
 18 20  2  0  0  0  0
M  END
> <VConfSearch Rank>
224

> <Conf_Id>
38

> <Delta U+W>
-0.381

> <U+W>
-52.126

> <U>
7.601

> <W>
-59.727

> <W(PB)>
-61.964

> <W(SA)>
2.236

> <Valence>
9.602

> <Coulomb>
-2.686

> <VdW>
0.685

> <VdW6>
-6.453

> <VdW12>
7.139

> <Bond>
0.125

> <Angle>
2.485

> <Pdih>
6.991

> <Idih>
0.001

> <Tether>
0.000

$$$$
VeraChem MOL file


 20 19  0  0  0  0  0  0  0  0999 V2000     
   20.7077   18.6427   25.4100 C   0  0  0  0  0  0  0  0  0  0  0  0
   21.6999   18.3023   25.1180 H   0  0  0  0  0  0  0  0  0  0  0  0
   20.5807   18.9990   26.4309 H   0  0  0  0  0  0  0  0  0  0  0  0
   19.6844   18.6276   24.5520 C   0  0  0  0  0  0  0  0  0  0  0  0
   18.6993   18.9736   24.8642 H   0  0  0  0  0  0  0  0  0  0  0  0
   19.7845   18.1471   23.1214 C   0  0  0  0  0  0  0  0  0  0  0  0
   18.9629   17.4498   22.9097 H   0  0  0  0  0  0  0  0  0  0  0  0
   20.7190   17.5893   22.9721 H   0  0  0  0  0  0  0  0  0  0  0  0
   19.7272   19.3293   22.1313 C   0  0  0  0  0  0  0  0  0  0  0  0
   18.7906   19.8840   22.2811 H   0  0  0  0  0  0  0  0  0  0  0  0
   20.5477   20.0269   22.3492 H   0  0  0  0  0  0  0  0  0  0  0  0
   19.8254   18.8551   20.6637 C   0  0  0  0  0  0  0  0  0  0  0  0
   18.9999   18.1652   20.4393 H   0  0  0  0  0  0  0  0  0  0  0  0
   20.7566   18.2887   20.5276 H   0  0  0  0  0  0  0  0  0  0  0  0
   19.8001   20.0318   19.6540 C   0  0  0  0  0  0  0  0  0  0  0  0
   20.6019   20.7444   19.8823 H   0  0  0  0  0  0  0  0  0  0  0  0
   19.9912   19.6518   18.6435 H   0  0  0  0  0  0  0  0  0  0  0  0
   18.4743   20.7865   19.6145 C   0  0  0  0  0  0  0  0  0  0  0  0
   18.4179   21.8796   20.1426 O   0  5  0  0  0  0  0  0  0  0  0  0
   17.5354   20.2647   19.0459 O   0  0  0  0  0  0  0  0  0  0  0  0
  1  2  1  0  0  0  0
  1  3  1  0  0  0  0
  1  4  2  0  0  0  0
  4  5  1  0  0  0  0
  4  6  1  0  0  0  0
  6  7  1  0  0  0  0
  6  8  1  0  0  0  0
  6  9  1  0  0  0  0
  9 10  1  0  0  0  0
  9 11  1  0  0  0  0
  9 12  1  0  0  0  0
 12 13  1  0  0  0  0
 12 14  1  0  0  0  0
 12 15  1  0  0  0  0
 15 16  1  0  0  0  0
 15 17  1  0  0  0  0
 15 18  1  0  0  0  0
 18 19  1  0  0  0  0
 18 20  2  0  0  0  0
M  END
> <VConfSearch Rank>
225

> <Conf_Id>
58

> <Delta U+W>
0.019

> <U+W>
-51.727

> <U>
8.963

> <W>
-60.690

> <W(PB)>
-62.934

> <W(SA)>
2.244

> <Valence>
9.327

> <Coulomb>
-0.780

> <VdW>
0.417

> <VdW6>
-6.635

> <VdW12>
7.052

> <Bond>
0.105

> <Angle>
2.399

> <Pdih>
6.822

> <Idih>
0.000

> <Tether>
0.000

$$$$
VeraChem MOL file


 20 19  0  0  0  0  0  0  0  0999 V2000     
   21.0853   21.1990   19.3856 C   0  0  0  0  0  0  0  0  0  0  0  0
   22.0446   21.3236   19.8853 H   0  0  0  0  0  0  0  0  0  0  0  0
   20.8202   21.9277   18.6213 H   0  0  0  0  0  0  0  0  0  0  0  0
   20.2617   20.1947   19.6967 C   0  0  0  0  0  0  0  0  0  0  0  0
   19.3054   20.0884   19.1851 H   0  0  0  0  0  0  0  0  0  0  0  0
   20.5616   19.1461   20.7446 C   0  0  0  0  0  0  0  0  0  0  0  0
   21.6251   19.1751   21.0182 H   0  0  0  0  0  0  0  0  0  0  0  0
   20.3688   18.1473   20.3306 H   0  0  0  0  0  0  0  0  0  0  0  0
   19.6997   19.3575   22.0070 C   0  0  0  0  0  0  0  0  0  0  0  0
   19.8918   20.3593   22.4155 H   0  0  0  0  0  0  0  0  0  0  0  0
   18.6366   19.3258   21.7311 H   0  0  0  0  0  0  0  0  0  0  0  0
   19.9918   18.2918   23.0874 C   0  0  0  0  0  0  0  0  0  0  0  0
   21.0591   18.3205   23.3453 H   0  0  0  0  0  0  0  0  0  0  0  0
   19.7904   17.2891   22.6854 H   0  0  0  0  0  0  0  0  0  0  0  0
   19.1568   18.5054   24.3767 C   0  0  0  0  0  0  0  0  0  0  0  0
   19.4866   17.7996   25.1480 H   0  0  0  0  0  0  0  0  0  0  0  0
   19.3259   19.5132   24.7750 H   0  0  0  0  0  0  0  0  0  0  0  0
   17.6565   18.3029   24.1844 C   0  0  0  0  0  0  0  0  0  0  0  0
   17.2400   17.1650   24.0905 O   0  5  0  0  0  0  0  0  0  0  0  0
   16.9431   19.2860   24.1446 O   0  0  0  0  0  0  0  0  0  0  0  0
  1  2  1  0  0  0  0
  1  3  1  0  0  0  0
  1  4  2  0  0  0  0
  4  5  1  0  0  0  0
  4  6  1  0  0  0  0
  6  7  1  0  0  0  0
  6  8  1  0  0  0  0
  6  9  1  0  0  0  0
  9 10  1  0  0  0  0
  9 11  1  0  0  0  0
  9 12  1  0  0  0  0
 12 13  1  0  0  0  0
 12 14  1  0  0  0  0
 12 15  1  0  0  0  0
 15 16  1  0  0  0  0
 15 17  1  0  0  0  0
 15 18  1  0  0  0  0
 18 19  1  0  0  0  0
 18 20  2  0  0  0  0
M  END
> <VConfSearch Rank>
226

> <Conf_Id>
54

> <Delta U+W>
-0.048

> <U+W>
-51.793

> <U>
8.964

> <W>
-60.756

> <W(PB)>
-63.007

> <W(SA)>
2.251

> <Valence>
9.327

> <Coulomb>
-0.780

> <VdW>
0.417

> <VdW6>
-6.635

> <VdW12>
7.052

> <Bond>
0.105

> <Angle>
2.399

> <Pdih>
6.822

> <Idih>
0.000

> <Tether>
0.000

$$$$
VeraChem MOL file


 20 19  0  0  0  0  0  0  0  0999 V2000     
   20.1171   18.6319   25.3290 C   0  0  0  0  0  0  0  0  0  0  0  0
   20.6641   17.9086   25.9314 H   0  0  0  0  0  0  0  0  0  0  0  0
   20.0756   19.6575   25.6922 H   0  0  0  0  0  0  0  0  0  0  0  0
   19.5240   18.2717   24.1879 C   0  0  0  0  0  0  0  0  0  0  0  0
   19.5748   17.2390   23.8443 H   0  0  0  0  0  0  0  0  0  0  0  0
   18.7418   19.2194   23.3036 C   0  0  0  0  0  0  0  0  0  0  0  0
   18.4394   20.1019   23.8835 H   0  0  0  0  0  0  0  0  0  0  0  0
   17.8128   18.7387   22.9691 H   0  0  0  0  0  0  0  0  0  0  0  0
   19.5567   19.6889   22.0773 C   0  0  0  0  0  0  0  0  0  0  0  0
   18.9892   20.4733   21.5580 H   0  0  0  0  0  0  0  0  0  0  0  0
   20.4929   20.1530   22.4166 H   0  0  0  0  0  0  0  0  0  0  0  0
   19.8691   18.5416   21.0872 C   0  0  0  0  0  0  0  0  0  0  0  0
   18.9337   18.0678   20.7589 H   0  0  0  0  0  0  0  0  0  0  0  0
   20.4545   17.7658   21.5981 H   0  0  0  0  0  0  0  0  0  0  0  0
   20.6629   19.0258   19.8460 C   0  0  0  0  0  0  0  0  0  0  0  0
   21.5843   19.5315   20.1593 H   0  0  0  0  0  0  0  0  0  0  0  0
   20.9646   18.1607   19.2439 H   0  0  0  0  0  0  0  0  0  0  0  0
   19.8777   19.9642   18.9340 C   0  0  0  0  0  0  0  0  0  0  0  0
   20.1426   21.1500   18.9623 O   0  5  0  0  0  0  0  0  0  0  0  0
   19.0284   19.4817   18.2109 O   0  0  0  0  0  0  0  0  0  0  0  0
  1  2  1  0  0  0  0
  1  3  1  0  0  0  0
  1  4  2  0  0  0  0
  4  5  1  0  0  0  0
  4  6  1  0  0  0  0
  6  7  1  0  0  0  0
  6  8  1  0  0  0  0
  6  9  1  0  0  0  0
  9 10  1  0  0  0  0
  9 11  1  0  0  0  0
  9 12  1  0  0  0  0
 12 13  1  0  0  0  0
 12 14  1  0  0  0  0
 12 15  1  0  0  0  0
 15 16  1  0  0  0  0
 15 17  1  0  0  0  0
 15 18  1  0  0  0  0
 18 19  1  0  0  0  0
 18 20  2  0  0  0  0
M  END
> <VConfSearch Rank>
227

> <Conf_Id>
27

> <Delta U+W>
0.478

> <U+W>
-51.267

> <U>
9.192

> <W>
-60.459

> <W(PB)>
-62.649

> <W(SA)>
2.190

> <Valence>
9.572

> <Coulomb>
-0.884

> <VdW>
0.504

> <VdW6>
-7.168

> <VdW12>
7.672

> <Bond>
0.127

> <Angle>
2.504

> <Pdih>
6.941

> <Idih>
0.001

> <Tether>
0.000

$$$$
VeraChem MOL file


 20 19  0  0  0  0  0  0  0  0999 V2000     
   18.9666   19.5595   18.7427 C   0  0  0  0  0  0  0  0  0  0  0  0
   19.8853   19.9334   18.2937 H   0  0  0  0  0  0  0  0  0  0  0  0
   18.0254   19.9340   18.3439 H   0  0  0  0  0  0  0  0  0  0  0  0
   18.9891   18.6782   19.7460 C   0  0  0  0  0  0  0  0  0  0  0  0
   18.0576   18.3146   20.1789 H   0  0  0  0  0  0  0  0  0  0  0  0
   20.2572   18.1097   20.3464 C   0  0  0  0  0  0  0  0  0  0  0  0
   21.0909   18.2412   19.6434 H   0  0  0  0  0  0  0  0  0  0  0  0
   20.1482   17.0270   20.4946 H   0  0  0  0  0  0  0  0  0  0  0  0
   20.6278   18.7849   21.6860 C   0  0  0  0  0  0  0  0  0  0  0  0
   21.6173   18.4262   22.0010 H   0  0  0  0  0  0  0  0  0  0  0  0
   20.7199   19.8693   21.5347 H   0  0  0  0  0  0  0  0  0  0  0  0
   19.6034   18.4976   22.8077 C   0  0  0  0  0  0  0  0  0  0  0  0
   19.4932   17.4124   22.9400 H   0  0  0  0  0  0  0  0  0  0  0  0
   18.6164   18.8865   22.5228 H   0  0  0  0  0  0  0  0  0  0  0  0
   20.0289   19.1362   24.1528 C   0  0  0  0  0  0  0  0  0  0  0  0
   21.0062   18.7483   24.4643 H   0  0  0  0  0  0  0  0  0  0  0  0
   20.1316   20.2222   24.0402 H   0  0  0  0  0  0  0  0  0  0  0  0
   19.0336   18.8683   25.2760 C   0  0  0  0  0  0  0  0  0  0  0  0
   18.1283   19.6617   25.4418 O   0  5  0  0  0  0  0  0  0  0  0  0
   19.1798   17.8639   25.9443 O   0  0  0  0  0  0  0  0  0  0  0  0
  1  2  1  0  0  0  0
  1  3  1  0  0  0  0
  1  4  2  0  0  0  0
  4  5  1  0  0  0  0
  4  6  1  0  0  0  0
  6  7  1  0  0  0  0
  6  8  1  0  0  0  0
  6  9  1  0  0  0  0
  9 10  1  0  0  0  0
  9 11  1  0  0  0  0
  9 12  1  0  0  0  0
 12 13  1  0  0  0  0
 12 14  1  0  0  0  0
 12 15  1  0  0  0  0
 15 16  1  0  0  0  0
 15 17  1  0  0  0  0
 15 18  1  0  0  0  0
 18 19  1  0  0  0  0
 18 20  2  0  0  0  0
M  END
> <VConfSearch Rank>
228

> <Conf_Id>
41

> <Delta U+W>
-0.634

> <U+W>
-52.379

> <U>
7.828

> <W>
-60.207

> <W(PB)>
-62.449

> <W(SA)>
2.242

> <Valence>
9.300

> <Coulomb>
-2.080

> <VdW>
0.608

> <VdW6>
-6.341

> <VdW12>
6.949

> <Bond>
0.103

> <Angle>
2.334

> <Pdih>
6.862

> <Idih>
0.001

> <Tether>
0.000

$$$$
VeraChem MOL file


 20 19  0  0  0  0  0  0  0  0999 V2000     
   19.2835   16.8266   24.8463 C   0  0  0  0  0  0  0  0  0  0  0  0
   19.3586   15.8287   25.2749 H   0  0  0  0  0  0  0  0  0  0  0  0
   19.0971   17.6530   25.5303 H   0  0  0  0  0  0  0  0  0  0  0  0
   19.4176   17.0252   23.5324 C   0  0  0  0  0  0  0  0  0  0  0  0
   19.6045   16.1846   22.8645 H   0  0  0  0  0  0  0  0  0  0  0  0
   19.3248   18.3796   22.8656 C   0  0  0  0  0  0  0  0  0  0  0  0
   18.8867   19.1138   23.5551 H   0  0  0  0  0  0  0  0  0  0  0  0
   18.6502   18.3099   22.0025 H   0  0  0  0  0  0  0  0  0  0  0  0
   20.7168   18.8687   22.4070 C   0  0  0  0  0  0  0  0  0  0  0  0
   21.4039   18.8363   23.2637 H   0  0  0  0  0  0  0  0  0  0  0  0
   21.1227   18.1730   21.6597 H   0  0  0  0  0  0  0  0  0  0  0  0
   20.7096   20.3079   21.8353 C   0  0  0  0  0  0  0  0  0  0  0  0
   21.7433   20.6031   21.6076 H   0  0  0  0  0  0  0  0  0  0  0  0
   20.3548   21.0025   22.6086 H   0  0  0  0  0  0  0  0  0  0  0  0
   19.8471   20.4865   20.5560 C   0  0  0  0  0  0  0  0  0  0  0  0
   18.7932   20.2719   20.7664 H   0  0  0  0  0  0  0  0  0  0  0  0
   19.8915   21.5328   20.2317 H   0  0  0  0  0  0  0  0  0  0  0  0
   20.2952   19.6268   19.3775 C   0  0  0  0  0  0  0  0  0  0  0  0
   21.3254   19.9289   18.8076 O   0  5  0  0  0  0  0  0  0  0  0  0
   19.5946   18.6897   19.0488 O   0  0  0  0  0  0  0  0  0  0  0  0
  1  2  1  0  0  0  0
  1  3  1  0  0  0  0
  1  4  2  0  0  0  0
  4  5  1  0  0  0  0
  4  6  1  0  0  0  0
  6  7  1  0  0  0  0
  6  8  1  0  0  0  0
  6  9  1  0  0  0  0
  9 10  1  0  0  0  0
  9 11  1  0  0  0  0
  9 12  1  0  0  0  0
 12 13  1  0  0  0  0
 12 14  1  0  0  0  0
 12 15  1  0  0  0  0
 15 16  1  0  0  0  0
 15 17  1  0  0  0  0
 15 18  1  0  0  0  0
 18 19  1  0  0  0  0
 18 20  2  0  0  0  0
M  END
> <VConfSearch Rank>
229

> <Conf_Id>
84

> <Delta U+W>
0.942

> <U+W>
-50.803

> <U>
10.196

> <W>
-60.999

> <W(PB)>
-63.182

> <W(SA)>
2.182

> <Valence>
9.837

> <Coulomb>
0.032

> <VdW>
0.328

> <VdW6>
-7.642

> <VdW12>
7.969

> <Bond>
0.151

> <Angle>
2.748

> <Pdih>
6.937

> <Idih>
0.001

> <Tether>
0.000

$$$$
VeraChem MOL file


 20 19  0  0  0  0  0  0  0  0999 V2000     
   18.2537   16.3960   23.5183 C   0  0  0  0  0  0  0  0  0  0  0  0
   17.3660   15.7717   23.6048 H   0  0  0  0  0  0  0  0  0  0  0  0
   19.2044   15.8940   23.3462 H   0  0  0  0  0  0  0  0  0  0  0  0
   18.1747   17.7255   23.6175 C   0  0  0  0  0  0  0  0  0  0  0  0
   17.2130   18.2085   23.7891 H   0  0  0  0  0  0  0  0  0  0  0  0
   19.3624   18.6558   23.5089 C   0  0  0  0  0  0  0  0  0  0  0  0
   20.2990   18.0885   23.5964 H   0  0  0  0  0  0  0  0  0  0  0  0
   19.3466   19.3703   24.3428 H   0  0  0  0  0  0  0  0  0  0  0  0
   19.3495   19.4222   22.1697 C   0  0  0  0  0  0  0  0  0  0  0  0
   19.3590   18.7013   21.3403 H   0  0  0  0  0  0  0  0  0  0  0  0
   18.4148   19.9931   22.0834 H   0  0  0  0  0  0  0  0  0  0  0  0
   20.5556   20.3803   22.0445 C   0  0  0  0  0  0  0  0  0  0  0  0
   21.4926   19.8105   22.1163 H   0  0  0  0  0  0  0  0  0  0  0  0
   20.5483   21.0842   22.8877 H   0  0  0  0  0  0  0  0  0  0  0  0
   20.5437   21.1839   20.7182 C   0  0  0  0  0  0  0  0  0  0  0  0
   19.6021   21.7374   20.6189 H   0  0  0  0  0  0  0  0  0  0  0  0
   21.3491   21.9276   20.7331 H   0  0  0  0  0  0  0  0  0  0  0  0
   20.7381   20.3258   19.4713 C   0  0  0  0  0  0  0  0  0  0  0  0
   19.7710   20.1003   18.7708 O   0  5  0  0  0  0  0  0  0  0  0  0
   21.8561   19.9164   19.2270 O   0  0  0  0  0  0  0  0  0  0  0  0
  1  2  1  0  0  0  0
  1  3  1  0  0  0  0
  1  4  2  0  0  0  0
  4  5  1  0  0  0  0
  4  6  1  0  0  0  0
  6  7  1  0  0  0  0
  6  8  1  0  0  0  0
  6  9  1  0  0  0  0
  9 10  1  0  0  0  0
  9 11  1  0  0  0  0
  9 12  1  0  0  0  0
 12 13  1  0  0  0  0
 12 14  1  0  0  0  0
 12 15  1  0  0  0  0
 15 16  1  0  0  0  0
 15 17  1  0  0  0  0
 15 18  1  0  0  0  0
 18 19  1  0  0  0  0
 18 20  2  0  0  0  0
M  END
> <VConfSearch Rank>
230

> <Conf_Id>
81

> <Delta U+W>
-0.051

> <U+W>
-51.796

> <U>
9.412

> <W>
-61.209

> <W(PB)>
-63.452

> <W(SA)>
2.243

> <Valence>
9.329

> <Coulomb>
-0.323

> <VdW>
0.406

> <VdW6>
-6.640

> <VdW12>
7.046

> <Bond>
0.105

> <Angle>
2.401

> <Pdih>
6.823

> <Idih>
0.000

> <Tether>
0.000

$$$$
VeraChem MOL file


 20 19  0  0  0  0  0  0  0  0999 V2000     
   21.2967   21.5405   20.7103 C   0  0  0  0  0  0  0  0  0  0  0  0
   20.9270   22.4611   21.1590 H   0  0  0  0  0  0  0  0  0  0  0  0
   22.2408   21.5900   20.1706 H   0  0  0  0  0  0  0  0  0  0  0  0
   20.6227   20.3926   20.8181 C   0  0  0  0  0  0  0  0  0  0  0  0
   21.0092   19.4829   20.3595 H   0  0  0  0  0  0  0  0  0  0  0  0
   19.3038   20.2486   21.5470 C   0  0  0  0  0  0  0  0  0  0  0  0
   18.6039   19.6543   20.9454 H   0  0  0  0  0  0  0  0  0  0  0  0
   18.8354   21.2351   21.6630 H   0  0  0  0  0  0  0  0  0  0  0  0
   19.4694   19.6158   22.9494 C   0  0  0  0  0  0  0  0  0  0  0  0
   20.1033   20.2724   23.5609 H   0  0  0  0  0  0  0  0  0  0  0  0
   18.4899   19.5900   23.4462 H   0  0  0  0  0  0  0  0  0  0  0  0
   20.0802   18.1906   22.9496 C   0  0  0  0  0  0  0  0  0  0  0  0
   20.1779   17.8499   23.9896 H   0  0  0  0  0  0  0  0  0  0  0  0
   21.1007   18.2293   22.5459 H   0  0  0  0  0  0  0  0  0  0  0  0
   19.2577   17.1387   22.1564 C   0  0  0  0  0  0  0  0  0  0  0  0
   19.2046   17.4098   21.0959 H   0  0  0  0  0  0  0  0  0  0  0  0
   19.7669   16.1691   22.2036 H   0  0  0  0  0  0  0  0  0  0  0  0
   17.8393   16.9332   22.6803 C   0  0  0  0  0  0  0  0  0  0  0  0
   16.9127   17.3528   22.0152 O   0  5  0  0  0  0  0  0  0  0  0  0
   17.6981   16.3423   23.7331 O   0  0  0  0  0  0  0  0  0  0  0  0
  1  2  1  0  0  0  0
  1  3  1  0  0  0  0
  1  4  2  0  0  0  0
  4  5  1  0  0  0  0
  4  6  1  0  0  0  0
  6  7  1  0  0  0  0
  6  8  1  0  0  0  0
  6  9  1  0  0  0  0
  9 10  1  0  0  0  0
  9 11  1  0  0  0  0
  9 12  1  0  0  0  0
 12 13  1  0  0  0  0
 12 14  1  0  0  0  0
 12 15  1  0  0  0  0
 15 16  1  0  0  0  0
 15 17  1  0  0  0  0
 15 18  1  0  0  0  0
 18 19  1  0  0  0  0
 18 20  2  0  0  0  0
M  END
> <VConfSearch Rank>
231

> <Conf_Id>
86

> <Delta U+W>
1.248

> <U+W>
-50.498

> <U>
10.404

> <W>
-60.901

> <W(PB)>
-63.061

> <W(SA)>
2.159

> <Valence>
10.021

> <Coulomb>
0.094

> <VdW>
0.289

> <VdW6>
-8.409

> <VdW12>
8.698

> <Bond>
0.179

> <Angle>
2.939

> <Pdih>
6.902

> <Idih>
0.001

> <Tether>
0.000

$$$$
VeraChem MOL file


 20 19  0  0  0  0  0  0  0  0999 V2000     
   22.7824   19.2929   21.0803 C   0  0  0  0  0  0  0  0  0  0  0  0
   23.7514   18.8630   21.3279 H   0  0  0  0  0  0  0  0  0  0  0  0
   22.4333   19.1846   20.0547 H   0  0  0  0  0  0  0  0  0  0  0  0
   22.0515   19.9247   22.0026 C   0  0  0  0  0  0  0  0  0  0  0  0
   22.4181   20.0202   23.0243 H   0  0  0  0  0  0  0  0  0  0  0  0
   20.6974   20.5463   21.7339 C   0  0  0  0  0  0  0  0  0  0  0  0
   20.4967   20.5850   20.6546 H   0  0  0  0  0  0  0  0  0  0  0  0
   20.7047   21.5868   22.0849 H   0  0  0  0  0  0  0  0  0  0  0  0
   19.5529   19.7891   22.4443 C   0  0  0  0  0  0  0  0  0  0  0  0
   19.7549   19.7466   23.5234 H   0  0  0  0  0  0  0  0  0  0  0  0
   18.6229   20.3612   22.3225 H   0  0  0  0  0  0  0  0  0  0  0  0
   19.3511   18.3580   21.8922 C   0  0  0  0  0  0  0  0  0  0  0  0
   20.2779   17.7828   22.0196 H   0  0  0  0  0  0  0  0  0  0  0  0
   19.1529   18.4007   20.8123 H   0  0  0  0  0  0  0  0  0  0  0  0
   18.1945   17.6038   22.5983 C   0  0  0  0  0  0  0  0  0  0  0  0
   18.1751   16.5619   22.2577 H   0  0  0  0  0  0  0  0  0  0  0  0
   18.3632   17.5807   23.6817 H   0  0  0  0  0  0  0  0  0  0  0  0
   16.8136   18.1964   22.3325 C   0  0  0  0  0  0  0  0  0  0  0  0
   16.2966   17.9821   21.2537 O   0  5  0  0  0  0  0  0  0  0  0  0
   16.2865   18.8464   23.2138 O   0  0  0  0  0  0  0  0  0  0  0  0
  1  2  1  0  0  0  0
  1  3  1  0  0  0  0
  1  4  2  0  0  0  0
  4  5  1  0  0  0  0
  4  6  1  0  0  0  0
  6  7  1  0  0  0  0
  6  8  1  0  0  0  0
  6  9  1  0  0  0  0
  9 10  1  0  0  0  0
  9 11  1  0  0  0  0
  9 12  1  0  0  0  0
 12 13  1  0  0  0  0
 12 14  1  0  0  0  0
 12 15  1  0  0  0  0
 15 16  1  0  0  0  0
 15 17  1  0  0  0  0
 15 18  1  0  0  0  0
 18 19  1  0  0  0  0
 18 20  2  0  0  0  0
M  END
> <VConfSearch Rank>
232

> <Conf_Id>
28

> <Delta U+W>
0.446

> <U+W>
-51.299

> <U>
9.295

> <W>
-60.594

> <W(PB)>
-62.806

> <W(SA)>
2.212

> <Valence>
9.495

> <Coulomb>
-0.610

> <VdW>
0.409

> <VdW6>
-7.332

> <VdW12>
7.741

> <Bond>
0.126

> <Angle>
2.497

> <Pdih>
6.872

> <Idih>
0.000

> <Tether>
0.000

$$$$
VeraChem MOL file


 20 19  0  0  0  0  0  0  0  0999 V2000     
   17.8996   17.7394   20.1822 C   0  0  0  0  0  0  0  0  0  0  0  0
   18.3512   18.5630   19.6334 H   0  0  0  0  0  0  0  0  0  0  0  0
   17.3123   17.0276   19.6046 H   0  0  0  0  0  0  0  0  0  0  0  0
   18.0499   17.5885   21.5030 C   0  0  0  0  0  0  0  0  0  0  0  0
   17.5748   16.7412   21.9969 H   0  0  0  0  0  0  0  0  0  0  0  0
   18.8335   18.4946   22.4382 C   0  0  0  0  0  0  0  0  0  0  0  0
   19.6443   17.9083   22.8893 H   0  0  0  0  0  0  0  0  0  0  0  0
   18.1799   18.7910   23.2692 H   0  0  0  0  0  0  0  0  0  0  0  0
   19.4166   19.7681   21.7773 C   0  0  0  0  0  0  0  0  0  0  0  0
   20.1410   19.4829   21.0019 H   0  0  0  0  0  0  0  0  0  0  0  0
   18.6076   20.3093   21.2681 H   0  0  0  0  0  0  0  0  0  0  0  0
   20.0864   20.7352   22.7847 C   0  0  0  0  0  0  0  0  0  0  0  0
   19.3435   21.0554   23.5276 H   0  0  0  0  0  0  0  0  0  0  0  0
   20.3963   21.6434   22.2494 H   0  0  0  0  0  0  0  0  0  0  0  0
   21.3210   20.1461   23.5206 C   0  0  0  0  0  0  0  0  0  0  0  0
   21.7189   20.8937   24.2164 H   0  0  0  0  0  0  0  0  0  0  0  0
   21.0335   19.2803   24.1277 H   0  0  0  0  0  0  0  0  0  0  0  0
   22.4627   19.7367   22.5944 C   0  0  0  0  0  0  0  0  0  0  0  0
   23.0964   20.6157   22.0436 O   0  5  0  0  0  0  0  0  0  0  0  0
   22.7022   18.5524   22.4642 O   0  0  0  0  0  0  0  0  0  0  0  0
  1  2  1  0  0  0  0
  1  3  1  0  0  0  0
  1  4  2  0  0  0  0
  4  5  1  0  0  0  0
  4  6  1  0  0  0  0
  6  7  1  0  0  0  0
  6  8  1  0  0  0  0
  6  9  1  0  0  0  0
  9 10  1  0  0  0  0
  9 11  1  0  0  0  0
  9 12  1  0  0  0  0
 12 13  1  0  0  0  0
 12 14  1  0  0  0  0
 12 15  1  0  0  0  0
 15 16  1  0  0  0  0
 15 17  1  0  0  0  0
 15 18  1  0  0  0  0
 18 19  1  0  0  0  0
 18 20  2  0  0  0  0
M  END
> <VConfSearch Rank>
233

> <Conf_Id>
53

> <Delta U+W>
0.549

> <U+W>
-51.197

> <U>
10.870

> <W>
-62.067

> <W(PB)>
-64.228

> <W(SA)>
2.161

> <Valence>
8.803

> <Coulomb>
1.020

> <VdW>
1.048

> <VdW6>
-8.312

> <VdW12>
9.360

> <Bond>
0.212

> <Angle>
3.379

> <Pdih>
5.211

> <Idih>
0.001

> <Tether>
0.000

$$$$
VeraChem MOL file


 20 19  0  0  0  0  0  0  0  0999 V2000     
   20.9086   17.4191   24.1287 C   0  0  0  0  0  0  0  0  0  0  0  0
   21.3659   18.3935   24.2854 H   0  0  0  0  0  0  0  0  0  0  0  0
   21.4845   16.5478   24.4354 H   0  0  0  0  0  0  0  0  0  0  0  0
   19.6919   17.2818   23.5907 C   0  0  0  0  0  0  0  0  0  0  0  0
   19.2784   16.2824   23.4582 H   0  0  0  0  0  0  0  0  0  0  0  0
   18.7843   18.4041   23.1147 C   0  0  0  0  0  0  0  0  0  0  0  0
   18.0439   18.6140   23.8978 H   0  0  0  0  0  0  0  0  0  0  0  0
   18.1939   18.0481   22.2607 H   0  0  0  0  0  0  0  0  0  0  0  0
   19.4928   19.7249   22.7156 C   0  0  0  0  0  0  0  0  0  0  0  0
   18.7262   20.4704   22.4640 H   0  0  0  0  0  0  0  0  0  0  0  0
   20.0242   20.1315   23.5861 H   0  0  0  0  0  0  0  0  0  0  0  0
   20.4796   19.5993   21.5252 C   0  0  0  0  0  0  0  0  0  0  0  0
   21.2929   18.9117   21.7906 H   0  0  0  0  0  0  0  0  0  0  0  0
   20.9510   20.5769   21.3546 H   0  0  0  0  0  0  0  0  0  0  0  0
   19.8301   19.1224   20.1974 C   0  0  0  0  0  0  0  0  0  0  0  0
   20.5998   19.0594   19.4195 H   0  0  0  0  0  0  0  0  0  0  0  0
   19.4203   18.1122   20.3095 H   0  0  0  0  0  0  0  0  0  0  0  0
   18.7304   20.0422   19.6748 C   0  0  0  0  0  0  0  0  0  0  0  0
   17.5790   19.6581   19.7382 O   0  5  0  0  0  0  0  0  0  0  0  0
   19.0569   21.1128   19.2007 O   0  0  0  0  0  0  0  0  0  0  0  0
  1  2  1  0  0  0  0
  1  3  1  0  0  0  0
  1  4  2  0  0  0  0
  4  5  1  0  0  0  0
  4  6  1  0  0  0  0
  6  7  1  0  0  0  0
  6  8  1  0  0  0  0
  6  9  1  0  0  0  0
  9 10  1  0  0  0  0
  9 11  1  0  0  0  0
  9 12  1  0  0  0  0
 12 13  1  0  0  0  0
 12 14  1  0  0  0  0
 12 15  1  0  0  0  0
 15 16  1  0  0  0  0
 15 17  1  0  0  0  0
 15 18  1  0  0  0  0
 18 19  1  0  0  0  0
 18 20  2  0  0  0  0
M  END
> <VConfSearch Rank>
234

> <Conf_Id>
66

> <Delta U+W>
1.737

> <U+W>
-50.008

> <U>
11.091

> <W>
-61.099

> <W(PB)>
-63.213

> <W(SA)>
2.114

> <Valence>
9.664

> <Coulomb>
0.658

> <VdW>
0.769

> <VdW6>
-9.171

> <VdW12>
9.940

> <Bond>
0.244

> <Angle>
3.658

> <Pdih>
5.762

> <Idih>
0.001

> <Tether>
0.000

$$$$
VeraChem MOL file


 20 19  0  0  0  0  0  0  0  0999 V2000     
   20.6386   17.9061   19.7598 C   0  0  0  0  0  0  0  0  0  0  0  0
   20.9488   18.9422   19.6432 H   0  0  0  0  0  0  0  0  0  0  0  0
   21.3295   17.1415   19.4091 H   0  0  0  0  0  0  0  0  0  0  0  0
   19.4629   17.5704   20.3019 C   0  0  0  0  0  0  0  0  0  0  0  0
   19.2015   16.5164   20.3923 H   0  0  0  0  0  0  0  0  0  0  0  0
   18.4078   18.5251   20.8369 C   0  0  0  0  0  0  0  0  0  0  0  0
   17.9129   18.0606   21.6988 H   0  0  0  0  0  0  0  0  0  0  0  0
   17.6168   18.6307   20.0828 H   0  0  0  0  0  0  0  0  0  0  0  0
   18.9124   19.9340   21.2449 C   0  0  0  0  0  0  0  0  0  0  0  0
   19.3576   20.4289   20.3718 H   0  0  0  0  0  0  0  0  0  0  0  0
   18.0471   20.5500   21.5249 H   0  0  0  0  0  0  0  0  0  0  0  0
   19.9285   19.9445   22.4155 C   0  0  0  0  0  0  0  0  0  0  0  0
   20.2813   20.9745   22.5631 H   0  0  0  0  0  0  0  0  0  0  0  0
   20.8146   19.3510   22.1545 H   0  0  0  0  0  0  0  0  0  0  0  0
   19.3391   19.4250   23.7525 C   0  0  0  0  0  0  0  0  0  0  0  0
   18.4236   19.9742   24.0023 H   0  0  0  0  0  0  0  0  0  0  0  0
   19.0722   18.3654   23.6692 H   0  0  0  0  0  0  0  0  0  0  0  0
   20.3090   19.5690   24.9199 C   0  0  0  0  0  0  0  0  0  0  0  0
   21.0497   18.6387   25.1704 O   0  5  0  0  0  0  0  0  0  0  0  0
   20.3083   20.6142   25.5399 O   0  0  0  0  0  0  0  0  0  0  0  0
  1  2  1  0  0  0  0
  1  3  1  0  0  0  0
  1  4  2  0  0  0  0
  4  5  1  0  0  0  0
  4  6  1  0  0  0  0
  6  7  1  0  0  0  0
  6  8  1  0  0  0  0
  6  9  1  0  0  0  0
  9 10  1  0  0  0  0
  9 11  1  0  0  0  0
  9 12  1  0  0  0  0
 12 13  1  0  0  0  0
 12 14  1  0  0  0  0
 12 15  1  0  0  0  0
 15 16  1  0  0  0  0
 15 17  1  0  0  0  0
 15 18  1  0  0  0  0
 18 19  1  0  0  0  0
 18 20  2  0  0  0  0
M  END
> <VConfSearch Rank>
235

> <Conf_Id>
64

> <Delta U+W>
0.366

> <U+W>
-51.379

> <U>
10.000

> <W>
-61.379

> <W(PB)>
-63.541

> <W(SA)>
2.162

> <Valence>
9.398

> <Coulomb>
-0.504

> <VdW>
1.105

> <VdW6>
-7.975

> <VdW12>
9.080

> <Bond>
0.216

> <Angle>
3.417

> <Pdih>
5.765

> <Idih>
0.001

> <Tether>
0.000

$$$$
VeraChem MOL file


 20 19  0  0  0  0  0  0  0  0999 V2000     
   17.0720   19.7941   22.5476 C   0  0  0  0  0  0  0  0  0  0  0  0
   16.9319   18.7738   22.9008 H   0  0  0  0  0  0  0  0  0  0  0  0
   16.2719   20.2333   21.9542 H   0  0  0  0  0  0  0  0  0  0  0  0
   18.1825   20.4821   22.8259 C   0  0  0  0  0  0  0  0  0  0  0  0
   18.3040   21.5015   22.4606 H   0  0  0  0  0  0  0  0  0  0  0  0
   19.3358   19.9391   23.6427 C   0  0  0  0  0  0  0  0  0  0  0  0
   19.0515   19.0001   24.1366 H   0  0  0  0  0  0  0  0  0  0  0  0
   19.5740   20.6508   24.4443 H   0  0  0  0  0  0  0  0  0  0  0  0
   20.6022   19.7093   22.7875 C   0  0  0  0  0  0  0  0  0  0  0  0
   20.8861   20.6484   22.2930 H   0  0  0  0  0  0  0  0  0  0  0  0
   21.4346   19.4394   23.4518 H   0  0  0  0  0  0  0  0  0  0  0  0
   20.4144   18.5969   21.7307 C   0  0  0  0  0  0  0  0  0  0  0  0
   19.6014   18.8677   21.0430 H   0  0  0  0  0  0  0  0  0  0  0  0
   20.1139   17.6631   22.2257 H   0  0  0  0  0  0  0  0  0  0  0  0
   21.7083   18.3515   20.9160 C   0  0  0  0  0  0  0  0  0  0  0  0
   22.0141   19.2726   20.4054 H   0  0  0  0  0  0  0  0  0  0  0  0
   22.5283   18.0635   21.5847 H   0  0  0  0  0  0  0  0  0  0  0  0
   21.5481   17.2580   19.8659 C   0  0  0  0  0  0  0  0  0  0  0  0
   21.7701   16.1096   20.1955 O   0  5  0  0  0  0  0  0  0  0  0  0
   21.1921   17.5816   18.7500 O   0  0  0  0  0  0  0  0  0  0  0  0
  1  2  1  0  0  0  0
  1  3  1  0  0  0  0
  1  4  2  0  0  0  0
  4  5  1  0  0  0  0
  4  6  1  0  0  0  0
  6  7  1  0  0  0  0
  6  8  1  0  0  0  0
  6  9  1  0  0  0  0
  9 10  1  0  0  0  0
  9 11  1  0  0  0  0
  9 12  1  0  0  0  0
 12 13  1  0  0  0  0
 12 14  1  0  0  0  0
 12 15  1  0  0  0  0
 15 16  1  0  0  0  0
 15 17  1  0  0  0  0
 15 18  1  0  0  0  0
 18 19  1  0  0  0  0
 18 20  2  0  0  0  0
M  END
> <VConfSearch Rank>
236

> <Conf_Id>
42

> <Delta U+W>
-0.601

> <U+W>
-52.347

> <U>
8.428

> <W>
-60.774

> <W(PB)>
-62.982

> <W(SA)>
2.208

> <Valence>
9.231

> <Coulomb>
-1.304

> <VdW>
0.501

> <VdW6>
-6.515

> <VdW12>
7.016

> <Bond>
0.103

> <Angle>
2.328

> <Pdih>
6.799

> <Idih>
0.000

> <Tether>
0.000

$$$$
VeraChem MOL file


 20 19  0  0  0  0  0  0  0  0999 V2000     
   21.1958   18.3232   24.5097 C   0  0  0  0  0  0  0  0  0  0  0  0
   21.5543   17.4094   24.0388 H   0  0  0  0  0  0  0  0  0  0  0  0
   20.9278   18.2720   25.5636 H   0  0  0  0  0  0  0  0  0  0  0  0
   21.0838   19.4637   23.8237 C   0  0  0  0  0  0  0  0  0  0  0  0
   20.7200   20.3667   24.3133 H   0  0  0  0  0  0  0  0  0  0  0  0
   21.4349   19.6116   22.3585 C   0  0  0  0  0  0  0  0  0  0  0  0
   21.9707   18.7232   21.9976 H   0  0  0  0  0  0  0  0  0  0  0  0
   22.1234   20.4586   22.2382 H   0  0  0  0  0  0  0  0  0  0  0  0
   20.1876   19.8550   21.4794 C   0  0  0  0  0  0  0  0  0  0  0  0
   19.6570   20.7479   21.8379 H   0  0  0  0  0  0  0  0  0  0  0  0
   20.5132   20.0754   20.4536 H   0  0  0  0  0  0  0  0  0  0  0  0
   19.2266   18.6428   21.4584 C   0  0  0  0  0  0  0  0  0  0  0  0
   18.8598   18.4369   22.4735 H   0  0  0  0  0  0  0  0  0  0  0  0
   19.7780   17.7496   21.1355 H   0  0  0  0  0  0  0  0  0  0  0  0
   18.0166   18.8579   20.5126 C   0  0  0  0  0  0  0  0  0  0  0  0
   18.3642   19.0884   19.4983 H   0  0  0  0  0  0  0  0  0  0  0  0
   17.4347   17.9311   20.4459 H   0  0  0  0  0  0  0  0  0  0  0  0
   17.0660   19.9631   20.9642 C   0  0  0  0  0  0  0  0  0  0  0  0
   17.1169   21.0351   20.3938 O   0  5  0  0  0  0  0  0  0  0  0  0
   16.2866   19.7159   21.8634 O   0  0  0  0  0  0  0  0  0  0  0  0
  1  2  1  0  0  0  0
  1  3  1  0  0  0  0
  1  4  2  0  0  0  0
  4  5  1  0  0  0  0
  4  6  1  0  0  0  0
  6  7  1  0  0  0  0
  6  8  1  0  0  0  0
  6  9  1  0  0  0  0
  9 10  1  0  0  0  0
  9 11  1  0  0  0  0
  9 12  1  0  0  0  0
 12 13  1  0  0  0  0
 12 14  1  0  0  0  0
 12 15  1  0  0  0  0
 15 16  1  0  0  0  0
 15 17  1  0  0  0  0
 15 18  1  0  0  0  0
 18 19  1  0  0  0  0
 18 20  2  0  0  0  0
M  END
> <VConfSearch Rank>
237

> <Conf_Id>
68

> <Delta U+W>
0.492

> <U+W>
-51.253

> <U>
10.179

> <W>
-61.432

> <W(PB)>
-63.627

> <W(SA)>
2.195

> <Valence>
9.483

> <Coulomb>
0.361

> <VdW>
0.335

> <VdW6>
-7.385

> <VdW12>
7.720

> <Bond>
0.125

> <Angle>
2.487

> <Pdih>
6.870

> <Idih>
0.001

> <Tether>
0.000

$$$$
VeraChem MOL file


 20 19  0  0  0  0  0  0  0  0999 V2000     
   18.5835   21.8055   20.5125 C   0  0  0  0  0  0  0  0  0  0  0  0
   18.0786   22.3733   21.2924 H   0  0  0  0  0  0  0  0  0  0  0  0
   18.1832   21.8758   19.5025 H   0  0  0  0  0  0  0  0  0  0  0  0
   19.6506   21.0484   20.7807 C   0  0  0  0  0  0  0  0  0  0  0  0
   20.1425   20.4904   19.9846 H   0  0  0  0  0  0  0  0  0  0  0  0
   20.2652   20.9073   22.1570 C   0  0  0  0  0  0  0  0  0  0  0  0
   19.9419   21.7413   22.7945 H   0  0  0  0  0  0  0  0  0  0  0  0
   21.3588   20.9797   22.0874 H   0  0  0  0  0  0  0  0  0  0  0  0
   19.8729   19.5791   22.8428 C   0  0  0  0  0  0  0  0  0  0  0  0
   20.2381   19.5940   23.8787 H   0  0  0  0  0  0  0  0  0  0  0  0
   18.7776   19.5086   22.8983 H   0  0  0  0  0  0  0  0  0  0  0  0
   20.4461   18.3369   22.1203 C   0  0  0  0  0  0  0  0  0  0  0  0
   21.5354   18.4423   22.0272 H   0  0  0  0  0  0  0  0  0  0  0  0
   20.0451   18.2768   21.0993 H   0  0  0  0  0  0  0  0  0  0  0  0
   20.1305   17.0155   22.8682 C   0  0  0  0  0  0  0  0  0  0  0  0
   20.6544   16.1848   22.3810 H   0  0  0  0  0  0  0  0  0  0  0  0
   20.5024   17.0646   23.8987 H   0  0  0  0  0  0  0  0  0  0  0  0
   18.6463   16.6623   22.9027 C   0  0  0  0  0  0  0  0  0  0  0  0
   18.1468   16.1906   21.9001 O   0  5  0  0  0  0  0  0  0  0  0  0
   18.0337   16.8495   23.9355 O   0  0  0  0  0  0  0  0  0  0  0  0
  1  2  1  0  0  0  0
  1  3  1  0  0  0  0
  1  4  2  0  0  0  0
  4  5  1  0  0  0  0
  4  6  1  0  0  0  0
  6  7  1  0  0  0  0
  6  8  1  0  0  0  0
  6  9  1  0  0  0  0
  9 10  1  0  0  0  0
  9 11  1  0  0  0  0
  9 12  1  0  0  0  0
 12 13  1  0  0  0  0
 12 14  1  0  0  0  0
 12 15  1  0  0  0  0
 15 16  1  0  0  0  0
 15 17  1  0  0  0  0
 15 18  1  0  0  0  0
 18 19  1  0  0  0  0
 18 20  2  0  0  0  0
M  END
> <VConfSearch Rank>
238

> <Conf_Id>
87

> <Delta U+W>
0.339

> <U+W>
-51.407

> <U>
10.461

> <W>
-61.867

> <W(PB)>
-64.045

> <W(SA)>
2.178

> <Valence>
9.555

> <Coulomb>
0.483

> <VdW>
0.423

> <VdW6>
-7.223

> <VdW12>
7.646

> <Bond>
0.126

> <Angle>
2.492

> <Pdih>
6.936

> <Idih>
0.001

> <Tether>
0.000

$$$$
VeraChem MOL file


 20 19  0  0  0  0  0  0  0  0999 V2000     
   18.4674   21.2142   20.7144 C   0  0  0  0  0  0  0  0  0  0  0  0
   19.1767   22.0008   20.9667 H   0  0  0  0  0  0  0  0  0  0  0  0
   17.9966   21.2581   19.7339 H   0  0  0  0  0  0  0  0  0  0  0  0
   18.1860   20.2304   21.5727 C   0  0  0  0  0  0  0  0  0  0  0  0
   17.4667   19.4572   21.3054 H   0  0  0  0  0  0  0  0  0  0  0  0
   18.7927   20.1144   22.9547 C   0  0  0  0  0  0  0  0  0  0  0  0
   18.1766   19.4613   23.5871 H   0  0  0  0  0  0  0  0  0  0  0  0
   18.7640   21.1036   23.4313 H   0  0  0  0  0  0  0  0  0  0  0  0
   20.2591   19.6157   22.9477 C   0  0  0  0  0  0  0  0  0  0  0  0
   20.8332   20.1476   22.1767 H   0  0  0  0  0  0  0  0  0  0  0  0
   20.7144   19.8942   23.9078 H   0  0  0  0  0  0  0  0  0  0  0  0
   20.4269   18.0850   22.7748 C   0  0  0  0  0  0  0  0  0  0  0  0
   19.8404   17.5562   23.5387 H   0  0  0  0  0  0  0  0  0  0  0  0
   21.4789   17.8303   22.9643 H   0  0  0  0  0  0  0  0  0  0  0  0
   20.0430   17.5567   21.3688 C   0  0  0  0  0  0  0  0  0  0  0  0
   18.9661   17.6577   21.2006 H   0  0  0  0  0  0  0  0  0  0  0  0
   20.5520   18.1398   20.5921 H   0  0  0  0  0  0  0  0  0  0  0  0
   20.4022   16.0885   21.1719 C   0  0  0  0  0  0  0  0  0  0  0  0
   19.5850   15.2491   21.4950 O   0  5  0  0  0  0  0  0  0  0  0  0
   21.4983   15.8215   20.7201 O   0  0  0  0  0  0  0  0  0  0  0  0
  1  2  1  0  0  0  0
  1  3  1  0  0  0  0
  1  4  2  0  0  0  0
  4  5  1  0  0  0  0
  4  6  1  0  0  0  0
  6  7  1  0  0  0  0
  6  8  1  0  0  0  0
  6  9  1  0  0  0  0
  9 10  1  0  0  0  0
  9 11  1  0  0  0  0
  9 12  1  0  0  0  0
 12 13  1  0  0  0  0
 12 14  1  0  0  0  0
 12 15  1  0  0  0  0
 15 16  1  0  0  0  0
 15 17  1  0  0  0  0
 15 18  1  0  0  0  0
 18 19  1  0  0  0  0
 18 20  2  0  0  0  0
M  END
> <VConfSearch Rank>
239

> <Conf_Id>
51

> <Delta U+W>
1.709

> <U+W>
-50.036

> <U>
10.643

> <W>
-60.679

> <W(PB)>
-62.882

> <W(SA)>
2.203

> <Valence>
11.231

> <Coulomb>
-1.077

> <VdW>
0.489

> <VdW6>
-7.546

> <VdW12>
8.035

> <Bond>
0.159

> <Angle>
3.005

> <Pdih>
8.065

> <Idih>
0.002

> <Tether>
0.000

$$$$
VeraChem MOL file


 20 19  0  0  0  0  0  0  0  0999 V2000     
   20.6831   20.0382   19.5060 C   0  0  0  0  0  0  0  0  0  0  0  0
   21.6828   19.6069   19.4958 H   0  0  0  0  0  0  0  0  0  0  0  0
   20.5600   21.0310   19.0768 H   0  0  0  0  0  0  0  0  0  0  0  0
   19.6462   19.3772   20.0271 C   0  0  0  0  0  0  0  0  0  0  0  0
   18.6517   19.8217   20.0200 H   0  0  0  0  0  0  0  0  0  0  0  0
   19.7423   17.9911   20.6281 C   0  0  0  0  0  0  0  0  0  0  0  0
   20.3414   17.3616   19.9563 H   0  0  0  0  0  0  0  0  0  0  0  0
   18.7494   17.5237   20.6672 H   0  0  0  0  0  0  0  0  0  0  0  0
   20.3945   17.9687   22.0328 C   0  0  0  0  0  0  0  0  0  0  0  0
   20.7382   16.9439   22.2285 H   0  0  0  0  0  0  0  0  0  0  0  0
   21.2971   18.5950   22.0380 H   0  0  0  0  0  0  0  0  0  0  0  0
   19.4552   18.3791   23.1949 C   0  0  0  0  0  0  0  0  0  0  0  0
   19.9625   18.1545   24.1434 H   0  0  0  0  0  0  0  0  0  0  0  0
   18.5476   17.7602   23.1780 H   0  0  0  0  0  0  0  0  0  0  0  0
   19.0606   19.8783   23.1960 C   0  0  0  0  0  0  0  0  0  0  0  0
   19.9559   20.5066   23.1186 H   0  0  0  0  0  0  0  0  0  0  0  0
   18.4237   20.1093   22.3364 H   0  0  0  0  0  0  0  0  0  0  0  0
   18.3011   20.2873   24.4528 C   0  0  0  0  0  0  0  0  0  0  0  0
   17.0913   20.1715   24.4558 O   0  5  0  0  0  0  0  0  0  0  0  0
   18.9406   20.6920   25.4036 O   0  0  0  0  0  0  0  0  0  0  0  0
  1  2  1  0  0  0  0
  1  3  1  0  0  0  0
  1  4  2  0  0  0  0
  4  5  1  0  0  0  0
  4  6  1  0  0  0  0
  6  7  1  0  0  0  0
  6  8  1  0  0  0  0
  6  9  1  0  0  0  0
  9 10  1  0  0  0  0
  9 11  1  0  0  0  0
  9 12  1  0  0  0  0
 12 13  1  0  0  0  0
 12 14  1  0  0  0  0
 12 15  1  0  0  0  0
 15 16  1  0  0  0  0
 15 17  1  0  0  0  0
 15 18  1  0  0  0  0
 18 19  1  0  0  0  0
 18 20  2  0  0  0  0
M  END
> <VConfSearch Rank>
240

> <Conf_Id>
91

> <Delta U+W>
1.604

> <U+W>
-50.141

> <U>
10.644

> <W>
-60.786

> <W(PB)>
-62.965

> <W(SA)>
2.179

> <Valence>
11.230

> <Coulomb>
-1.075

> <VdW>
0.489

> <VdW6>
-7.547

> <VdW12>
8.036

> <Bond>
0.159

> <Angle>
3.006

> <Pdih>
8.064

> <Idih>
0.002

> <Tether>
0.000

$$$$
VeraChem MOL file


 20 19  0  0  0  0  0  0  0  0999 V2000     
   17.6156   21.9339   22.4269 C   0  0  0  0  0  0  0  0  0  0  0  0
   17.8440   22.2524   21.4110 H   0  0  0  0  0  0  0  0  0  0  0  0
   17.2384   22.6881   23.1154 H   0  0  0  0  0  0  0  0  0  0  0  0
   17.7923   20.6692   22.8179 C   0  0  0  0  0  0  0  0  0  0  0  0
   17.5583   20.3711   23.8397 H   0  0  0  0  0  0  0  0  0  0  0  0
   18.3106   19.5685   21.9192 C   0  0  0  0  0  0  0  0  0  0  0  0
   18.2700   19.8851   20.8680 H   0  0  0  0  0  0  0  0  0  0  0  0
   17.6632   18.6859   22.0084 H   0  0  0  0  0  0  0  0  0  0  0  0
   19.7600   19.1865   22.2852 C   0  0  0  0  0  0  0  0  0  0  0  0
   20.4025   20.0737   22.1984 H   0  0  0  0  0  0  0  0  0  0  0  0
   19.7992   18.8656   23.3353 H   0  0  0  0  0  0  0  0  0  0  0  0
   20.3042   18.0610   21.3784 C   0  0  0  0  0  0  0  0  0  0  0  0
   20.2658   18.3815   20.3280 H   0  0  0  0  0  0  0  0  0  0  0  0
   19.6614   17.1739   21.4638 H   0  0  0  0  0  0  0  0  0  0  0  0
   21.7623   17.6776   21.7464 C   0  0  0  0  0  0  0  0  0  0  0  0
   22.4107   18.5571   21.6571 H   0  0  0  0  0  0  0  0  0  0  0  0
   21.8070   17.3506   22.7919 H   0  0  0  0  0  0  0  0  0  0  0  0
   22.3797   16.5675   20.8945 C   0  0  0  0  0  0  0  0  0  0  0  0
   23.5203   16.2389   21.1540 O   0  5  0  0  0  0  0  0  0  0  0  0
   21.7277   16.0578   20.0036 O   0  0  0  0  0  0  0  0  0  0  0  0
  1  2  1  0  0  0  0
  1  3  1  0  0  0  0
  1  4  2  0  0  0  0
  4  5  1  0  0  0  0
  4  6  1  0  0  0  0
  6  7  1  0  0  0  0
  6  8  1  0  0  0  0
  6  9  1  0  0  0  0
  9 10  1  0  0  0  0
  9 11  1  0  0  0  0
  9 12  1  0  0  0  0
 12 13  1  0  0  0  0
 12 14  1  0  0  0  0
 12 15  1  0  0  0  0
 15 16  1  0  0  0  0
 15 17  1  0  0  0  0
 15 18  1  0  0  0  0
 18 19  1  0  0  0  0
 18 20  2  0  0  0  0
M  END
> <VConfSearch Rank>
241

> <Conf_Id>
33

> <Delta U+W>
0.000

> <U+W>
-51.745

> <U>
7.593

> <W>
-59.338

> <W(PB)>
-61.574

> <W(SA)>
2.236

> <Valence>
9.570

> <Coulomb>
-3.091

> <VdW>
1.114

> <VdW6>
-6.064

> <VdW12>
7.178

> <Bond>
0.117

> <Angle>
2.692

> <Pdih>
6.761

> <Idih>
0.000

> <Tether>
0.000

$$$$
VeraChem MOL file


 20 19  0  0  0  0  0  0  0  0999 V2000     
   20.6710   15.5370   22.0111 C   0  0  0  0  0  0  0  0  0  0  0  0
   19.6830   15.2591   21.6476 H   0  0  0  0  0  0  0  0  0  0  0  0
   21.3191   14.7360   22.3628 H   0  0  0  0  0  0  0  0  0  0  0  0
   21.0752   16.8098   22.0290 C   0  0  0  0  0  0  0  0  0  0  0  0
   22.0680   17.0670   22.3977 H   0  0  0  0  0  0  0  0  0  0  0  0
   20.2325   17.9737   21.5569 C   0  0  0  0  0  0  0  0  0  0  0  0
   19.3746   17.6100   20.9753 H   0  0  0  0  0  0  0  0  0  0  0  0
   20.8300   18.6007   20.8832 H   0  0  0  0  0  0  0  0  0  0  0  0
   19.7256   18.8123   22.7518 C   0  0  0  0  0  0  0  0  0  0  0  0
   19.2038   18.1476   23.4540 H   0  0  0  0  0  0  0  0  0  0  0  0
   20.5814   19.2310   23.2990 H   0  0  0  0  0  0  0  0  0  0  0  0
   18.7619   19.9513   22.3419 C   0  0  0  0  0  0  0  0  0  0  0  0
   18.3637   20.4205   23.2523 H   0  0  0  0  0  0  0  0  0  0  0  0
   17.8988   19.5327   21.8060 H   0  0  0  0  0  0  0  0  0  0  0  0
   19.4318   21.0452   21.4703 C   0  0  0  0  0  0  0  0  0  0  0  0
   20.3203   21.4411   21.9764 H   0  0  0  0  0  0  0  0  0  0  0  0
   19.7614   20.6281   20.5121 H   0  0  0  0  0  0  0  0  0  0  0  0
   18.4987   22.2129   21.1707 C   0  0  0  0  0  0  0  0  0  0  0  0
   17.7950   22.1462   20.1822 O   0  5  0  0  0  0  0  0  0  0  0  0
   18.4856   23.1498   21.9446 O   0  0  0  0  0  0  0  0  0  0  0  0
  1  2  1  0  0  0  0
  1  3  1  0  0  0  0
  1  4  2  0  0  0  0
  4  5  1  0  0  0  0
  4  6  1  0  0  0  0
  6  7  1  0  0  0  0
  6  8  1  0  0  0  0
  6  9  1  0  0  0  0
  9 10  1  0  0  0  0
  9 11  1  0  0  0  0
  9 12  1  0  0  0  0
 12 13  1  0  0  0  0
 12 14  1  0  0  0  0
 12 15  1  0  0  0  0
 15 16  1  0  0  0  0
 15 17  1  0  0  0  0
 15 18  1  0  0  0  0
 18 19  1  0  0  0  0
 18 20  2  0  0  0  0
M  END
> <VConfSearch Rank>
242

> <Conf_Id>
37

> <Delta U+W>
-0.384

> <U+W>
-52.130

> <U>
7.491

> <W>
-59.621

> <W(PB)>
-61.853

> <W(SA)>
2.232

> <Valence>
9.604

> <Coulomb>
-2.799

> <VdW>
0.686

> <VdW6>
-6.435

> <VdW12>
7.121

> <Bond>
0.124

> <Angle>
2.493

> <Pdih>
6.986

> <Idih>
0.001

> <Tether>
0.000

$$$$
VeraChem MOL file


 20 19  0  0  0  0  0  0  0  0999 V2000     
   16.5467   19.8553   21.8083 C   0  0  0  0  0  0  0  0  0  0  0  0
   15.4955   20.1382   21.7940 H   0  0  0  0  0  0  0  0  0  0  0  0
   16.8985   19.2326   20.9885 H   0  0  0  0  0  0  0  0  0  0  0  0
   17.3509   20.2643   22.7961 C   0  0  0  0  0  0  0  0  0  0  0  0
   16.9400   20.8871   23.5904 H   0  0  0  0  0  0  0  0  0  0  0  0
   18.8301   19.9526   22.9513 C   0  0  0  0  0  0  0  0  0  0  0  0
   18.9875   19.4632   23.9218 H   0  0  0  0  0  0  0  0  0  0  0  0
   19.3864   20.8981   23.0029 H   0  0  0  0  0  0  0  0  0  0  0  0
   19.4335   19.0695   21.8342 C   0  0  0  0  0  0  0  0  0  0  0  0
   18.8946   18.1131   21.7911 H   0  0  0  0  0  0  0  0  0  0  0  0
   19.2977   19.5636   20.8623 H   0  0  0  0  0  0  0  0  0  0  0  0
   20.9364   18.8005   22.0663 C   0  0  0  0  0  0  0  0  0  0  0  0
   21.0789   18.3063   23.0374 H   0  0  0  0  0  0  0  0  0  0  0  0
   21.4812   19.7538   22.1105 H   0  0  0  0  0  0  0  0  0  0  0  0
   21.5429   17.9164   20.9489 C   0  0  0  0  0  0  0  0  0  0  0  0
   21.0185   16.9545   20.9003 H   0  0  0  0  0  0  0  0  0  0  0  0
   21.4207   18.4021   19.9733 H   0  0  0  0  0  0  0  0  0  0  0  0
   23.0271   17.6365   21.1558 C   0  0  0  0  0  0  0  0  0  0  0  0
   23.3413   16.6584   21.8048 O   0  5  0  0  0  0  0  0  0  0  0  0
   23.8295   18.4149   20.6794 O   0  0  0  0  0  0  0  0  0  0  0  0
  1  2  1  0  0  0  0
  1  3  1  0  0  0  0
  1  4  2  0  0  0  0
  4  5  1  0  0  0  0
  4  6  1  0  0  0  0
  6  7  1  0  0  0  0
  6  8  1  0  0  0  0
  6  9  1  0  0  0  0
  9 10  1  0  0  0  0
  9 11  1  0  0  0  0
  9 12  1  0  0  0  0
 12 13  1  0  0  0  0
 12 14  1  0  0  0  0
 12 15  1  0  0  0  0
 15 16  1  0  0  0  0
 15 17  1  0  0  0  0
 15 18  1  0  0  0  0
 18 19  1  0  0  0  0
 18 20  2  0  0  0  0
M  END
> <VConfSearch Rank>
243

> <Conf_Id>
44

> <Delta U+W>
-1.440

> <U+W>
-53.185

> <U>
6.572

> <W>
-59.757

> <W(PB)>
-62.007

> <W(SA)>
2.249

> <Valence>
7.989

> <Coulomb>
-2.697

> <VdW>
1.281

> <VdW6>
-6.467

> <VdW12>
7.748

> <Bond>
0.136

> <Angle>
2.854

> <Pdih>
4.997

> <Idih>
0.001

> <Tether>
0.000

$$$$
VeraChem MOL file


 20 19  0  0  0  0  0  0  0  0999 V2000     
   21.3745   20.1906   24.7925 C   0  0  0  0  0  0  0  0  0  0  0  0
   20.3782   20.0225   25.1986 H   0  0  0  0  0  0  0  0  0  0  0  0
   22.0715   20.7673   25.3982 H   0  0  0  0  0  0  0  0  0  0  0  0
   21.7307   19.7122   23.5976 C   0  0  0  0  0  0  0  0  0  0  0  0
   22.7328   19.8922   23.2092 H   0  0  0  0  0  0  0  0  0  0  0  0
   20.8189   18.9031   22.7021 C   0  0  0  0  0  0  0  0  0  0  0  0
   19.9533   18.5471   23.2754 H   0  0  0  0  0  0  0  0  0  0  0  0
   21.3518   18.0116   22.3456 H   0  0  0  0  0  0  0  0  0  0  0  0
   20.3425   19.7400   21.4935 C   0  0  0  0  0  0  0  0  0  0  0  0
   19.7625   20.6026   21.8494 H   0  0  0  0  0  0  0  0  0  0  0  0
   21.2210   20.1495   20.9762 H   0  0  0  0  0  0  0  0  0  0  0  0
   19.5032   18.9320   20.4750 C   0  0  0  0  0  0  0  0  0  0  0  0
   20.0857   18.0744   20.1109 H   0  0  0  0  0  0  0  0  0  0  0  0
   19.3055   19.5664   19.5999 H   0  0  0  0  0  0  0  0  0  0  0  0
   18.1494   18.4344   21.0447 C   0  0  0  0  0  0  0  0  0  0  0  0
   18.3118   17.7250   21.8640 H   0  0  0  0  0  0  0  0  0  0  0  0
   17.5774   19.2768   21.4516 H   0  0  0  0  0  0  0  0  0  0  0  0
   17.2881   17.7408   19.9955 C   0  0  0  0  0  0  0  0  0  0  0  0
   16.5140   18.4190   19.3492 O   0  5  0  0  0  0  0  0  0  0  0  0
   17.4280   16.5440   19.8380 O   0  0  0  0  0  0  0  0  0  0  0  0
  1  2  1  0  0  0  0
  1  3  1  0  0  0  0
  1  4  2  0  0  0  0
  4  5  1  0  0  0  0
  4  6  1  0  0  0  0
  6  7  1  0  0  0  0
  6  8  1  0  0  0  0
  6  9  1  0  0  0  0
  9 10  1  0  0  0  0
  9 11  1  0  0  0  0
  9 12  1  0  0  0  0
 12 13  1  0  0  0  0
 12 14  1  0  0  0  0
 12 15  1  0  0  0  0
 15 16  1  0  0  0  0
 15 17  1  0  0  0  0
 15 18  1  0  0  0  0
 18 19  1  0  0  0  0
 18 20  2  0  0  0  0
M  END
> <VConfSearch Rank>
244

> <Conf_Id>
38

> <Delta U+W>
-0.381

> <U+W>
-52.126

> <U>
7.601

> <W>
-59.727

> <W(PB)>
-61.964

> <W(SA)>
2.236

> <Valence>
9.602

> <Coulomb>
-2.686

> <VdW>
0.685

> <VdW6>
-6.453

> <VdW12>
7.139

> <Bond>
0.125

> <Angle>
2.485

> <Pdih>
6.991

> <Idih>
0.001

> <Tether>
0.000

$$$$
VeraChem MOL file


 20 19  0  0  0  0  0  0  0  0999 V2000     
   16.7132   17.6749   20.9116 C   0  0  0  0  0  0  0  0  0  0  0  0
   16.6835   16.9911   21.7584 H   0  0  0  0  0  0  0  0  0  0  0  0
   15.7784   17.8621   20.3859 H   0  0  0  0  0  0  0  0  0  0  0  0
   17.8493   18.2648   20.5308 C   0  0  0  0  0  0  0  0  0  0  0  0
   17.8573   18.9469   19.6809 H   0  0  0  0  0  0  0  0  0  0  0  0
   19.1838   18.0532   21.2105 C   0  0  0  0  0  0  0  0  0  0  0  0
   19.9511   17.8386   20.4547 H   0  0  0  0  0  0  0  0  0  0  0  0
   19.1386   17.1779   21.8728 H   0  0  0  0  0  0  0  0  0  0  0  0
   19.5961   19.2956   22.0275 C   0  0  0  0  0  0  0  0  0  0  0  0
   19.6428   20.1691   21.3624 H   0  0  0  0  0  0  0  0  0  0  0  0
   18.8239   19.5100   22.7791 H   0  0  0  0  0  0  0  0  0  0  0  0
   20.9599   19.0971   22.7267 C   0  0  0  0  0  0  0  0  0  0  0  0
   21.7367   18.8929   21.9766 H   0  0  0  0  0  0  0  0  0  0  0  0
   20.9083   18.2133   23.3769 H   0  0  0  0  0  0  0  0  0  0  0  0
   21.3778   20.3242   23.5778 C   0  0  0  0  0  0  0  0  0  0  0  0
   20.5989   20.5580   24.3137 H   0  0  0  0  0  0  0  0  0  0  0  0
   22.2869   20.0861   24.1425 H   0  0  0  0  0  0  0  0  0  0  0  0
   21.6656   21.5786   22.7578 C   0  0  0  0  0  0  0  0  0  0  0  0
   20.8409   22.4712   22.7620 O   0  5  0  0  0  0  0  0  0  0  0  0
   22.7136   21.6336   22.1448 O   0  0  0  0  0  0  0  0  0  0  0  0
  1  2  1  0  0  0  0
  1  3  1  0  0  0  0
  1  4  2  0  0  0  0
  4  5  1  0  0  0  0
  4  6  1  0  0  0  0
  6  7  1  0  0  0  0
  6  8  1  0  0  0  0
  6  9  1  0  0  0  0
  9 10  1  0  0  0  0
  9 11  1  0  0  0  0
  9 12  1  0  0  0  0
 12 13  1  0  0  0  0
 12 14  1  0  0  0  0
 12 15  1  0  0  0  0
 15 16  1  0  0  0  0
 15 17  1  0  0  0  0
 15 18  1  0  0  0  0
 18 19  1  0  0  0  0
 18 20  2  0  0  0  0
M  END
> <VConfSearch Rank>
245

> <Conf_Id>
58

> <Delta U+W>
0.019

> <U+W>
-51.727

> <U>
8.963

> <W>
-60.690

> <W(PB)>
-62.934

> <W(SA)>
2.244

> <Valence>
9.327

> <Coulomb>
-0.780

> <VdW>
0.417

> <VdW6>
-6.635

> <VdW12>
7.052

> <Bond>
0.105

> <Angle>
2.399

> <Pdih>
6.822

> <Idih>
0.000

> <Tether>
0.000

$$$$
VeraChem MOL file


 20 19  0  0  0  0  0  0  0  0999 V2000     
   17.4969   16.6718   23.0747 C   0  0  0  0  0  0  0  0  0  0  0  0
   16.6188   17.2827   22.8711 H   0  0  0  0  0  0  0  0  0  0  0  0
   17.3800   15.8429   23.7708 H   0  0  0  0  0  0  0  0  0  0  0  0
   18.6738   16.9275   22.4975 C   0  0  0  0  0  0  0  0  0  0  0  0
   19.5408   16.3044   22.7157 H   0  0  0  0  0  0  0  0  0  0  0  0
   18.9116   18.0586   21.5219 C   0  0  0  0  0  0  0  0  0  0  0  0
   17.9537   18.4637   21.1685 H   0  0  0  0  0  0  0  0  0  0  0  0
   19.4388   17.6762   20.6376 H   0  0  0  0  0  0  0  0  0  0  0  0
   19.7402   19.1879   22.1694 C   0  0  0  0  0  0  0  0  0  0  0  0
   19.2121   19.5645   23.0563 H   0  0  0  0  0  0  0  0  0  0  0  0
   20.6987   18.7806   22.5200 H   0  0  0  0  0  0  0  0  0  0  0  0
   19.9951   20.3510   21.1844 C   0  0  0  0  0  0  0  0  0  0  0  0
   19.0322   20.7411   20.8276 H   0  0  0  0  0  0  0  0  0  0  0  0
   20.5327   19.9797   20.3008 H   0  0  0  0  0  0  0  0  0  0  0  0
   20.8008   21.5102   21.8262 C   0  0  0  0  0  0  0  0  0  0  0  0
   20.8502   22.3533   21.1270 H   0  0  0  0  0  0  0  0  0  0  0  0
   20.2904   21.8736   22.7263 H   0  0  0  0  0  0  0  0  0  0  0  0
   22.2343   21.1390   22.1953 C   0  0  0  0  0  0  0  0  0  0  0  0
   23.0517   21.0525   21.3000 O   0  5  0  0  0  0  0  0  0  0  0  0
   22.4985   20.9571   23.3675 O   0  0  0  0  0  0  0  0  0  0  0  0
  1  2  1  0  0  0  0
  1  3  1  0  0  0  0
  1  4  2  0  0  0  0
  4  5  1  0  0  0  0
  4  6  1  0  0  0  0
  6  7  1  0  0  0  0
  6  8  1  0  0  0  0
  6  9  1  0  0  0  0
  9 10  1  0  0  0  0
  9 11  1  0  0  0  0
  9 12  1  0  0  0  0
 12 13  1  0  0  0  0
 12 14  1  0  0  0  0
 12 15  1  0  0  0  0
 15 16  1  0  0  0  0
 15 17  1  0  0  0  0
 15 18  1  0  0  0  0
 18 19  1  0  0  0  0
 18 20  2  0  0  0  0
M  END
> <VConfSearch Rank>
246

> <Conf_Id>
54

> <Delta U+W>
-0.048

> <U+W>
-51.793

> <U>
8.964

> <W>
-60.756

> <W(PB)>
-63.007

> <W(SA)>
2.251

> <Valence>
9.327

> <Coulomb>
-0.780

> <VdW>
0.417

> <VdW6>
-6.635

> <VdW12>
7.052

> <Bond>
0.105

> <Angle>
2.399

> <Pdih>
6.822

> <Idih>
0.000

> <Tether>
0.000

$$$$
VeraChem MOL file


 20 19  0  0  0  0  0  0  0  0999 V2000     
   20.4958   21.1965   19.4605 C   0  0  0  0  0  0  0  0  0  0  0  0
   21.4285   21.5765   19.0469 H   0  0  0  0  0  0  0  0  0  0  0  0
   19.6914   20.9740   18.7613 H   0  0  0  0  0  0  0  0  0  0  0  0
   20.3492   21.0092   20.7747 C   0  0  0  0  0  0  0  0  0  0  0  0
   21.1660   21.2418   21.4573 H   0  0  0  0  0  0  0  0  0  0  0  0
   19.0816   20.4918   21.4207 C   0  0  0  0  0  0  0  0  0  0  0  0
   18.2335   20.6345   20.7375 H   0  0  0  0  0  0  0  0  0  0  0  0
   18.8533   21.0788   22.3203 H   0  0  0  0  0  0  0  0  0  0  0  0
   19.1758   18.9932   21.7860 C   0  0  0  0  0  0  0  0  0  0  0  0
   18.1867   18.6500   22.1188 H   0  0  0  0  0  0  0  0  0  0  0  0
   19.4218   18.4126   20.8863 H   0  0  0  0  0  0  0  0  0  0  0  0
   20.2170   18.7083   22.8946 C   0  0  0  0  0  0  0  0  0  0  0  0
   19.9795   19.3000   23.7896 H   0  0  0  0  0  0  0  0  0  0  0  0
   21.2104   19.0310   22.5563 H   0  0  0  0  0  0  0  0  0  0  0  0
   20.2858   17.2064   23.2751 C   0  0  0  0  0  0  0  0  0  0  0  0
   20.4890   16.5991   22.3847 H   0  0  0  0  0  0  0  0  0  0  0  0
   21.1191   17.0421   23.9684 H   0  0  0  0  0  0  0  0  0  0  0  0
   19.0222   16.6777   23.9479 C   0  0  0  0  0  0  0  0  0  0  0  0
   18.2716   15.9791   23.2955 O   0  5  0  0  0  0  0  0  0  0  0  0
   18.8279   16.9704   25.1113 O   0  0  0  0  0  0  0  0  0  0  0  0
  1  2  1  0  0  0  0
  1  3  1  0  0  0  0
  1  4  2  0  0  0  0
  4  5  1  0  0  0  0
  4  6  1  0  0  0  0
  6  7  1  0  0  0  0
  6  8  1  0  0  0  0
  6  9  1  0  0  0  0
  9 10  1  0  0  0  0
  9 11  1  0  0  0  0
  9 12  1  0  0  0  0
 12 13  1  0  0  0  0
 12 14  1  0  0  0  0
 12 15  1  0  0  0  0
 15 16  1  0  0  0  0
 15 17  1  0  0  0  0
 15 18  1  0  0  0  0
 18 19  1  0  0  0  0
 18 20  2  0  0  0  0
M  END
> <VConfSearch Rank>
247

> <Conf_Id>
27

> <Delta U+W>
0.478

> <U+W>
-51.267

> <U>
9.192

> <W>
-60.459

> <W(PB)>
-62.649

> <W(SA)>
2.190

> <Valence>
9.572

> <Coulomb>
-0.884

> <VdW>
0.504

> <VdW6>
-7.168

> <VdW12>
7.672

> <Bond>
0.127

> <Angle>
2.504

> <Pdih>
6.941

> <Idih>
0.001

> <Tether>
0.000

$$$$
VeraChem MOL file


 20 19  0  0  0  0  0  0  0  0999 V2000     
   21.6978   16.1383   22.1042 C   0  0  0  0  0  0  0  0  0  0  0  0
   22.7099   16.5163   22.2396 H   0  0  0  0  0  0  0  0  0  0  0  0
   21.5834   15.1854   21.5902 H   0  0  0  0  0  0  0  0  0  0  0  0
   20.6354   16.8156   22.5469 C   0  0  0  0  0  0  0  0  0  0  0  0
   19.6312   16.4176   22.4035 H   0  0  0  0  0  0  0  0  0  0  0  0
   20.7179   18.1408   23.2742 C   0  0  0  0  0  0  0  0  0  0  0  0
   21.7296   18.2784   23.6793 H   0  0  0  0  0  0  0  0  0  0  0  0
   20.0393   18.1365   24.1376 H   0  0  0  0  0  0  0  0  0  0  0  0
   20.3854   19.3378   22.3552 C   0  0  0  0  0  0  0  0  0  0  0  0
   20.5905   20.2695   22.9000 H   0  0  0  0  0  0  0  0  0  0  0  0
   21.0570   19.3276   21.4856 H   0  0  0  0  0  0  0  0  0  0  0  0
   18.9140   19.3410   21.8809 C   0  0  0  0  0  0  0  0  0  0  0  0
   18.2438   19.3250   22.7515 H   0  0  0  0  0  0  0  0  0  0  0  0
   18.7051   18.4322   21.3003 H   0  0  0  0  0  0  0  0  0  0  0  0
   18.5927   20.5812   21.0109 C   0  0  0  0  0  0  0  0  0  0  0  0
   18.7789   21.5009   21.5783 H   0  0  0  0  0  0  0  0  0  0  0  0
   19.2460   20.6051   20.1304 H   0  0  0  0  0  0  0  0  0  0  0  0
   17.1467   20.6072   20.5289 C   0  0  0  0  0  0  0  0  0  0  0  0
   16.8855   20.0736   19.4688 O   0  5  0  0  0  0  0  0  0  0  0  0
   16.3165   21.1451   21.2347 O   0  0  0  0  0  0  0  0  0  0  0  0
  1  2  1  0  0  0  0
  1  3  1  0  0  0  0
  1  4  2  0  0  0  0
  4  5  1  0  0  0  0
  4  6  1  0  0  0  0
  6  7  1  0  0  0  0
  6  8  1  0  0  0  0
  6  9  1  0  0  0  0
  9 10  1  0  0  0  0
  9 11  1  0  0  0  0
  9 12  1  0  0  0  0
 12 13  1  0  0  0  0
 12 14  1  0  0  0  0
 12 15  1  0  0  0  0
 15 16  1  0  0  0  0
 15 17  1  0  0  0  0
 15 18  1  0  0  0  0
 18 19  1  0  0  0  0
 18 20  2  0  0  0  0
M  END
> <VConfSearch Rank>
248

> <Conf_Id>
41

> <Delta U+W>
-0.634

> <U+W>
-52.379

> <U>
7.828

> <W>
-60.207

> <W(PB)>
-62.449

> <W(SA)>
2.242

> <Valence>
9.300

> <Coulomb>
-2.080

> <VdW>
0.608

> <VdW6>
-6.341

> <VdW12>
6.949

> <Bond>
0.103

> <Angle>
2.334

> <Pdih>
6.862

> <Idih>
0.001

> <Tether>
0.000

$$$$
VeraChem MOL file


 20 19  0  0  0  0  0  0  0  0999 V2000     
   22.2722   18.5768   24.7162 C   0  0  0  0  0  0  0  0  0  0  0  0
   22.5741   18.0278   25.6065 H   0  0  0  0  0  0  0  0  0  0  0  0
   23.0246   19.1957   24.2300 H   0  0  0  0  0  0  0  0  0  0  0  0
   21.0271   18.4898   24.2409 C   0  0  0  0  0  0  0  0  0  0  0  0
   20.2888   17.8640   24.7418 H   0  0  0  0  0  0  0  0  0  0  0  0
   20.5351   19.2221   23.0124 C   0  0  0  0  0  0  0  0  0  0  0  0
   21.2456   20.0106   22.7297 H   0  0  0  0  0  0  0  0  0  0  0  0
   19.5842   19.7181   23.2463 H   0  0  0  0  0  0  0  0  0  0  0  0
   20.3438   18.2503   21.8266 C   0  0  0  0  0  0  0  0  0  0  0  0
   21.2770   17.6912   21.6723 H   0  0  0  0  0  0  0  0  0  0  0  0
   19.5771   17.5058   22.0819 H   0  0  0  0  0  0  0  0  0  0  0  0
   19.9682   18.9576   20.5012 C   0  0  0  0  0  0  0  0  0  0  0  0
   19.9281   18.2076   19.6992 H   0  0  0  0  0  0  0  0  0  0  0  0
   20.7676   19.6591   20.2264 H   0  0  0  0  0  0  0  0  0  0  0  0
   18.6146   19.7183   20.5403 C   0  0  0  0  0  0  0  0  0  0  0  0
   18.6453   20.5258   21.2806 H   0  0  0  0  0  0  0  0  0  0  0  0
   18.4382   20.1949   19.5690 H   0  0  0  0  0  0  0  0  0  0  0  0
   17.4092   18.8302   20.8355 C   0  0  0  0  0  0  0  0  0  0  0  0
   17.0337   18.0676   19.9667 O   0  5  0  0  0  0  0  0  0  0  0  0
   16.8668   18.9364   21.9178 O   0  0  0  0  0  0  0  0  0  0  0  0
  1  2  1  0  0  0  0
  1  3  1  0  0  0  0
  1  4  2  0  0  0  0
  4  5  1  0  0  0  0
  4  6  1  0  0  0  0
  6  7  1  0  0  0  0
  6  8  1  0  0  0  0
  6  9  1  0  0  0  0
  9 10  1  0  0  0  0
  9 11  1  0  0  0  0
  9 12  1  0  0  0  0
 12 13  1  0  0  0  0
 12 14  1  0  0  0  0
 12 15  1  0  0  0  0
 15 16  1  0  0  0  0
 15 17  1  0  0  0  0
 15 18  1  0  0  0  0
 18 19  1  0  0  0  0
 18 20  2  0  0  0  0
M  END
> <VConfSearch Rank>
249

> <Conf_Id>
84

> <Delta U+W>
0.942

> <U+W>
-50.803

> <U>
10.196

> <W>
-60.999

> <W(PB)>
-63.182

> <W(SA)>
2.182

> <Valence>
9.837

> <Coulomb>
0.032

> <VdW>
0.328

> <VdW6>
-7.642

> <VdW12>
7.969

> <Bond>
0.151

> <Angle>
2.748

> <Pdih>
6.937

> <Idih>
0.001

> <Tether>
0.000

$$$$
VeraChem MOL file


 20 19  0  0  0  0  0  0  0  0999 V2000     
   20.2028   17.5241   25.0450 C   0  0  0  0  0  0  0  0  0  0  0  0
   20.4367   17.6122   26.1046 H   0  0  0  0  0  0  0  0  0  0  0  0
   19.3917   16.8538   24.7651 H   0  0  0  0  0  0  0  0  0  0  0  0
   20.8849   18.2149   24.1279 C   0  0  0  0  0  0  0  0  0  0  0  0
   21.6928   18.8813   24.4293 H   0  0  0  0  0  0  0  0  0  0  0  0
   20.6180   18.1433   22.6408 C   0  0  0  0  0  0  0  0  0  0  0  0
   19.9832   17.2771   22.4097 H   0  0  0  0  0  0  0  0  0  0  0  0
   21.5647   17.9934   22.1047 H   0  0  0  0  0  0  0  0  0  0  0  0
   19.9342   19.4306   22.1346 C   0  0  0  0  0  0  0  0  0  0  0  0
   18.9913   19.5776   22.6796 H   0  0  0  0  0  0  0  0  0  0  0  0
   20.5705   20.2969   22.3618 H   0  0  0  0  0  0  0  0  0  0  0  0
   19.6575   19.3747   20.6152 C   0  0  0  0  0  0  0  0  0  0  0  0
   19.0096   18.5172   20.3861 H   0  0  0  0  0  0  0  0  0  0  0  0
   20.6026   19.2085   20.0807 H   0  0  0  0  0  0  0  0  0  0  0  0
   18.9989   20.6730   20.0808 C   0  0  0  0  0  0  0  0  0  0  0  0
   19.6213   21.5422   20.3257 H   0  0  0  0  0  0  0  0  0  0  0  0
   18.9334   20.6275   18.9873 H   0  0  0  0  0  0  0  0  0  0  0  0
   17.5895   20.9177   20.6124 C   0  0  0  0  0  0  0  0  0  0  0  0
   17.4347   21.7735   21.4613 O   0  5  0  0  0  0  0  0  0  0  0  0
   16.6812   20.2537   20.1528 O   0  0  0  0  0  0  0  0  0  0  0  0
  1  2  1  0  0  0  0
  1  3  1  0  0  0  0
  1  4  2  0  0  0  0
  4  5  1  0  0  0  0
  4  6  1  0  0  0  0
  6  7  1  0  0  0  0
  6  8  1  0  0  0  0
  6  9  1  0  0  0  0
  9 10  1  0  0  0  0
  9 11  1  0  0  0  0
  9 12  1  0  0  0  0
 12 13  1  0  0  0  0
 12 14  1  0  0  0  0
 12 15  1  0  0  0  0
 15 16  1  0  0  0  0
 15 17  1  0  0  0  0
 15 18  1  0  0  0  0
 18 19  1  0  0  0  0
 18 20  2  0  0  0  0
M  END
> <VConfSearch Rank>
250

> <Conf_Id>
81

> <Delta U+W>
-0.051

> <U+W>
-51.796

> <U>
9.412

> <W>
-61.209

> <W(PB)>
-63.452

> <W(SA)>
2.243

> <Valence>
9.329

> <Coulomb>
-0.323

> <VdW>
0.406

> <VdW6>
-6.640

> <VdW12>
7.046

> <Bond>
0.105

> <Angle>
2.401

> <Pdih>
6.823

> <Idih>
0.000

> <Tether>
0.000

$$$$
VeraChem MOL file


 20 19  0  0  0  0  0  0  0  0999 V2000     
   17.4409   21.3469   22.7580 C   0  0  0  0  0  0  0  0  0  0  0  0
   17.8815   22.3162   22.5307 H   0  0  0  0  0  0  0  0  0  0  0  0
   16.3624   21.3077   22.9010 H   0  0  0  0  0  0  0  0  0  0  0  0
   18.1904   20.2458   22.8556 C   0  0  0  0  0  0  0  0  0  0  0  0
   17.7299   19.2857   23.0863 H   0  0  0  0  0  0  0  0  0  0  0  0
   19.6933   20.2241   22.6753 C   0  0  0  0  0  0  0  0  0  0  0  0
   20.1589   19.6221   23.4663 H   0  0  0  0  0  0  0  0  0  0  0  0
   20.0953   21.2390   22.7962 H   0  0  0  0  0  0  0  0  0  0  0  0
   20.1142   19.6918   21.2846 C   0  0  0  0  0  0  0  0  0  0  0  0
   19.7087   20.3599   20.5126 H   0  0  0  0  0  0  0  0  0  0  0  0
   21.2076   19.7531   21.1960 H   0  0  0  0  0  0  0  0  0  0  0  0
   19.6574   18.2417   20.9800 C   0  0  0  0  0  0  0  0  0  0  0  0
   19.9830   17.9762   19.9648 H   0  0  0  0  0  0  0  0  0  0  0  0
   18.5603   18.1982   20.9677 H   0  0  0  0  0  0  0  0  0  0  0  0
   20.1989   17.1756   21.9712 C   0  0  0  0  0  0  0  0  0  0  0  0
   19.8295   17.3679   22.9849 H   0  0  0  0  0  0  0  0  0  0  0  0
   19.8192   16.1880   21.6850 H   0  0  0  0  0  0  0  0  0  0  0  0
   21.7213   17.0822   22.0148 C   0  0  0  0  0  0  0  0  0  0  0  0
   22.2961   17.4964   23.0023 O   0  5  0  0  0  0  0  0  0  0  0  0
   22.2914   16.5806   21.0657 O   0  0  0  0  0  0  0  0  0  0  0  0
  1  2  1  0  0  0  0
  1  3  1  0  0  0  0
  1  4  2  0  0  0  0
  4  5  1  0  0  0  0
  4  6  1  0  0  0  0
  6  7  1  0  0  0  0
  6  8  1  0  0  0  0
  6  9  1  0  0  0  0
  9 10  1  0  0  0  0
  9 11  1  0  0  0  0
  9 12  1  0  0  0  0
 12 13  1  0  0  0  0
 12 14  1  0  0  0  0
 12 15  1  0  0  0  0
 15 16  1  0  0  0  0
 15 17  1  0  0  0  0
 15 18  1  0  0  0  0
 18 19  1  0  0  0  0
 18 20  2  0  0  0  0
M  END
> <VConfSearch Rank>
251

> <Conf_Id>
86

> <Delta U+W>
1.248

> <U+W>
-50.498

> <U>
10.404

> <W>
-60.901

> <W(PB)>
-63.061

> <W(SA)>
2.159

> <Valence>
10.021

> <Coulomb>
0.094

> <VdW>
0.289

> <VdW6>
-8.409

> <VdW12>
8.698

> <Bond>
0.179

> <Angle>
2.939

> <Pdih>
6.902

> <Idih>
0.001

> <Tether>
0.000

$$$$
VeraChem MOL file


 20 19  0  0  0  0  0  0  0  0999 V2000     
   20.6160   17.4684   24.5817 C   0  0  0  0  0  0  0  0  0  0  0  0
   21.4046   16.7927   24.9080 H   0  0  0  0  0  0  0  0  0  0  0  0
   20.4707   18.3829   25.1545 H   0  0  0  0  0  0  0  0  0  0  0  0
   19.8606   17.1848   23.5173 C   0  0  0  0  0  0  0  0  0  0  0  0
   20.0239   16.2651   22.9563 H   0  0  0  0  0  0  0  0  0  0  0  0
   18.7479   18.0740   23.0042 C   0  0  0  0  0  0  0  0  0  0  0  0
   18.5176   18.8644   23.7314 H   0  0  0  0  0  0  0  0  0  0  0  0
   17.8328   17.4767   22.8960 H   0  0  0  0  0  0  0  0  0  0  0  0
   19.0897   18.7130   21.6393 C   0  0  0  0  0  0  0  0  0  0  0  0
   19.3240   17.9232   20.9124 H   0  0  0  0  0  0  0  0  0  0  0  0
   18.1990   19.2326   21.2604 H   0  0  0  0  0  0  0  0  0  0  0  0
   20.2682   19.7116   21.7261 C   0  0  0  0  0  0  0  0  0  0  0  0
   21.1612   19.1918   22.0983 H   0  0  0  0  0  0  0  0  0  0  0  0
   20.0352   20.4991   22.4560 H   0  0  0  0  0  0  0  0  0  0  0  0
   20.6023   20.3606   20.3578 C   0  0  0  0  0  0  0  0  0  0  0  0
   21.5152   20.9605   20.4503 H   0  0  0  0  0  0  0  0  0  0  0  0
   20.8066   19.5844   19.6104 H   0  0  0  0  0  0  0  0  0  0  0  0
   19.5064   21.2772   19.8217 C   0  0  0  0  0  0  0  0  0  0  0  0
   19.3892   22.3805   20.3179 O   0  5  0  0  0  0  0  0  0  0  0  0
   18.8067   20.8695   18.9154 O   0  0  0  0  0  0  0  0  0  0  0  0
  1  2  1  0  0  0  0
  1  3  1  0  0  0  0
  1  4  2  0  0  0  0
  4  5  1  0  0  0  0
  4  6  1  0  0  0  0
  6  7  1  0  0  0  0
  6  8  1  0  0  0  0
  6  9  1  0  0  0  0
  9 10  1  0  0  0  0
  9 11  1  0  0  0  0
  9 12  1  0  0  0  0
 12 13  1  0  0  0  0
 12 14  1  0  0  0  0
 12 15  1  0  0  0  0
 15 16  1  0  0  0  0
 15 17  1  0  0  0  0
 15 18  1  0  0  0  0
 18 19  1  0  0  0  0
 18 20  2  0  0  0  0
M  END
> <VConfSearch Rank>
252

> <Conf_Id>
28

> <Delta U+W>
0.446

> <U+W>
-51.299

> <U>
9.295

> <W>
-60.594

> <W(PB)>
-62.806

> <W(SA)>
2.212

> <Valence>
9.495

> <Coulomb>
-0.610

> <VdW>
0.409

> <VdW6>
-7.332

> <VdW12>
7.741

> <Bond>
0.126

> <Angle>
2.497

> <Pdih>
6.872

> <Idih>
0.000

> <Tether>
0.000

$$$$
VeraChem MOL file


 20 19  0  0  0  0  0  0  0  0999 V2000     
   21.6286   21.7617   21.6804 C   0  0  0  0  0  0  0  0  0  0  0  0
   21.7868   21.4311   22.7047 H   0  0  0  0  0  0  0  0  0  0  0  0
   22.2895   22.5428   21.3086 H   0  0  0  0  0  0  0  0  0  0  0  0
   20.6756   21.2432   20.8976 C   0  0  0  0  0  0  0  0  0  0  0  0
   20.5672   21.6139   19.8786 H   0  0  0  0  0  0  0  0  0  0  0  0
   19.6823   20.1561   21.2732 C   0  0  0  0  0  0  0  0  0  0  0  0
   19.8468   19.2941   20.6140 H   0  0  0  0  0  0  0  0  0  0  0  0
   18.6686   20.5146   21.0504 H   0  0  0  0  0  0  0  0  0  0  0  0
   19.7413   19.7000   22.7521 C   0  0  0  0  0  0  0  0  0  0  0  0
   20.7244   19.2570   22.9628 H   0  0  0  0  0  0  0  0  0  0  0  0
   19.6472   20.5806   23.4020 H   0  0  0  0  0  0  0  0  0  0  0  0
   18.6255   18.6958   23.1336 C   0  0  0  0  0  0  0  0  0  0  0  0
   17.6456   19.1634   22.9677 H   0  0  0  0  0  0  0  0  0  0  0  0
   18.6890   18.4902   24.2111 H   0  0  0  0  0  0  0  0  0  0  0  0
   18.6823   17.3467   22.3658 C   0  0  0  0  0  0  0  0  0  0  0  0
   17.8525   16.7089   22.6919 H   0  0  0  0  0  0  0  0  0  0  0  0
   18.5454   17.5068   21.2904 H   0  0  0  0  0  0  0  0  0  0  0  0
   19.9712   16.5590   22.5830 C   0  0  0  0  0  0  0  0  0  0  0  0
   20.1554   16.0513   23.6720 O   0  5  0  0  0  0  0  0  0  0  0  0
   20.7466   16.4556   21.6530 O   0  0  0  0  0  0  0  0  0  0  0  0
  1  2  1  0  0  0  0
  1  3  1  0  0  0  0
  1  4  2  0  0  0  0
  4  5  1  0  0  0  0
  4  6  1  0  0  0  0
  6  7  1  0  0  0  0
  6  8  1  0  0  0  0
  6  9  1  0  0  0  0
  9 10  1  0  0  0  0
  9 11  1  0  0  0  0
  9 12  1  0  0  0  0
 12 13  1  0  0  0  0
 12 14  1  0  0  0  0
 12 15  1  0  0  0  0
 15 16  1  0  0  0  0
 15 17  1  0  0  0  0
 15 18  1  0  0  0  0
 18 19  1  0  0  0  0
 18 20  2  0  0  0  0
M  END
> <VConfSearch Rank>
253

> <Conf_Id>
53

> <Delta U+W>
0.549

> <U+W>
-51.197

> <U>
10.870

> <W>
-62.067

> <W(PB)>
-64.228

> <W(SA)>
2.161

> <Valence>
8.803

> <Coulomb>
1.020

> <VdW>
1.048

> <VdW6>
-8.312

> <VdW12>
9.360

> <Bond>
0.212

> <Angle>
3.379

> <Pdih>
5.211

> <Idih>
0.001

> <Tether>
0.000

$$$$
VeraChem MOL file


 20 19  0  0  0  0  0  0  0  0999 V2000     
   19.3870   17.5441   19.6055 C   0  0  0  0  0  0  0  0  0  0  0  0
   20.4449   17.7927   19.5574 H   0  0  0  0  0  0  0  0  0  0  0  0
   18.8566   17.4559   18.6591 H   0  0  0  0  0  0  0  0  0  0  0  0
   18.7542   17.3466   20.7671 C   0  0  0  0  0  0  0  0  0  0  0  0
   17.6936   17.0967   20.7592 H   0  0  0  0  0  0  0  0  0  0  0  0
   19.3657   17.4426   22.1551 C   0  0  0  0  0  0  0  0  0  0  0  0
   19.6087   16.4301   22.5033 H   0  0  0  0  0  0  0  0  0  0  0  0
   18.6031   17.8036   22.8571 H   0  0  0  0  0  0  0  0  0  0  0  0
   20.6242   18.3405   22.2801 C   0  0  0  0  0  0  0  0  0  0  0  0
   21.0067   18.2651   23.3072 H   0  0  0  0  0  0  0  0  0  0  0  0
   21.4217   17.9425   21.6390 H   0  0  0  0  0  0  0  0  0  0  0  0
   20.3918   19.8363   21.9404 C   0  0  0  0  0  0  0  0  0  0  0  0
   20.0791   19.9329   20.8928 H   0  0  0  0  0  0  0  0  0  0  0  0
   21.3496   20.3683   22.0224 H   0  0  0  0  0  0  0  0  0  0  0  0
   19.3491   20.5481   22.8451 C   0  0  0  0  0  0  0  0  0  0  0  0
   19.2487   21.5930   22.5295 H   0  0  0  0  0  0  0  0  0  0  0  0
   18.3597   20.0924   22.7252 H   0  0  0  0  0  0  0  0  0  0  0  0
   19.7096   20.5539   24.3278 C   0  0  0  0  0  0  0  0  0  0  0  0
   19.0678   19.8472   25.0799 O   0  5  0  0  0  0  0  0  0  0  0  0
   20.6128   21.2802   24.6944 O   0  0  0  0  0  0  0  0  0  0  0  0
  1  2  1  0  0  0  0
  1  3  1  0  0  0  0
  1  4  2  0  0  0  0
  4  5  1  0  0  0  0
  4  6  1  0  0  0  0
  6  7  1  0  0  0  0
  6  8  1  0  0  0  0
  6  9  1  0  0  0  0
  9 10  1  0  0  0  0
  9 11  1  0  0  0  0
  9 12  1  0  0  0  0
 12 13  1  0  0  0  0
 12 14  1  0  0  0  0
 12 15  1  0  0  0  0
 15 16  1  0  0  0  0
 15 17  1  0  0  0  0
 15 18  1  0  0  0  0
 18 19  1  0  0  0  0
 18 20  2  0  0  0  0
M  END
> <VConfSearch Rank>
254

> <Conf_Id>
66

> <Delta U+W>
1.737

> <U+W>
-50.008

> <U>
11.091

> <W>
-61.099

> <W(PB)>
-63.213

> <W(SA)>
2.114

> <Valence>
9.664

> <Coulomb>
0.658

> <VdW>
0.769

> <VdW6>
-9.171

> <VdW12>
9.940

> <Bond>
0.244

> <Angle>
3.658

> <Pdih>
5.762

> <Idih>
0.001

> <Tether>
0.000

$$$$
VeraChem MOL file


 20 19  0  0  0  0  0  0  0  0999 V2000     
   18.6844   19.8585   24.4076 C   0  0  0  0  0  0  0  0  0  0  0  0
   17.7495   19.6582   23.8889 H   0  0  0  0  0  0  0  0  0  0  0  0
   18.7143   19.6396   25.4735 H   0  0  0  0  0  0  0  0  0  0  0  0
   19.7556   20.3564   23.7802 C   0  0  0  0  0  0  0  0  0  0  0  0
   20.6664   20.5404   24.3494 H   0  0  0  0  0  0  0  0  0  0  0  0
   19.8594   20.7026   22.3037 C   0  0  0  0  0  0  0  0  0  0  0  0
   20.8807   20.4943   21.9612 H   0  0  0  0  0  0  0  0  0  0  0  0
   19.7415   21.7882   22.1896 H   0  0  0  0  0  0  0  0  0  0  0  0
   18.8566   19.9810   21.3657 C   0  0  0  0  0  0  0  0  0  0  0  0
   17.8309   20.2314   21.6668 H   0  0  0  0  0  0  0  0  0  0  0  0
   18.9734   20.3829   20.3501 H   0  0  0  0  0  0  0  0  0  0  0  0
   19.0146   18.4400   21.3108 C   0  0  0  0  0  0  0  0  0  0  0  0
   18.2074   18.0276   20.6899 H   0  0  0  0  0  0  0  0  0  0  0  0
   18.8827   18.0087   22.3119 H   0  0  0  0  0  0  0  0  0  0  0  0
   20.3752   17.9768   20.7282 C   0  0  0  0  0  0  0  0  0  0  0  0
   20.5456   18.4394   19.7489 H   0  0  0  0  0  0  0  0  0  0  0  0
   21.1985   18.2843   21.3828 H   0  0  0  0  0  0  0  0  0  0  0  0
   20.4588   16.4643   20.5565 C   0  0  0  0  0  0  0  0  0  0  0  0
   20.9076   15.8052   21.4736 O   0  5  0  0  0  0  0  0  0  0  0  0
   20.0593   15.9828   19.5146 O   0  0  0  0  0  0  0  0  0  0  0  0
  1  2  1  0  0  0  0
  1  3  1  0  0  0  0
  1  4  2  0  0  0  0
  4  5  1  0  0  0  0
  4  6  1  0  0  0  0
  6  7  1  0  0  0  0
  6  8  1  0  0  0  0
  6  9  1  0  0  0  0
  9 10  1  0  0  0  0
  9 11  1  0  0  0  0
  9 12  1  0  0  0  0
 12 13  1  0  0  0  0
 12 14  1  0  0  0  0
 12 15  1  0  0  0  0
 15 16  1  0  0  0  0
 15 17  1  0  0  0  0
 15 18  1  0  0  0  0
 18 19  1  0  0  0  0
 18 20  2  0  0  0  0
M  END
> <VConfSearch Rank>
255

> <Conf_Id>
64

> <Delta U+W>
0.366

> <U+W>
-51.379

> <U>
10.000

> <W>
-61.379

> <W(PB)>
-63.541

> <W(SA)>
2.162

> <Valence>
9.398

> <Coulomb>
-0.504

> <VdW>
1.105

> <VdW6>
-7.975

> <VdW12>
9.080

> <Bond>
0.216

> <Angle>
3.417

> <Pdih>
5.765

> <Idih>
0.001

> <Tether>
0.000

$$$$
VeraChem MOL file


 20 19  0  0  0  0  0  0  0  0999 V2000     
   18.5353   16.9301   20.4926 C   0  0  0  0  0  0  0  0  0  0  0  0
   19.0203   17.3041   19.5924 H   0  0  0  0  0  0  0  0  0  0  0  0
   17.4990   16.6081   20.4066 H   0  0  0  0  0  0  0  0  0  0  0  0
   19.1819   16.8710   21.6598 C   0  0  0  0  0  0  0  0  0  0  0  0
   18.6774   16.4956   22.5497 H   0  0  0  0  0  0  0  0  0  0  0  0
   20.6202   17.3005   21.8568 C   0  0  0  0  0  0  0  0  0  0  0  0
   21.1098   17.4684   20.8878 H   0  0  0  0  0  0  0  0  0  0  0  0
   21.1734   16.4880   22.3464 H   0  0  0  0  0  0  0  0  0  0  0  0
   20.7377   18.5755   22.7219 C   0  0  0  0  0  0  0  0  0  0  0  0
   20.2474   18.4077   23.6907 H   0  0  0  0  0  0  0  0  0  0  0  0
   21.7990   18.7632   22.9347 H   0  0  0  0  0  0  0  0  0  0  0  0
   20.1293   19.8199   22.0357 C   0  0  0  0  0  0  0  0  0  0  0  0
   19.0605   19.6550   21.8415 H   0  0  0  0  0  0  0  0  0  0  0  0
   20.6091   19.9758   21.0596 H   0  0  0  0  0  0  0  0  0  0  0  0
   20.2980   21.0944   22.8989 C   0  0  0  0  0  0  0  0  0  0  0  0
   19.8128   20.9584   23.8730 H   0  0  0  0  0  0  0  0  0  0  0  0
   21.3610   21.2850   23.0896 H   0  0  0  0  0  0  0  0  0  0  0  0
   19.7051   22.3363   22.2430 C   0  0  0  0  0  0  0  0  0  0  0  0
   20.4125   22.9839   21.4968 O   0  5  0  0  0  0  0  0  0  0  0  0
   18.5473   22.6156   22.4845 O   0  0  0  0  0  0  0  0  0  0  0  0
  1  2  1  0  0  0  0
  1  3  1  0  0  0  0
  1  4  2  0  0  0  0
  4  5  1  0  0  0  0
  4  6  1  0  0  0  0
  6  7  1  0  0  0  0
  6  8  1  0  0  0  0
  6  9  1  0  0  0  0
  9 10  1  0  0  0  0
  9 11  1  0  0  0  0
  9 12  1  0  0  0  0
 12 13  1  0  0  0  0
 12 14  1  0  0  0  0
 12 15  1  0  0  0  0
 15 16  1  0  0  0  0
 15 17  1  0  0  0  0
 15 18  1  0  0  0  0
 18 19  1  0  0  0  0
 18 20  2  0  0  0  0
M  END
> <VConfSearch Rank>
256

> <Conf_Id>
42

> <Delta U+W>
-0.601

> <U+W>
-52.347

> <U>
8.428

> <W>
-60.774

> <W(PB)>
-62.982

> <W(SA)>
2.208

> <Valence>
9.231

> <Coulomb>
-1.304

> <VdW>
0.501

> <VdW6>
-6.515

> <VdW12>
7.016

> <Bond>
0.103

> <Angle>
2.328

> <Pdih>
6.799

> <Idih>
0.000

> <Tether>
0.000

$$$$
VeraChem MOL file


 20 19  0  0  0  0  0  0  0  0999 V2000     
   16.7170   19.5531   22.5687 C   0  0  0  0  0  0  0  0  0  0  0  0
   16.8121   20.5700   22.9457 H   0  0  0  0  0  0  0  0  0  0  0  0
   15.9809   18.9084   23.0459 H   0  0  0  0  0  0  0  0  0  0  0  0
   17.4749   19.1085   21.5627 C   0  0  0  0  0  0  0  0  0  0  0  0
   17.3659   18.0860   21.2021 H   0  0  0  0  0  0  0  0  0  0  0  0
   18.5184   19.9439   20.8519 C   0  0  0  0  0  0  0  0  0  0  0  0
   18.4283   21.0006   21.1378 H   0  0  0  0  0  0  0  0  0  0  0  0
   18.3375   19.8994   19.7697 H   0  0  0  0  0  0  0  0  0  0  0  0
   19.9554   19.4524   21.1373 C   0  0  0  0  0  0  0  0  0  0  0  0
   20.0451   18.3972   20.8443 H   0  0  0  0  0  0  0  0  0  0  0  0
   20.6554   20.0136   20.5035 H   0  0  0  0  0  0  0  0  0  0  0  0
   20.3616   19.6249   22.6200 C   0  0  0  0  0  0  0  0  0  0  0  0
   19.6944   19.0344   23.2631 H   0  0  0  0  0  0  0  0  0  0  0  0
   20.2308   20.6758   22.9110 H   0  0  0  0  0  0  0  0  0  0  0  0
   21.8305   19.2062   22.8881 C   0  0  0  0  0  0  0  0  0  0  0  0
   22.5102   19.7692   22.2371 H   0  0  0  0  0  0  0  0  0  0  0  0
   22.1000   19.4567   23.9208 H   0  0  0  0  0  0  0  0  0  0  0  0
   22.0950   17.7157   22.6952 C   0  0  0  0  0  0  0  0  0  0  0  0
   22.6604   17.3578   21.6806 O   0  5  0  0  0  0  0  0  0  0  0  0
   21.7443   16.9535   23.5744 O   0  0  0  0  0  0  0  0  0  0  0  0
  1  2  1  0  0  0  0
  1  3  1  0  0  0  0
  1  4  2  0  0  0  0
  4  5  1  0  0  0  0
  4  6  1  0  0  0  0
  6  7  1  0  0  0  0
  6  8  1  0  0  0  0
  6  9  1  0  0  0  0
  9 10  1  0  0  0  0
  9 11  1  0  0  0  0
  9 12  1  0  0  0  0
 12 13  1  0  0  0  0
 12 14  1  0  0  0  0
 12 15  1  0  0  0  0
 15 16  1  0  0  0  0
 15 17  1  0  0  0  0
 15 18  1  0  0  0  0
 18 19  1  0  0  0  0
 18 20  2  0  0  0  0
M  END
> <VConfSearch Rank>
257

> <Conf_Id>
68

> <Delta U+W>
0.492

> <U+W>
-51.253

> <U>
10.179

> <W>
-61.432

> <W(PB)>
-63.627

> <W(SA)>
2.195

> <Valence>
9.483

> <Coulomb>
0.361

> <VdW>
0.335

> <VdW6>
-7.385

> <VdW12>
7.720

> <Bond>
0.125

> <Angle>
2.487

> <Pdih>
6.870

> <Idih>
0.001

> <Tether>
0.000

$$$$
VeraChem MOL file


 20 19  0  0  0  0  0  0  0  0999 V2000     
   18.6777   16.4129   23.1951 C   0  0  0  0  0  0  0  0  0  0  0  0
   19.4942   16.1145   23.8506 H   0  0  0  0  0  0  0  0  0  0  0  0
   18.1336   15.6226   22.6807 H   0  0  0  0  0  0  0  0  0  0  0  0
   18.3553   17.6975   23.0231 C   0  0  0  0  0  0  0  0  0  0  0  0
   17.5326   17.9740   22.3644 H   0  0  0  0  0  0  0  0  0  0  0  0
   19.0619   18.8478   23.7083 C   0  0  0  0  0  0  0  0  0  0  0  0
   19.6124   18.4761   24.5831 H   0  0  0  0  0  0  0  0  0  0  0  0
   18.3239   19.5650   24.0916 H   0  0  0  0  0  0  0  0  0  0  0  0
   20.0539   19.5712   22.7698 C   0  0  0  0  0  0  0  0  0  0  0  0
   20.6254   20.3040   23.3556 H   0  0  0  0  0  0  0  0  0  0  0  0
   20.7817   18.8453   22.3813 H   0  0  0  0  0  0  0  0  0  0  0  0
   19.3526   20.2954   21.5962 C   0  0  0  0  0  0  0  0  0  0  0  0
   18.5936   20.9816   21.9955 H   0  0  0  0  0  0  0  0  0  0  0  0
   18.8221   19.5672   20.9676 H   0  0  0  0  0  0  0  0  0  0  0  0
   20.3441   21.0992   20.7156 C   0  0  0  0  0  0  0  0  0  0  0  0
   19.7856   21.6829   19.9744 H   0  0  0  0  0  0  0  0  0  0  0  0
   20.9016   21.8166   21.3298 H   0  0  0  0  0  0  0  0  0  0  0  0
   21.3422   20.2305   19.9553 C   0  0  0  0  0  0  0  0  0  0  0  0
   20.9554   19.6537   18.9579 O   0  5  0  0  0  0  0  0  0  0  0  0
   22.4836   20.1688   20.3683 O   0  0  0  0  0  0  0  0  0  0  0  0
  1  2  1  0  0  0  0
  1  3  1  0  0  0  0
  1  4  2  0  0  0  0
  4  5  1  0  0  0  0
  4  6  1  0  0  0  0
  6  7  1  0  0  0  0
  6  8  1  0  0  0  0
  6  9  1  0  0  0  0
  9 10  1  0  0  0  0
  9 11  1  0  0  0  0
  9 12  1  0  0  0  0
 12 13  1  0  0  0  0
 12 14  1  0  0  0  0
 12 15  1  0  0  0  0
 15 16  1  0  0  0  0
 15 17  1  0  0  0  0
 15 18  1  0  0  0  0
 18 19  1  0  0  0  0
 18 20  2  0  0  0  0
M  END
> <VConfSearch Rank>
258

> <Conf_Id>
87

> <Delta U+W>
0.339

> <U+W>
-51.407

> <U>
10.461

> <W>
-61.867

> <W(PB)>
-64.045

> <W(SA)>
2.178

> <Valence>
9.555

> <Coulomb>
0.483

> <VdW>
0.423

> <VdW6>
-7.223

> <VdW12>
7.646

> <Bond>
0.126

> <Angle>
2.492

> <Pdih>
6.936

> <Idih>
0.001

> <Tether>
0.000

$$$$
VeraChem MOL file


 20 19  0  0  0  0  0  0  0  0999 V2000     
   19.3905   21.5140   23.0892 C   0  0  0  0  0  0  0  0  0  0  0  0
   18.5527   21.4204   23.7783 H   0  0  0  0  0  0  0  0  0  0  0  0
   20.2175   22.1556   23.3882 H   0  0  0  0  0  0  0  0  0  0  0  0
   19.4062   20.8654   21.9218 C   0  0  0  0  0  0  0  0  0  0  0  0
   20.2495   20.9789   21.2416 H   0  0  0  0  0  0  0  0  0  0  0  0
   18.2869   19.9686   21.4373 C   0  0  0  0  0  0  0  0  0  0  0  0
   18.3515   19.8336   20.3494 H   0  0  0  0  0  0  0  0  0  0  0  0
   17.3306   20.4777   21.6179 H   0  0  0  0  0  0  0  0  0  0  0  0
   18.2493   18.5895   22.1415 C   0  0  0  0  0  0  0  0  0  0  0  0
   18.3734   18.7176   23.2255 H   0  0  0  0  0  0  0  0  0  0  0  0
   17.2450   18.1669   22.0014 H   0  0  0  0  0  0  0  0  0  0  0  0
   19.2726   17.5559   21.6071 C   0  0  0  0  0  0  0  0  0  0  0  0
   19.1548   17.4408   20.5209 H   0  0  0  0  0  0  0  0  0  0  0  0
   19.0354   16.5773   22.0472 H   0  0  0  0  0  0  0  0  0  0  0  0
   20.7496   17.8933   21.9356 C   0  0  0  0  0  0  0  0  0  0  0  0
   21.0701   18.7877   21.3921 H   0  0  0  0  0  0  0  0  0  0  0  0
   20.8623   18.1024   23.0060 H   0  0  0  0  0  0  0  0  0  0  0  0
   21.7078   16.7659   21.5689 C   0  0  0  0  0  0  0  0  0  0  0  0
   22.1675   16.7461   20.4441 O   0  5  0  0  0  0  0  0  0  0  0  0
   21.9533   15.9248   22.4110 O   0  0  0  0  0  0  0  0  0  0  0  0
  1  2  1  0  0  0  0
  1  3  1  0  0  0  0
  1  4  2  0  0  0  0
  4  5  1  0  0  0  0
  4  6  1  0  0  0  0
  6  7  1  0  0  0  0
  6  8  1  0  0  0  0
  6  9  1  0  0  0  0
  9 10  1  0  0  0  0
  9 11  1  0  0  0  0
  9 12  1  0  0  0  0
 12 13  1  0  0  0  0
 12 14  1  0  0  0  0
 12 15  1  0  0  0  0
 15 16  1  0  0  0  0
 15 17  1  0  0  0  0
 15 18  1  0  0  0  0
 18 19  1  0  0  0  0
 18 20  2  0  0  0  0
M  END
> <VConfSearch Rank>
259

> <Conf_Id>
51

> <Delta U+W>
1.709

> <U+W>
-50.036

> <U>
10.643

> <W>
-60.679

> <W(PB)>
-62.882

> <W(SA)>
2.203

> <Valence>
11.231

> <Coulomb>
-1.077

> <VdW>
0.489

> <VdW6>
-7.546

> <VdW12>
8.035

> <Bond>
0.159

> <Angle>
3.005

> <Pdih>
8.065

> <Idih>
0.002

> <Tether>
0.000

$$$$
VeraChem MOL file


 20 19  0  0  0  0  0  0  0  0999 V2000     
   18.3379   19.7628   19.5135 C   0  0  0  0  0  0  0  0  0  0  0  0
   17.2982   19.8988   19.8067 H   0  0  0  0  0  0  0  0  0  0  0  0
   18.5309   19.3157   18.5400 H   0  0  0  0  0  0  0  0  0  0  0  0
   19.3402   20.1275   20.3174 C   0  0  0  0  0  0  0  0  0  0  0  0
   20.3742   19.9916   20.0025 H   0  0  0  0  0  0  0  0  0  0  0  0
   19.1453   20.7654   21.6763 C   0  0  0  0  0  0  0  0  0  0  0  0
   18.3787   21.5469   21.5870 H   0  0  0  0  0  0  0  0  0  0  0  0
   20.0624   21.2824   21.9889 H   0  0  0  0  0  0  0  0  0  0  0  0
   18.7009   19.7651   22.7722 C   0  0  0  0  0  0  0  0  0  0  0  0
   18.2543   20.3417   23.5937 H   0  0  0  0  0  0  0  0  0  0  0  0
   17.9001   19.1185   22.3883 H   0  0  0  0  0  0  0  0  0  0  0  0
   19.8412   18.9025   23.3695 C   0  0  0  0  0  0  0  0  0  0  0  0
   19.4474   18.3710   24.2469 H   0  0  0  0  0  0  0  0  0  0  0  0
   20.6463   19.5520   23.7396 H   0  0  0  0  0  0  0  0  0  0  0  0
   20.4290   17.8558   22.3886 C   0  0  0  0  0  0  0  0  0  0  0  0
   19.6239   17.2615   21.9403 H   0  0  0  0  0  0  0  0  0  0  0  0
   20.9633   18.3513   21.5718 H   0  0  0  0  0  0  0  0  0  0  0  0
   21.4061   16.8994   23.0624 C   0  0  0  0  0  0  0  0  0  0  0  0
   22.5777   17.2181   23.1147 O   0  5  0  0  0  0  0  0  0  0  0  0
   20.9672   15.8698   23.5356 O   0  0  0  0  0  0  0  0  0  0  0  0
  1  2  1  0  0  0  0
  1  3  1  0  0  0  0
  1  4  2  0  0  0  0
  4  5  1  0  0  0  0
  4  6  1  0  0  0  0
  6  7  1  0  0  0  0
  6  8  1  0  0  0  0
  6  9  1  0  0  0  0
  9 10  1  0  0  0  0
  9 11  1  0  0  0  0
  9 12  1  0  0  0  0
 12 13  1  0  0  0  0
 12 14  1  0  0  0  0
 12 15  1  0  0  0  0
 15 16  1  0  0  0  0
 15 17  1  0  0  0  0
 15 18  1  0  0  0  0
 18 19  1  0  0  0  0
 18 20  2  0  0  0  0
M  END
> <VConfSearch Rank>
260

> <Conf_Id>
91

> <Delta U+W>
1.604

> <U+W>
-50.141

> <U>
10.644

> <W>
-60.786

> <W(PB)>
-62.965

> <W(SA)>
2.179

> <Valence>
11.230

> <Coulomb>
-1.075

> <VdW>
0.489

> <VdW6>
-7.547

> <VdW12>
8.036

> <Bond>
0.159

> <Angle>
3.006

> <Pdih>
8.064

> <Idih>
0.002

> <Tether>
0.000

$$$$
VeraChem MOL file


 20 19  0  0  0  0  0  0  0  0999 V2000     
   17.2851   19.9896   24.3964 C   0  0  0  0  0  0  0  0  0  0  0  0
   17.7648   19.3051   25.0942 H   0  0  0  0  0  0  0  0  0  0  0  0
   16.2578   20.2817   24.6074 H   0  0  0  0  0  0  0  0  0  0  0  0
   17.9274   20.4531   23.3210 C   0  0  0  0  0  0  0  0  0  0  0  0
   17.4288   21.1369   22.6344 H   0  0  0  0  0  0  0  0  0  0  0  0
   19.3524   20.0930   22.9641 C   0  0  0  0  0  0  0  0  0  0  0  0
   19.8531   19.6258   23.8230 H   0  0  0  0  0  0  0  0  0  0  0  0
   19.9145   21.0069   22.7295 H   0  0  0  0  0  0  0  0  0  0  0  0
   19.3988   19.1326   21.7573 C   0  0  0  0  0  0  0  0  0  0  0  0
   18.8316   18.2222   21.9956 H   0  0  0  0  0  0  0  0  0  0  0  0
   18.9019   19.6023   20.8972 H   0  0  0  0  0  0  0  0  0  0  0  0
   20.8477   18.7568   21.3773 C   0  0  0  0  0  0  0  0  0  0  0  0
   21.3452   18.2865   22.2369 H   0  0  0  0  0  0  0  0  0  0  0  0
   21.4159   19.6670   21.1401 H   0  0  0  0  0  0  0  0  0  0  0  0
   20.8940   17.7902   20.1640 C   0  0  0  0  0  0  0  0  0  0  0  0
   20.3341   16.8767   20.3962 H   0  0  0  0  0  0  0  0  0  0  0  0
   20.4047   18.2557   19.3003 H   0  0  0  0  0  0  0  0  0  0  0  0
   22.2950   17.3662   19.7206 C   0  0  0  0  0  0  0  0  0  0  0  0
   22.3715   16.6105   18.7724 O   0  5  0  0  0  0  0  0  0  0  0  0
   23.2687   17.7871   20.3152 O   0  0  0  0  0  0  0  0  0  0  0  0
  1  2  1  0  0  0  0
  1  3  1  0  0  0  0
  1  4  2  0  0  0  0
  4  5  1  0  0  0  0
  4  6  1  0  0  0  0
  6  7  1  0  0  0  0
  6  8  1  0  0  0  0
  6  9  1  0  0  0  0
  9 10  1  0  0  0  0
  9 11  1  0  0  0  0
  9 12  1  0  0  0  0
 12 13  1  0  0  0  0
 12 14  1  0  0  0  0
 12 15  1  0  0  0  0
 15 16  1  0  0  0  0
 15 17  1  0  0  0  0
 15 18  1  0  0  0  0
 18 19  1  0  0  0  0
 18 20  2  0  0  0  0
M  END
> <VConfSearch Rank>
261

> <Conf_Id>
33

> <Delta U+W>
0.000

> <U+W>
-51.745

> <U>
7.593

> <W>
-59.338

> <W(PB)>
-61.574

> <W(SA)>
2.236

> <Valence>
9.570

> <Coulomb>
-3.091

> <VdW>
1.114

> <VdW6>
-6.064

> <VdW12>
7.178

> <Bond>
0.117

> <Angle>
2.692

> <Pdih>
6.761

> <Idih>
0.000

> <Tether>
0.000

$$$$
VeraChem MOL file


 20 19  0  0  0  0  0  0  0  0999 V2000     
   22.5726   17.4670   23.4571 C   0  0  0  0  0  0  0  0  0  0  0  0
   22.0080   17.3699   24.3831 H   0  0  0  0  0  0  0  0  0  0  0  0
   23.6394   17.2533   23.4961 H   0  0  0  0  0  0  0  0  0  0  0  0
   21.9839   17.8359   22.3165 C   0  0  0  0  0  0  0  0  0  0  0  0
   22.5673   17.9279   21.4007 H   0  0  0  0  0  0  0  0  0  0  0  0
   20.5096   18.1475   22.1855 C   0  0  0  0  0  0  0  0  0  0  0  0
   19.9653   17.7866   23.0686 H   0  0  0  0  0  0  0  0  0  0  0  0
   20.1035   17.6088   21.3201 H   0  0  0  0  0  0  0  0  0  0  0  0
   20.2761   19.6663   22.0223 C   0  0  0  0  0  0  0  0  0  0  0  0
   20.7642   20.1905   22.8556 H   0  0  0  0  0  0  0  0  0  0  0  0
   20.7661   20.0191   21.1045 H   0  0  0  0  0  0  0  0  0  0  0  0
   18.7803   20.0618   21.9991 C   0  0  0  0  0  0  0  0  0  0  0  0
   18.7060   21.1581   21.9954 H   0  0  0  0  0  0  0  0  0  0  0  0
   18.2918   19.7212   22.9225 H   0  0  0  0  0  0  0  0  0  0  0  0
   18.0122   19.5065   20.7717 C   0  0  0  0  0  0  0  0  0  0  0  0
   18.5151   19.8044   19.8439 H   0  0  0  0  0  0  0  0  0  0  0  0
   17.9897   18.4111   20.7928 H   0  0  0  0  0  0  0  0  0  0  0  0
   16.5708   19.9984   20.7070 C   0  0  0  0  0  0  0  0  0  0  0  0
   15.7166   19.3486   21.2770 O   0  5  0  0  0  0  0  0  0  0  0  0
   16.3428   21.0291   20.1051 O   0  0  0  0  0  0  0  0  0  0  0  0
  1  2  1  0  0  0  0
  1  3  1  0  0  0  0
  1  4  2  0  0  0  0
  4  5  1  0  0  0  0
  4  6  1  0  0  0  0
  6  7  1  0  0  0  0
  6  8  1  0  0  0  0
  6  9  1  0  0  0  0
  9 10  1  0  0  0  0
  9 11  1  0  0  0  0
  9 12  1  0  0  0  0
 12 13  1  0  0  0  0
 12 14  1  0  0  0  0
 12 15  1  0  0  0  0
 15 16  1  0  0  0  0
 15 17  1  0  0  0  0
 15 18  1  0  0  0  0
 18 19  1  0  0  0  0
 18 20  2  0  0  0  0
M  END
> <VConfSearch Rank>
262

> <Conf_Id>
37

> <Delta U+W>
-0.384

> <U+W>
-52.130

> <U>
7.491

> <W>
-59.621

> <W(PB)>
-61.853

> <W(SA)>
2.232

> <Valence>
9.604

> <Coulomb>
-2.799

> <VdW>
0.686

> <VdW6>
-6.435

> <VdW12>
7.121

> <Bond>
0.124

> <Angle>
2.493

> <Pdih>
6.986

> <Idih>
0.001

> <Tether>
0.000

$$$$
VeraChem MOL file


 20 19  0  0  0  0  0  0  0  0999 V2000     
   17.0133   20.4147   20.6516 C   0  0  0  0  0  0  0  0  0  0  0  0
   16.1209   20.8741   20.2299 H   0  0  0  0  0  0  0  0  0  0  0  0
   16.9259   20.0025   21.6546 H   0  0  0  0  0  0  0  0  0  0  0  0
   18.1535   20.3695   19.9532 C   0  0  0  0  0  0  0  0  0  0  0  0
   18.1793   20.7998   18.9523 H   0  0  0  0  0  0  0  0  0  0  0  0
   19.4725   19.7655   20.4054 C   0  0  0  0  0  0  0  0  0  0  0  0
   20.2500   20.5397   20.3573 H   0  0  0  0  0  0  0  0  0  0  0  0
   19.7751   18.9967   19.6818 H   0  0  0  0  0  0  0  0  0  0  0  0
   19.4578   19.1491   21.8238 C   0  0  0  0  0  0  0  0  0  0  0  0
   19.1761   19.9187   22.5555 H   0  0  0  0  0  0  0  0  0  0  0  0
   18.6959   18.3591   21.8727 H   0  0  0  0  0  0  0  0  0  0  0  0
   20.8329   18.5587   22.2055 C   0  0  0  0  0  0  0  0  0  0  0  0
   21.5998   19.3444   22.1584 H   0  0  0  0  0  0  0  0  0  0  0  0
   21.1207   17.7879   21.4770 H   0  0  0  0  0  0  0  0  0  0  0  0
   20.8208   17.9409   23.6254 C   0  0  0  0  0  0  0  0  0  0  0  0
   20.5482   18.7013   24.3671 H   0  0  0  0  0  0  0  0  0  0  0  0
   20.0690   17.1448   23.6857 H   0  0  0  0  0  0  0  0  0  0  0  0
   22.1683   17.3508   24.0256 C   0  0  0  0  0  0  0  0  0  0  0  0
   22.9699   18.0760   24.5806 O   0  5  0  0  0  0  0  0  0  0  0  0
   22.3881   16.1869   23.7541 O   0  0  0  0  0  0  0  0  0  0  0  0
  1  2  1  0  0  0  0
  1  3  1  0  0  0  0
  1  4  2  0  0  0  0
  4  5  1  0  0  0  0
  4  6  1  0  0  0  0
  6  7  1  0  0  0  0
  6  8  1  0  0  0  0
  6  9  1  0  0  0  0
  9 10  1  0  0  0  0
  9 11  1  0  0  0  0
  9 12  1  0  0  0  0
 12 13  1  0  0  0  0
 12 14  1  0  0  0  0
 12 15  1  0  0  0  0
 15 16  1  0  0  0  0
 15 17  1  0  0  0  0
 15 18  1  0  0  0  0
 18 19  1  0  0  0  0
 18 20  2  0  0  0  0
M  END
> <VConfSearch Rank>
263

> <Conf_Id>
44

> <Delta U+W>
-1.440

> <U+W>
-53.185

> <U>
6.572

> <W>
-59.757

> <W(PB)>
-62.007

> <W(SA)>
2.249

> <Valence>
7.989

> <Coulomb>
-2.697

> <VdW>
1.281

> <VdW6>
-6.467

> <VdW12>
7.748

> <Bond>
0.136

> <Angle>
2.854

> <Pdih>
4.997

> <Idih>
0.001

> <Tether>
0.000

$$$$
VeraChem MOL file


 20 19  0  0  0  0  0  0  0  0999 V2000     
   21.3258   17.3104   24.4890 C   0  0  0  0  0  0  0  0  0  0  0  0
   20.8111   16.4859   23.9982 H   0  0  0  0  0  0  0  0  0  0  0  0
   21.7316   17.1272   25.4825 H   0  0  0  0  0  0  0  0  0  0  0  0
   21.4543   18.5021   23.9000 C   0  0  0  0  0  0  0  0  0  0  0  0
   21.9728   19.3144   24.4089 H   0  0  0  0  0  0  0  0  0  0  0  0
   20.9191   18.8299   22.5238 C   0  0  0  0  0  0  0  0  0  0  0  0
   20.6659   17.9037   21.9921 H   0  0  0  0  0  0  0  0  0  0  0  0
   21.7005   19.3297   21.9360 H   0  0  0  0  0  0  0  0  0  0  0  0
   19.6754   19.7424   22.6147 C   0  0  0  0  0  0  0  0  0  0  0  0
   18.8748   19.2197   23.1561 H   0  0  0  0  0  0  0  0  0  0  0  0
   19.9274   20.6282   23.2139 H   0  0  0  0  0  0  0  0  0  0  0  0
   19.1520   20.2124   21.2365 C   0  0  0  0  0  0  0  0  0  0  0  0
   19.9487   20.7439   20.6979 H   0  0  0  0  0  0  0  0  0  0  0  0
   18.3459   20.9420   21.3963 H   0  0  0  0  0  0  0  0  0  0  0  0
   18.6105   19.0583   20.3535 C   0  0  0  0  0  0  0  0  0  0  0  0
   19.4131   18.3574   20.0981 H   0  0  0  0  0  0  0  0  0  0  0  0
   17.8447   18.4927   20.8976 H   0  0  0  0  0  0  0  0  0  0  0  0
   17.9954   19.5532   19.0494 C   0  0  0  0  0  0  0  0  0  0  0  0
   16.8100   19.8204   19.0393 O   0  5  0  0  0  0  0  0  0  0  0  0
   18.7218   19.6775   18.0832 O   0  0  0  0  0  0  0  0  0  0  0  0
  1  2  1  0  0  0  0
  1  3  1  0  0  0  0
  1  4  2  0  0  0  0
  4  5  1  0  0  0  0
  4  6  1  0  0  0  0
  6  7  1  0  0  0  0
  6  8  1  0  0  0  0
  6  9  1  0  0  0  0
  9 10  1  0  0  0  0
  9 11  1  0  0  0  0
  9 12  1  0  0  0  0
 12 13  1  0  0  0  0
 12 14  1  0  0  0  0
 12 15  1  0  0  0  0
 15 16  1  0  0  0  0
 15 17  1  0  0  0  0
 15 18  1  0  0  0  0
 18 19  1  0  0  0  0
 18 20  2  0  0  0  0
M  END
> <VConfSearch Rank>
264

> <Conf_Id>
38

> <Delta U+W>
-0.381

> <U+W>
-52.126

> <U>
7.601

> <W>
-59.727

> <W(PB)>
-61.964

> <W(SA)>
2.236

> <Valence>
9.602

> <Coulomb>
-2.686

> <VdW>
0.685

> <VdW6>
-6.453

> <VdW12>
7.139

> <Bond>
0.125

> <Angle>
2.485

> <Pdih>
6.991

> <Idih>
0.001

> <Tether>
0.000

$$$$
VeraChem MOL file


 20 19  0  0  0  0  0  0  0  0999 V2000     
   19.6153   18.8150   18.4991 C   0  0  0  0  0  0  0  0  0  0  0  0
   19.7350   17.7348   18.5664 H   0  0  0  0  0  0  0  0  0  0  0  0
   19.1763   19.2145   17.5865 H   0  0  0  0  0  0  0  0  0  0  0  0
   19.9890   19.6217   19.4957 C   0  0  0  0  0  0  0  0  0  0  0  0
   19.8597   20.7003   19.4087 H   0  0  0  0  0  0  0  0  0  0  0  0
   20.6053   19.1404   20.7904 C   0  0  0  0  0  0  0  0  0  0  0  0
   21.5042   19.7315   21.0114 H   0  0  0  0  0  0  0  0  0  0  0  0
   20.9302   18.0957   20.6916 H   0  0  0  0  0  0  0  0  0  0  0  0
   19.6072   19.2603   21.9610 C   0  0  0  0  0  0  0  0  0  0  0  0
   19.2856   20.3064   22.0592 H   0  0  0  0  0  0  0  0  0  0  0  0
   18.7075   18.6717   21.7342 H   0  0  0  0  0  0  0  0  0  0  0  0
   20.2225   18.7750   23.2930 C   0  0  0  0  0  0  0  0  0  0  0  0
   21.1168   19.3688   23.5283 H   0  0  0  0  0  0  0  0  0  0  0  0
   20.5549   17.7341   23.1805 H   0  0  0  0  0  0  0  0  0  0  0  0
   19.2242   18.8592   24.4767 C   0  0  0  0  0  0  0  0  0  0  0  0
   18.3134   18.2937   24.2453 H   0  0  0  0  0  0  0  0  0  0  0  0
   19.6689   18.3953   25.3650 H   0  0  0  0  0  0  0  0  0  0  0  0
   18.8299   20.2841   24.8551 C   0  0  0  0  0  0  0  0  0  0  0  0
   17.7270   20.6810   24.5340 O   0  5  0  0  0  0  0  0  0  0  0  0
   19.6336   20.9557   25.4715 O   0  0  0  0  0  0  0  0  0  0  0  0
  1  2  1  0  0  0  0
  1  3  1  0  0  0  0
  1  4  2  0  0  0  0
  4  5  1  0  0  0  0
  4  6  1  0  0  0  0
  6  7  1  0  0  0  0
  6  8  1  0  0  0  0
  6  9  1  0  0  0  0
  9 10  1  0  0  0  0
  9 11  1  0  0  0  0
  9 12  1  0  0  0  0
 12 13  1  0  0  0  0
 12 14  1  0  0  0  0
 12 15  1  0  0  0  0
 15 16  1  0  0  0  0
 15 17  1  0  0  0  0
 15 18  1  0  0  0  0
 18 19  1  0  0  0  0
 18 20  2  0  0  0  0
M  END
> <VConfSearch Rank>
265

> <Conf_Id>
58

> <Delta U+W>
0.019

> <U+W>
-51.727

> <U>
8.963

> <W>
-60.690

> <W(PB)>
-62.934

> <W(SA)>
2.244

> <Valence>
9.327

> <Coulomb>
-0.780

> <VdW>
0.417

> <VdW6>
-6.635

> <VdW12>
7.052

> <Bond>
0.105

> <Angle>
2.399

> <Pdih>
6.822

> <Idih>
0.000

> <Tether>
0.000

$$$$
VeraChem MOL file


 20 19  0  0  0  0  0  0  0  0999 V2000     
   18.6658   21.8345   19.8562 C   0  0  0  0  0  0  0  0  0  0  0  0
   18.3981   22.4936   20.6805 H   0  0  0  0  0  0  0  0  0  0  0  0
   18.1981   22.0235   18.8914 H   0  0  0  0  0  0  0  0  0  0  0  0
   19.5317   20.8307   20.0185 C   0  0  0  0  0  0  0  0  0  0  0  0
   19.7855   20.1818   19.1806 H   0  0  0  0  0  0  0  0  0  0  0  0
   20.2204   20.5082   21.3259 C   0  0  0  0  0  0  0  0  0  0  0  0
   20.1112   21.3446   22.0296 H   0  0  0  0  0  0  0  0  0  0  0  0
   21.2971   20.3797   21.1521 H   0  0  0  0  0  0  0  0  0  0  0  0
   19.6422   19.2249   21.9584 C   0  0  0  0  0  0  0  0  0  0  0  0
   18.5642   19.3555   22.1264 H   0  0  0  0  0  0  0  0  0  0  0  0
   19.7546   18.3895   21.2536 H   0  0  0  0  0  0  0  0  0  0  0  0
   20.3374   18.8792   23.2946 C   0  0  0  0  0  0  0  0  0  0  0  0
   20.2333   19.7257   23.9868 H   0  0  0  0  0  0  0  0  0  0  0  0
   21.4144   18.7373   23.1282 H   0  0  0  0  0  0  0  0  0  0  0  0
   19.7492   17.6087   23.9615 C   0  0  0  0  0  0  0  0  0  0  0  0
   20.1930   17.4775   24.9554 H   0  0  0  0  0  0  0  0  0  0  0  0
   18.6685   17.7239   24.1090 H   0  0  0  0  0  0  0  0  0  0  0  0
   19.9996   16.3240   23.1769 C   0  0  0  0  0  0  0  0  0  0  0  0
   21.1137   15.8396   23.2125 O   0  5  0  0  0  0  0  0  0  0  0  0
   19.0730   15.8357   22.5605 O   0  0  0  0  0  0  0  0  0  0  0  0
  1  2  1  0  0  0  0
  1  3  1  0  0  0  0
  1  4  2  0  0  0  0
  4  5  1  0  0  0  0
  4  6  1  0  0  0  0
  6  7  1  0  0  0  0
  6  8  1  0  0  0  0
  6  9  1  0  0  0  0
  9 10  1  0  0  0  0
  9 11  1  0  0  0  0
  9 12  1  0  0  0  0
 12 13  1  0  0  0  0
 12 14  1  0  0  0  0
 12 15  1  0  0  0  0
 15 16  1  0  0  0  0
 15 17  1  0  0  0  0
 15 18  1  0  0  0  0
 18 19  1  0  0  0  0
 18 20  2  0  0  0  0
M  END
> <VConfSearch Rank>
266

> <Conf_Id>
54

> <Delta U+W>
-0.048

> <U+W>
-51.793

> <U>
8.964

> <W>
-60.756

> <W(PB)>
-63.007

> <W(SA)>
2.251

> <Valence>
9.327

> <Coulomb>
-0.780

> <VdW>
0.417

> <VdW6>
-6.635

> <VdW12>
7.052

> <Bond>
0.105

> <Angle>
2.399

> <Pdih>
6.822

> <Idih>
0.000

> <Tether>
0.000

$$$$
VeraChem MOL file


 20 19  0  0  0  0  0  0  0  0999 V2000     
   22.1537   16.7862   21.3275 C   0  0  0  0  0  0  0  0  0  0  0  0
   22.1696   15.8852   20.7166 H   0  0  0  0  0  0  0  0  0  0  0  0
   23.0549   17.3969   21.3436 H   0  0  0  0  0  0  0  0  0  0  0  0
   21.0678   17.1271   22.0263 C   0  0  0  0  0  0  0  0  0  0  0  0
   20.1774   16.4997   21.9988 H   0  0  0  0  0  0  0  0  0  0  0  0
   20.9754   18.3591   22.9013 C   0  0  0  0  0  0  0  0  0  0  0  0
   21.9852   18.7097   23.1542 H   0  0  0  0  0  0  0  0  0  0  0  0
   20.4906   18.1064   23.8537 H   0  0  0  0  0  0  0  0  0  0  0  0
   20.2086   19.5125   22.2158 C   0  0  0  0  0  0  0  0  0  0  0  0
   20.2971   20.4125   22.8395 H   0  0  0  0  0  0  0  0  0  0  0  0
   20.6870   19.7494   21.2555 H   0  0  0  0  0  0  0  0  0  0  0  0
   18.7122   19.1901   21.9904 C   0  0  0  0  0  0  0  0  0  0  0  0
   18.2368   18.9390   22.9487 H   0  0  0  0  0  0  0  0  0  0  0  0
   18.6207   18.3032   21.3498 H   0  0  0  0  0  0  0  0  0  0  0  0
   17.9436   20.3628   21.3275 C   0  0  0  0  0  0  0  0  0  0  0  0
   18.4269   20.6475   20.3851 H   0  0  0  0  0  0  0  0  0  0  0  0
   16.9264   20.0392   21.0776 H   0  0  0  0  0  0  0  0  0  0  0  0
   17.8239   21.6033   22.2082 C   0  0  0  0  0  0  0  0  0  0  0  0
   18.5285   22.5604   21.9540 O   0  5  0  0  0  0  0  0  0  0  0  0
   17.0200   21.5829   23.1195 O   0  0  0  0  0  0  0  0  0  0  0  0
  1  2  1  0  0  0  0
  1  3  1  0  0  0  0
  1  4  2  0  0  0  0
  4  5  1  0  0  0  0
  4  6  1  0  0  0  0
  6  7  1  0  0  0  0
  6  8  1  0  0  0  0
  6  9  1  0  0  0  0
  9 10  1  0  0  0  0
  9 11  1  0  0  0  0
  9 12  1  0  0  0  0
 12 13  1  0  0  0  0
 12 14  1  0  0  0  0
 12 15  1  0  0  0  0
 15 16  1  0  0  0  0
 15 17  1  0  0  0  0
 15 18  1  0  0  0  0
 18 19  1  0  0  0  0
 18 20  2  0  0  0  0
M  END
> <VConfSearch Rank>
267

> <Conf_Id>
27

> <Delta U+W>
0.478

> <U+W>
-51.267

> <U>
9.192

> <W>
-60.459

> <W(PB)>
-62.649

> <W(SA)>
2.190

> <Valence>
9.572

> <Coulomb>
-0.884

> <VdW>
0.504

> <VdW6>
-7.168

> <VdW12>
7.672

> <Bond>
0.127

> <Angle>
2.504

> <Pdih>
6.941

> <Idih>
0.001

> <Tether>
0.000

$$$$
VeraChem MOL file


 20 19  0  0  0  0  0  0  0  0999 V2000     
   21.5669   21.2578   23.2243 C   0  0  0  0  0  0  0  0  0  0  0  0
   22.2129   21.6145   22.4237 H   0  0  0  0  0  0  0  0  0  0  0  0
   21.9405   21.3395   24.2436 H   0  0  0  0  0  0  0  0  0  0  0  0
   20.3639   20.7366   22.9699 C   0  0  0  0  0  0  0  0  0  0  0  0
   19.7321   20.3883   23.7865 H   0  0  0  0  0  0  0  0  0  0  0  0
   19.7771   20.5972   21.5814 C   0  0  0  0  0  0  0  0  0  0  0  0
   20.2969   21.2743   20.8901 H   0  0  0  0  0  0  0  0  0  0  0  0
   18.7249   20.9119   21.5866 H   0  0  0  0  0  0  0  0  0  0  0  0
   19.8874   19.1547   21.0383 C   0  0  0  0  0  0  0  0  0  0  0  0
   19.5690   19.1474   19.9869 H   0  0  0  0  0  0  0  0  0  0  0  0
   20.9401   18.8399   21.0503 H   0  0  0  0  0  0  0  0  0  0  0  0
   19.0296   18.1451   21.8351 C   0  0  0  0  0  0  0  0  0  0  0  0
   17.9815   18.4750   21.8440 H   0  0  0  0  0  0  0  0  0  0  0  0
   19.3632   18.1129   22.8812 H   0  0  0  0  0  0  0  0  0  0  0  0
   19.1120   16.7201   21.2345 C   0  0  0  0  0  0  0  0  0  0  0  0
   18.7671   16.7268   20.1936 H   0  0  0  0  0  0  0  0  0  0  0  0
   20.1517   16.3712   21.2296 H   0  0  0  0  0  0  0  0  0  0  0  0
   18.2750   15.7044   22.0038 C   0  0  0  0  0  0  0  0  0  0  0  0
   18.7999   15.1061   22.9220 O   0  5  0  0  0  0  0  0  0  0  0  0
   17.1150   15.5512   21.6758 O   0  0  0  0  0  0  0  0  0  0  0  0
  1  2  1  0  0  0  0
  1  3  1  0  0  0  0
  1  4  2  0  0  0  0
  4  5  1  0  0  0  0
  4  6  1  0  0  0  0
  6  7  1  0  0  0  0
  6  8  1  0  0  0  0
  6  9  1  0  0  0  0
  9 10  1  0  0  0  0
  9 11  1  0  0  0  0
  9 12  1  0  0  0  0
 12 13  1  0  0  0  0
 12 14  1  0  0  0  0
 12 15  1  0  0  0  0
 15 16  1  0  0  0  0
 15 17  1  0  0  0  0
 15 18  1  0  0  0  0
 18 19  1  0  0  0  0
 18 20  2  0  0  0  0
M  END
> <VConfSearch Rank>
268

> <Conf_Id>
41

> <Delta U+W>
-0.634

> <U+W>
-52.379

> <U>
7.828

> <W>
-60.207

> <W(PB)>
-62.449

> <W(SA)>
2.242

> <Valence>
9.300

> <Coulomb>
-2.080

> <VdW>
0.608

> <VdW6>
-6.341

> <VdW12>
6.949

> <Bond>
0.103

> <Angle>
2.334

> <Pdih>
6.862

> <Idih>
0.001

> <Tether>
0.000

$$$$
VeraChem MOL file


 20 19  0  0  0  0  0  0  0  0999 V2000     
   18.3037   15.9867   21.1829 C   0  0  0  0  0  0  0  0  0  0  0  0
   18.3519   14.9057   21.0638 H   0  0  0  0  0  0  0  0  0  0  0  0
   17.3158   16.4425   21.2268 H   0  0  0  0  0  0  0  0  0  0  0  0
   19.4155   16.7212   21.2737 C   0  0  0  0  0  0  0  0  0  0  0  0
   20.3950   16.2457   21.2282 H   0  0  0  0  0  0  0  0  0  0  0  0
   19.4276   18.2246   21.4390 C   0  0  0  0  0  0  0  0  0  0  0  0
   18.4349   18.6395   21.2179 H   0  0  0  0  0  0  0  0  0  0  0  0
   20.1251   18.6605   20.7120 H   0  0  0  0  0  0  0  0  0  0  0  0
   19.8455   18.6217   22.8724 C   0  0  0  0  0  0  0  0  0  0  0  0
   19.1987   18.0965   23.5886 H   0  0  0  0  0  0  0  0  0  0  0  0
   20.8687   18.2717   23.0670 H   0  0  0  0  0  0  0  0  0  0  0  0
   19.7501   20.1430   23.1458 C   0  0  0  0  0  0  0  0  0  0  0  0
   19.9881   20.3280   24.2024 H   0  0  0  0  0  0  0  0  0  0  0  0
   18.7119   20.4718   23.0025 H   0  0  0  0  0  0  0  0  0  0  0  0
   20.6863   21.0140   22.2642 C   0  0  0  0  0  0  0  0  0  0  0  0
   20.4267   20.9110   21.2045 H   0  0  0  0  0  0  0  0  0  0  0  0
   20.5429   22.0710   22.5170 H   0  0  0  0  0  0  0  0  0  0  0  0
   22.1705   20.7037   22.4362 C   0  0  0  0  0  0  0  0  0  0  0  0
   22.7111   21.0470   23.4693 O   0  5  0  0  0  0  0  0  0  0  0  0
   22.7511   20.1437   21.5271 O   0  0  0  0  0  0  0  0  0  0  0  0
  1  2  1  0  0  0  0
  1  3  1  0  0  0  0
  1  4  2  0  0  0  0
  4  5  1  0  0  0  0
  4  6  1  0  0  0  0
  6  7  1  0  0  0  0
  6  8  1  0  0  0  0
  6  9  1  0  0  0  0
  9 10  1  0  0  0  0
  9 11  1  0  0  0  0
  9 12  1  0  0  0  0
 12 13  1  0  0  0  0
 12 14  1  0  0  0  0
 12 15  1  0  0  0  0
 15 16  1  0  0  0  0
 15 17  1  0  0  0  0
 15 18  1  0  0  0  0
 18 19  1  0  0  0  0
 18 20  2  0  0  0  0
M  END
> <VConfSearch Rank>
269

> <Conf_Id>
84

> <Delta U+W>
0.942

> <U+W>
-50.803

> <U>
10.196

> <W>
-60.999

> <W(PB)>
-63.182

> <W(SA)>
2.182

> <Valence>
9.837

> <Coulomb>
0.032

> <VdW>
0.328

> <VdW6>
-7.642

> <VdW12>
7.969

> <Bond>
0.151

> <Angle>
2.748

> <Pdih>
6.937

> <Idih>
0.001

> <Tether>
0.000

$$$$
VeraChem MOL file


 20 19  0  0  0  0  0  0  0  0999 V2000     
   23.0210   19.3534   21.2899 C   0  0  0  0  0  0  0  0  0  0  0  0
   23.8447   19.9778   20.9480 H   0  0  0  0  0  0  0  0  0  0  0  0
   23.2019   18.7130   22.1517 H   0  0  0  0  0  0  0  0  0  0  0  0
   21.8357   19.3769   20.6748 C   0  0  0  0  0  0  0  0  0  0  0  0
   21.6751   20.0258   19.8141 H   0  0  0  0  0  0  0  0  0  0  0  0
   20.6476   18.5388   21.0914 C   0  0  0  0  0  0  0  0  0  0  0  0
   20.9653   17.7450   21.7812 H   0  0  0  0  0  0  0  0  0  0  0  0
   20.2228   18.0402   20.2099 H   0  0  0  0  0  0  0  0  0  0  0  0
   19.5648   19.4046   21.7688 C   0  0  0  0  0  0  0  0  0  0  0  0
   19.9983   19.9052   22.6458 H   0  0  0  0  0  0  0  0  0  0  0  0
   19.2437   20.1962   21.0779 H   0  0  0  0  0  0  0  0  0  0  0  0
   18.3416   18.5632   22.1977 C   0  0  0  0  0  0  0  0  0  0  0  0
   18.6570   17.7789   22.9000 H   0  0  0  0  0  0  0  0  0  0  0  0
   17.9272   18.0519   21.3183 H   0  0  0  0  0  0  0  0  0  0  0  0
   17.2277   19.4208   22.8524 C   0  0  0  0  0  0  0  0  0  0  0  0
   16.9207   20.2256   22.1734 H   0  0  0  0  0  0  0  0  0  0  0  0
   16.3421   18.7989   23.0284 H   0  0  0  0  0  0  0  0  0  0  0  0
   17.6254   20.0374   24.1905 C   0  0  0  0  0  0  0  0  0  0  0  0
   17.8785   21.2256   24.2245 O   0  5  0  0  0  0  0  0  0  0  0  0
   17.6586   19.3141   25.1666 O   0  0  0  0  0  0  0  0  0  0  0  0
  1  2  1  0  0  0  0
  1  3  1  0  0  0  0
  1  4  2  0  0  0  0
  4  5  1  0  0  0  0
  4  6  1  0  0  0  0
  6  7  1  0  0  0  0
  6  8  1  0  0  0  0
  6  9  1  0  0  0  0
  9 10  1  0  0  0  0
  9 11  1  0  0  0  0
  9 12  1  0  0  0  0
 12 13  1  0  0  0  0
 12 14  1  0  0  0  0
 12 15  1  0  0  0  0
 15 16  1  0  0  0  0
 15 17  1  0  0  0  0
 15 18  1  0  0  0  0
 18 19  1  0  0  0  0
 18 20  2  0  0  0  0
M  END
> <VConfSearch Rank>
270

> <Conf_Id>
81

> <Delta U+W>
-0.051

> <U+W>
-51.796

> <U>
9.412

> <W>
-61.209

> <W(PB)>
-63.452

> <W(SA)>
2.243

> <Valence>
9.329

> <Coulomb>
-0.323

> <VdW>
0.406

> <VdW6>
-6.640

> <VdW12>
7.046

> <Bond>
0.105

> <Angle>
2.401

> <Pdih>
6.823

> <Idih>
0.000

> <Tether>
0.000

$$$$
VeraChem MOL file


 20 19  0  0  0  0  0  0  0  0999 V2000     
   18.7552   17.5031   19.3501 C   0  0  0  0  0  0  0  0  0  0  0  0
   19.1233   16.4821   19.4360 H   0  0  0  0  0  0  0  0  0  0  0  0
   17.9978   17.7009   18.5935 H   0  0  0  0  0  0  0  0  0  0  0  0
   19.2103   18.4774   20.1421 C   0  0  0  0  0  0  0  0  0  0  0  0
   18.8302   19.4933   20.0382 H   0  0  0  0  0  0  0  0  0  0  0  0
   20.2642   18.2792   21.2105 C   0  0  0  0  0  0  0  0  0  0  0  0
   21.0041   19.0888   21.1645 H   0  0  0  0  0  0  0  0  0  0  0  0
   20.8214   17.3535   21.0136 H   0  0  0  0  0  0  0  0  0  0  0  0
   19.6570   18.1940   22.6313 C   0  0  0  0  0  0  0  0  0  0  0  0
   18.9866   17.3250   22.6777 H   0  0  0  0  0  0  0  0  0  0  0  0
   20.4627   17.9953   23.3513 H   0  0  0  0  0  0  0  0  0  0  0  0
   18.8722   19.4545   23.0776 C   0  0  0  0  0  0  0  0  0  0  0  0
   18.4640   19.2774   24.0822 H   0  0  0  0  0  0  0  0  0  0  0  0
   18.0054   19.5986   22.4191 H   0  0  0  0  0  0  0  0  0  0  0  0
   19.7140   20.7594   23.1053 C   0  0  0  0  0  0  0  0  0  0  0  0
   20.0750   21.0076   22.1007 H   0  0  0  0  0  0  0  0  0  0  0  0
   19.0784   21.5947   23.4215 H   0  0  0  0  0  0  0  0  0  0  0  0
   20.9070   20.7110   24.0556 C   0  0  0  0  0  0  0  0  0  0  0  0
   22.0227   20.6515   23.5774 O   0  5  0  0  0  0  0  0  0  0  0  0
   20.6888   20.7517   25.2506 O   0  0  0  0  0  0  0  0  0  0  0  0
  1  2  1  0  0  0  0
  1  3  1  0  0  0  0
  1  4  2  0  0  0  0
  4  5  1  0  0  0  0
  4  6  1  0  0  0  0
  6  7  1  0  0  0  0
  6  8  1  0  0  0  0
  6  9  1  0  0  0  0
  9 10  1  0  0  0  0
  9 11  1  0  0  0  0
  9 12  1  0  0  0  0
 12 13  1  0  0  0  0
 12 14  1  0  0  0  0
 12 15  1  0  0  0  0
 15 16  1  0  0  0  0
 15 17  1  0  0  0  0
 15 18  1  0  0  0  0
 18 19  1  0  0  0  0
 18 20  2  0  0  0  0
M  END
> <VConfSearch Rank>
271

> <Conf_Id>
86

> <Delta U+W>
1.248

> <U+W>
-50.498

> <U>
10.404

> <W>
-60.901

> <W(PB)>
-63.061

> <W(SA)>
2.159

> <Valence>
10.021

> <Coulomb>
0.094

> <VdW>
0.289

> <VdW6>
-8.409

> <VdW12>
8.698

> <Bond>
0.179

> <Angle>
2.939

> <Pdih>
6.902

> <Idih>
0.001

> <Tether>
0.000

$$$$
VeraChem MOL file


 20 19  0  0  0  0  0  0  0  0999 V2000     
   21.2110   16.9836   23.8841 C   0  0  0  0  0  0  0  0  0  0  0  0
   20.9681   16.0567   24.4007 H   0  0  0  0  0  0  0  0  0  0  0  0
   22.0425   16.9629   23.1815 H   0  0  0  0  0  0  0  0  0  0  0  0
   20.5115   18.1001   24.1037 C   0  0  0  0  0  0  0  0  0  0  0  0
   19.6813   18.0990   24.8095 H   0  0  0  0  0  0  0  0  0  0  0  0
   20.7892   19.4241   23.4240 C   0  0  0  0  0  0  0  0  0  0  0  0
   21.7504   19.3925   22.8932 H   0  0  0  0  0  0  0  0  0  0  0  0
   20.8833   20.2067   24.1885 H   0  0  0  0  0  0  0  0  0  0  0  0
   19.6685   19.8235   22.4378 C   0  0  0  0  0  0  0  0  0  0  0  0
   18.7062   19.8516   22.9670 H   0  0  0  0  0  0  0  0  0  0  0  0
   19.8598   20.8453   22.0821 H   0  0  0  0  0  0  0  0  0  0  0  0
   19.5719   18.8678   21.2251 C   0  0  0  0  0  0  0  0  0  0  0  0
   19.3740   17.8471   21.5788 H   0  0  0  0  0  0  0  0  0  0  0  0
   20.5357   18.8370   20.6982 H   0  0  0  0  0  0  0  0  0  0  0  0
   18.4546   19.2769   20.2305 C   0  0  0  0  0  0  0  0  0  0  0  0
   18.3486   18.5037   19.4606 H   0  0  0  0  0  0  0  0  0  0  0  0
   17.4908   19.3424   20.7497 H   0  0  0  0  0  0  0  0  0  0  0  0
   18.7140   20.6000   19.5156 C   0  0  0  0  0  0  0  0  0  0  0  0
   19.5256   20.6124   18.6111 O   0  5  0  0  0  0  0  0  0  0  0  0
   18.0905   21.5799   19.8735 O   0  0  0  0  0  0  0  0  0  0  0  0
  1  2  1  0  0  0  0
  1  3  1  0  0  0  0
  1  4  2  0  0  0  0
  4  5  1  0  0  0  0
  4  6  1  0  0  0  0
  6  7  1  0  0  0  0
  6  8  1  0  0  0  0
  6  9  1  0  0  0  0
  9 10  1  0  0  0  0
  9 11  1  0  0  0  0
  9 12  1  0  0  0  0
 12 13  1  0  0  0  0
 12 14  1  0  0  0  0
 12 15  1  0  0  0  0
 15 16  1  0  0  0  0
 15 17  1  0  0  0  0
 15 18  1  0  0  0  0
 18 19  1  0  0  0  0
 18 20  2  0  0  0  0
M  END
> <VConfSearch Rank>
272

> <Conf_Id>
28

> <Delta U+W>
0.446

> <U+W>
-51.299

> <U>
9.295

> <W>
-60.594

> <W(PB)>
-62.806

> <W(SA)>
2.212

> <Valence>
9.495

> <Coulomb>
-0.610

> <VdW>
0.409

> <VdW6>
-7.332

> <VdW12>
7.741

> <Bond>
0.126

> <Angle>
2.497

> <Pdih>
6.872

> <Idih>
0.000

> <Tether>
0.000

$$$$
VeraChem MOL file


 20 19  0  0  0  0  0  0  0  0999 V2000     
   18.4793   22.0797   21.8826 C   0  0  0  0  0  0  0  0  0  0  0  0
   18.2304   21.5132   20.9879 H   0  0  0  0  0  0  0  0  0  0  0  0
   17.9804   23.0387   22.0115 H   0  0  0  0  0  0  0  0  0  0  0  0
   19.3513   21.6351   22.7947 C   0  0  0  0  0  0  0  0  0  0  0  0
   19.5581   22.2471   23.6723 H   0  0  0  0  0  0  0  0  0  0  0  0
   20.1227   20.3264   22.7528 C   0  0  0  0  0  0  0  0  0  0  0  0
   19.8304   19.7242   23.6226 H   0  0  0  0  0  0  0  0  0  0  0  0
   21.1909   20.5442   22.8844 H   0  0  0  0  0  0  0  0  0  0  0  0
   19.9337   19.4979   21.4580 C   0  0  0  0  0  0  0  0  0  0  0  0
   18.8810   19.1982   21.3620 H   0  0  0  0  0  0  0  0  0  0  0  0
   20.1603   20.1329   20.5907 H   0  0  0  0  0  0  0  0  0  0  0  0
   20.8402   18.2439   21.3894 C   0  0  0  0  0  0  0  0  0  0  0  0
   21.8925   18.5551   21.4355 H   0  0  0  0  0  0  0  0  0  0  0  0
   20.7047   17.7636   20.4104 H   0  0  0  0  0  0  0  0  0  0  0  0
   20.5710   17.1925   22.5006 C   0  0  0  0  0  0  0  0  0  0  0  0
   21.2630   16.3511   22.3786 H   0  0  0  0  0  0  0  0  0  0  0  0
   20.7705   17.6160   23.4914 H   0  0  0  0  0  0  0  0  0  0  0  0
   19.1563   16.6204   22.4889 C   0  0  0  0  0  0  0  0  0  0  0  0
   18.8482   15.8735   21.5808 O   0  5  0  0  0  0  0  0  0  0  0  0
   18.4068   16.9191   23.3977 O   0  0  0  0  0  0  0  0  0  0  0  0
  1  2  1  0  0  0  0
  1  3  1  0  0  0  0
  1  4  2  0  0  0  0
  4  5  1  0  0  0  0
  4  6  1  0  0  0  0
  6  7  1  0  0  0  0
  6  8  1  0  0  0  0
  6  9  1  0  0  0  0
  9 10  1  0  0  0  0
  9 11  1  0  0  0  0
  9 12  1  0  0  0  0
 12 13  1  0  0  0  0
 12 14  1  0  0  0  0
 12 15  1  0  0  0  0
 15 16  1  0  0  0  0
 15 17  1  0  0  0  0
 15 18  1  0  0  0  0
 18 19  1  0  0  0  0
 18 20  2  0  0  0  0
M  END
> <VConfSearch Rank>
273

> <Conf_Id>
53

> <Delta U+W>
0.549

> <U+W>
-51.197

> <U>
10.870

> <W>
-62.067

> <W(PB)>
-64.228

> <W(SA)>
2.161

> <Valence>
8.803

> <Coulomb>
1.020

> <VdW>
1.048

> <VdW6>
-8.312

> <VdW12>
9.360

> <Bond>
0.212

> <Angle>
3.379

> <Pdih>
5.211

> <Idih>
0.001

> <Tether>
0.000

$$$$
VeraChem MOL file


 20 19  0  0  0  0  0  0  0  0999 V2000     
   22.4152   18.3378   21.6093 C   0  0  0  0  0  0  0  0  0  0  0  0
   22.2004   18.9714   20.7516 H   0  0  0  0  0  0  0  0  0  0  0  0
   23.2073   17.6003   21.4928 H   0  0  0  0  0  0  0  0  0  0  0  0
   21.7493   18.4519   22.7635 C   0  0  0  0  0  0  0  0  0  0  0  0
   22.0061   17.7938   23.5932 H   0  0  0  0  0  0  0  0  0  0  0  0
   20.6231   19.4276   23.0624 C   0  0  0  0  0  0  0  0  0  0  0  0
   21.0369   20.2867   23.6066 H   0  0  0  0  0  0  0  0  0  0  0  0
   19.9239   18.9608   23.7679 H   0  0  0  0  0  0  0  0  0  0  0  0
   19.8258   19.9385   21.8339 C   0  0  0  0  0  0  0  0  0  0  0  0
   19.0972   20.6859   22.1764 H   0  0  0  0  0  0  0  0  0  0  0  0
   20.5028   20.4759   21.1571 H   0  0  0  0  0  0  0  0  0  0  0  0
   19.0769   18.8354   21.0405 C   0  0  0  0  0  0  0  0  0  0  0  0
   19.8008   18.1201   20.6296 H   0  0  0  0  0  0  0  0  0  0  0  0
   18.5825   19.2988   20.1757 H   0  0  0  0  0  0  0  0  0  0  0  0
   18.0133   18.0590   21.8640 C   0  0  0  0  0  0  0  0  0  0  0  0
   17.5426   17.3021   21.2259 H   0  0  0  0  0  0  0  0  0  0  0  0
   18.4861   17.5162   22.6903 H   0  0  0  0  0  0  0  0  0  0  0  0
   16.8983   18.9352   22.4275 C   0  0  0  0  0  0  0  0  0  0  0  0
   16.8777   19.1428   23.6248 O   0  5  0  0  0  0  0  0  0  0  0  0
   16.0683   19.3727   21.6548 O   0  0  0  0  0  0  0  0  0  0  0  0
  1  2  1  0  0  0  0
  1  3  1  0  0  0  0
  1  4  2  0  0  0  0
  4  5  1  0  0  0  0
  4  6  1  0  0  0  0
  6  7  1  0  0  0  0
  6  8  1  0  0  0  0
  6  9  1  0  0  0  0
  9 10  1  0  0  0  0
  9 11  1  0  0  0  0
  9 12  1  0  0  0  0
 12 13  1  0  0  0  0
 12 14  1  0  0  0  0
 12 15  1  0  0  0  0
 15 16  1  0  0  0  0
 15 17  1  0  0  0  0
 15 18  1  0  0  0  0
 18 19  1  0  0  0  0
 18 20  2  0  0  0  0
M  END
> <VConfSearch Rank>
274

> <Conf_Id>
66

> <Delta U+W>
1.737

> <U+W>
-50.008

> <U>
11.091

> <W>
-61.099

> <W(PB)>
-63.213

> <W(SA)>
2.114

> <Valence>
9.664

> <Coulomb>
0.658

> <VdW>
0.769

> <VdW6>
-9.171

> <VdW12>
9.940

> <Bond>
0.244

> <Angle>
3.658

> <Pdih>
5.762

> <Idih>
0.001

> <Tether>
0.000

$$$$
VeraChem MOL file


 20 19  0  0  0  0  0  0  0  0999 V2000     
   17.4411   17.4902   21.3469 C   0  0  0  0  0  0  0  0  0  0  0  0
   17.3514   18.2886   20.6136 H   0  0  0  0  0  0  0  0  0  0  0  0
   17.1426   16.4927   21.0295 H   0  0  0  0  0  0  0  0  0  0  0  0
   17.8904   17.7085   22.5876 C   0  0  0  0  0  0  0  0  0  0  0  0
   17.9576   16.8721   23.2828 H   0  0  0  0  0  0  0  0  0  0  0  0
   18.3450   19.0396   23.1639 C   0  0  0  0  0  0  0  0  0  0  0  0
   19.1651   18.8593   23.8700 H   0  0  0  0  0  0  0  0  0  0  0  0
   17.5326   19.4513   23.7772 H   0  0  0  0  0  0  0  0  0  0  0  0
   18.7944   20.1074   22.1323 C   0  0  0  0  0  0  0  0  0  0  0  0
   17.9593   20.3361   21.4571 H   0  0  0  0  0  0  0  0  0  0  0  0
   19.0085   21.0435   22.6657 H   0  0  0  0  0  0  0  0  0  0  0  0
   20.0396   19.7166   21.2960 C   0  0  0  0  0  0  0  0  0  0  0  0
   20.2166   20.4995   20.5457 H   0  0  0  0  0  0  0  0  0  0  0  0
   19.8461   18.7925   20.7356 H   0  0  0  0  0  0  0  0  0  0  0  0
   21.3260   19.5418   22.1443 C   0  0  0  0  0  0  0  0  0  0  0  0
   21.5061   20.4383   22.7493 H   0  0  0  0  0  0  0  0  0  0  0  0
   21.2197   18.6974   22.8346 H   0  0  0  0  0  0  0  0  0  0  0  0
   22.5649   19.2914   21.2918 C   0  0  0  0  0  0  0  0  0  0  0  0
   22.8692   18.1414   21.0433 O   0  5  0  0  0  0  0  0  0  0  0  0
   23.1857   20.2542   20.8863 O   0  0  0  0  0  0  0  0  0  0  0  0
  1  2  1  0  0  0  0
  1  3  1  0  0  0  0
  1  4  2  0  0  0  0
  4  5  1  0  0  0  0
  4  6  1  0  0  0  0
  6  7  1  0  0  0  0
  6  8  1  0  0  0  0
  6  9  1  0  0  0  0
  9 10  1  0  0  0  0
  9 11  1  0  0  0  0
  9 12  1  0  0  0  0
 12 13  1  0  0  0  0
 12 14  1  0  0  0  0
 12 15  1  0  0  0  0
 15 16  1  0  0  0  0
 15 17  1  0  0  0  0
 15 18  1  0  0  0  0
 18 19  1  0  0  0  0
 18 20  2  0  0  0  0
M  END
> <VConfSearch Rank>
275

> <Conf_Id>
64

> <Delta U+W>
0.366

> <U+W>
-51.379

> <U>
10.000

> <W>
-61.379

> <W(PB)>
-63.541

> <W(SA)>
2.162

> <Valence>
9.398

> <Coulomb>
-0.504

> <VdW>
1.105

> <VdW6>
-7.975

> <VdW12>
9.080

> <Bond>
0.216

> <Angle>
3.417

> <Pdih>
5.765

> <Idih>
0.001

> <Tether>
0.000

$$$$
VeraChem MOL file


 20 19  0  0  0  0  0  0  0  0999 V2000     
   18.9196   21.9004   22.2385 C   0  0  0  0  0  0  0  0  0  0  0  0
   19.3253   21.9200   23.2486 H   0  0  0  0  0  0  0  0  0  0  0  0
   17.9541   22.3765   22.0769 H   0  0  0  0  0  0  0  0  0  0  0  0
   19.5760   21.3126   21.2347 C   0  0  0  0  0  0  0  0  0  0  0  0
   19.1512   21.3019   20.2313 H   0  0  0  0  0  0  0  0  0  0  0  0
   20.9197   20.6309   21.3823 C   0  0  0  0  0  0  0  0  0  0  0  0
   21.3650   20.8616   22.3597 H   0  0  0  0  0  0  0  0  0  0  0  0
   21.6091   21.0294   20.6262 H   0  0  0  0  0  0  0  0  0  0  0  0
   20.8214   19.0985   21.2090 C   0  0  0  0  0  0  0  0  0  0  0  0
   20.3754   18.8679   20.2318 H   0  0  0  0  0  0  0  0  0  0  0  0
   21.8358   18.6769   21.1993 H   0  0  0  0  0  0  0  0  0  0  0  0
   20.0012   18.4227   22.3316 C   0  0  0  0  0  0  0  0  0  0  0  0
   18.9756   18.8169   22.3347 H   0  0  0  0  0  0  0  0  0  0  0  0
   20.4389   18.6687   23.3090 H   0  0  0  0  0  0  0  0  0  0  0  0
   19.9535   16.8840   22.1642 C   0  0  0  0  0  0  0  0  0  0  0  0
   19.5070   16.6224   21.1973 H   0  0  0  0  0  0  0  0  0  0  0  0
   20.9688   16.4699   22.1755 H   0  0  0  0  0  0  0  0  0  0  0  0
   19.1492   16.1941   23.2601 C   0  0  0  0  0  0  0  0  0  0  0  0
   19.7278   15.8700   24.2785 O   0  5  0  0  0  0  0  0  0  0  0  0
   17.9625   16.0114   23.0726 O   0  0  0  0  0  0  0  0  0  0  0  0
  1  2  1  0  0  0  0
  1  3  1  0  0  0  0
  1  4  2  0  0  0  0
  4  5  1  0  0  0  0
  4  6  1  0  0  0  0
  6  7  1  0  0  0  0
  6  8  1  0  0  0  0
  6  9  1  0  0  0  0
  9 10  1  0  0  0  0
  9 11  1  0  0  0  0
  9 12  1  0  0  0  0
 12 13  1  0  0  0  0
 12 14  1  0  0  0  0
 12 15  1  0  0  0  0
 15 16  1  0  0  0  0
 15 17  1  0  0  0  0
 15 18  1  0  0  0  0
 18 19  1  0  0  0  0
 18 20  2  0  0  0  0
M  END
> <VConfSearch Rank>
276

> <Conf_Id>
42

> <Delta U+W>
-0.601

> <U+W>
-52.347

> <U>
8.428

> <W>
-60.774

> <W(PB)>
-62.982

> <W(SA)>
2.208

> <Valence>
9.231

> <Coulomb>
-1.304

> <VdW>
0.501

> <VdW6>
-6.515

> <VdW12>
7.016

> <Bond>
0.103

> <Angle>
2.328

> <Pdih>
6.799

> <Idih>
0.000

> <Tether>
0.000

$$$$
VeraChem MOL file


 20 19  0  0  0  0  0  0  0  0999 V2000     
   16.9548   20.1890   21.1770 C   0  0  0  0  0  0  0  0  0  0  0  0
   16.9977   19.6621   20.2252 H   0  0  0  0  0  0  0  0  0  0  0  0
   16.4818   21.1695   21.1861 H   0  0  0  0  0  0  0  0  0  0  0  0
   17.4650   19.6583   22.2915 C   0  0  0  0  0  0  0  0  0  0  0  0
   17.4143   20.2036   23.2335 H   0  0  0  0  0  0  0  0  0  0  0  0
   18.1376   18.3037   22.3565 C   0  0  0  0  0  0  0  0  0  0  0  0
   17.9737   17.7453   21.4248 H   0  0  0  0  0  0  0  0  0  0  0  0
   17.6757   17.7116   23.1577 H   0  0  0  0  0  0  0  0  0  0  0  0
   19.6542   18.4158   22.6312 C   0  0  0  0  0  0  0  0  0  0  0  0
   19.8156   18.9687   23.5669 H   0  0  0  0  0  0  0  0  0  0  0  0
   20.0624   17.4082   22.7888 H   0  0  0  0  0  0  0  0  0  0  0  0
   20.4211   19.0999   21.4749 C   0  0  0  0  0  0  0  0  0  0  0  0
   20.0511   20.1248   21.3336 H   0  0  0  0  0  0  0  0  0  0  0  0
   20.2208   18.5609   20.5391 H   0  0  0  0  0  0  0  0  0  0  0  0
   21.9524   19.1392   21.7165 C   0  0  0  0  0  0  0  0  0  0  0  0
   22.3362   18.1255   21.8834 H   0  0  0  0  0  0  0  0  0  0  0  0
   22.4546   19.5254   20.8216 H   0  0  0  0  0  0  0  0  0  0  0  0
   22.3720   20.0180   22.8914 C   0  0  0  0  0  0  0  0  0  0  0  0
   22.6841   19.4758   23.9334 O   0  5  0  0  0  0  0  0  0  0  0  0
   22.3929   21.2220   22.7270 O   0  0  0  0  0  0  0  0  0  0  0  0
  1  2  1  0  0  0  0
  1  3  1  0  0  0  0
  1  4  2  0  0  0  0
  4  5  1  0  0  0  0
  4  6  1  0  0  0  0
  6  7  1  0  0  0  0
  6  8  1  0  0  0  0
  6  9  1  0  0  0  0
  9 10  1  0  0  0  0
  9 11  1  0  0  0  0
  9 12  1  0  0  0  0
 12 13  1  0  0  0  0
 12 14  1  0  0  0  0
 12 15  1  0  0  0  0
 15 16  1  0  0  0  0
 15 17  1  0  0  0  0
 15 18  1  0  0  0  0
 18 19  1  0  0  0  0
 18 20  2  0  0  0  0
M  END
> <VConfSearch Rank>
277

> <Conf_Id>
68

> <Delta U+W>
0.492

> <U+W>
-51.253

> <U>
10.179

> <W>
-61.432

> <W(PB)>
-63.627

> <W(SA)>
2.195

> <Valence>
9.483

> <Coulomb>
0.361

> <VdW>
0.335

> <VdW6>
-7.385

> <VdW12>
7.720

> <Bond>
0.125

> <Angle>
2.487

> <Pdih>
6.870

> <Idih>
0.001

> <Tether>
0.000

$$$$
VeraChem MOL file


 20 19  0  0  0  0  0  0  0  0999 V2000     
   16.7883   19.5811   23.4505 C   0  0  0  0  0  0  0  0  0  0  0  0
   16.7611   20.6418   23.6947 H   0  0  0  0  0  0  0  0  0  0  0  0
   16.2524   18.9010   24.1105 H   0  0  0  0  0  0  0  0  0  0  0  0
   17.4547   19.1274   22.3857 C   0  0  0  0  0  0  0  0  0  0  0  0
   17.4667   18.0619   22.1581 H   0  0  0  0  0  0  0  0  0  0  0  0
   18.2161   20.0124   21.4220 C   0  0  0  0  0  0  0  0  0  0  0  0
   17.8695   21.0502   21.5193 H   0  0  0  0  0  0  0  0  0  0  0  0
   18.0003   19.7121   20.3880 H   0  0  0  0  0  0  0  0  0  0  0  0
   19.7412   19.9748   21.6687 C   0  0  0  0  0  0  0  0  0  0  0  0
   20.2218   20.7296   21.0315 H   0  0  0  0  0  0  0  0  0  0  0  0
   19.9484   20.2652   22.7081 H   0  0  0  0  0  0  0  0  0  0  0  0
   20.3643   18.5898   21.3732 C   0  0  0  0  0  0  0  0  0  0  0  0
   20.1088   18.2887   20.3483 H   0  0  0  0  0  0  0  0  0  0  0  0
   19.9337   17.8328   22.0427 H   0  0  0  0  0  0  0  0  0  0  0  0
   21.9072   18.5864   21.5287 C   0  0  0  0  0  0  0  0  0  0  0  0
   22.3066   17.6206   21.1972 H   0  0  0  0  0  0  0  0  0  0  0  0
   22.3552   19.3530   20.8850 H   0  0  0  0  0  0  0  0  0  0  0  0
   22.3863   18.8120   22.9600 C   0  0  0  0  0  0  0  0  0  0  0  0
   22.3260   17.8796   23.7373 O   0  5  0  0  0  0  0  0  0  0  0  0
   22.8246   19.9065   23.2547 O   0  0  0  0  0  0  0  0  0  0  0  0
  1  2  1  0  0  0  0
  1  3  1  0  0  0  0
  1  4  2  0  0  0  0
  4  5  1  0  0  0  0
  4  6  1  0  0  0  0
  6  7  1  0  0  0  0
  6  8  1  0  0  0  0
  6  9  1  0  0  0  0
  9 10  1  0  0  0  0
  9 11  1  0  0  0  0
  9 12  1  0  0  0  0
 12 13  1  0  0  0  0
 12 14  1  0  0  0  0
 12 15  1  0  0  0  0
 15 16  1  0  0  0  0
 15 17  1  0  0  0  0
 15 18  1  0  0  0  0
 18 19  1  0  0  0  0
 18 20  2  0  0  0  0
M  END
> <VConfSearch Rank>
278

> <Conf_Id>
87

> <Delta U+W>
0.339

> <U+W>
-51.407

> <U>
10.461

> <W>
-61.867

> <W(PB)>
-64.045

> <W(SA)>
2.178

> <Valence>
9.555

> <Coulomb>
0.483

> <VdW>
0.423

> <VdW6>
-7.223

> <VdW12>
7.646

> <Bond>
0.126

> <Angle>
2.492

> <Pdih>
6.936

> <Idih>
0.001

> <Tether>
0.000

$$$$
VeraChem MOL file


 20 19  0  0  0  0  0  0  0  0999 V2000     
   20.7798   16.4768   22.7319 C   0  0  0  0  0  0  0  0  0  0  0  0
   21.8079   16.5870   22.3910 H   0  0  0  0  0  0  0  0  0  0  0  0
   20.6145   15.9381   23.6633 H   0  0  0  0  0  0  0  0  0  0  0  0
   19.7587   16.9844   22.0366 C   0  0  0  0  0  0  0  0  0  0  0  0
   18.7361   16.8560   22.3895 H   0  0  0  0  0  0  0  0  0  0  0  0
   19.9141   17.7323   20.7297 C   0  0  0  0  0  0  0  0  0  0  0  0
   18.9620   17.7442   20.1827 H   0  0  0  0  0  0  0  0  0  0  0  0
   20.6164   17.1775   20.0929 H   0  0  0  0  0  0  0  0  0  0  0  0
   20.4446   19.1773   20.9021 C   0  0  0  0  0  0  0  0  0  0  0  0
   21.2901   19.1859   21.6036 H   0  0  0  0  0  0  0  0  0  0  0  0
   20.8520   19.5042   19.9357 H   0  0  0  0  0  0  0  0  0  0  0  0
   19.3803   20.2154   21.3386 C   0  0  0  0  0  0  0  0  0  0  0  0
   18.5303   20.1941   20.6428 H   0  0  0  0  0  0  0  0  0  0  0  0
   19.8219   21.2180   21.2535 H   0  0  0  0  0  0  0  0  0  0  0  0
   18.8672   20.0302   22.7897 C   0  0  0  0  0  0  0  0  0  0  0  0
   18.2889   19.1050   22.8783 H   0  0  0  0  0  0  0  0  0  0  0  0
   19.7121   19.9561   23.4847 H   0  0  0  0  0  0  0  0  0  0  0  0
   17.9732   21.1758   23.2500 C   0  0  0  0  0  0  0  0  0  0  0  0
   16.7810   21.0989   23.0274 O   0  5  0  0  0  0  0  0  0  0  0  0
   18.4950   22.1252   23.8007 O   0  0  0  0  0  0  0  0  0  0  0  0
  1  2  1  0  0  0  0
  1  3  1  0  0  0  0
  1  4  2  0  0  0  0
  4  5  1  0  0  0  0
  4  6  1  0  0  0  0
  6  7  1  0  0  0  0
  6  8  1  0  0  0  0
  6  9  1  0  0  0  0
  9 10  1  0  0  0  0
  9 11  1  0  0  0  0
  9 12  1  0  0  0  0
 12 13  1  0  0  0  0
 12 14  1  0  0  0  0
 12 15  1  0  0  0  0
 15 16  1  0  0  0  0
 15 17  1  0  0  0  0
 15 18  1  0  0  0  0
 18 19  1  0  0  0  0
 18 20  2  0  0  0  0
M  END
> <VConfSearch Rank>
279

> <Conf_Id>
51

> <Delta U+W>
1.709

> <U+W>
-50.036

> <U>
10.643

> <W>
-60.679

> <W(PB)>
-62.882

> <W(SA)>
2.203

> <Valence>
11.231

> <Coulomb>
-1.077

> <VdW>
0.489

> <VdW6>
-7.546

> <VdW12>
8.035

> <Bond>
0.159

> <Angle>
3.005

> <Pdih>
8.065

> <Idih>
0.002

> <Tether>
0.000

$$$$
VeraChem MOL file


 20 19  0  0  0  0  0  0  0  0999 V2000     
   21.9872   18.2593   20.6720 C   0  0  0  0  0  0  0  0  0  0  0  0
   22.3019   17.4089   21.2746 H   0  0  0  0  0  0  0  0  0  0  0  0
   22.7662   18.8967   20.2572 H   0  0  0  0  0  0  0  0  0  0  0  0
   20.6950   18.5144   20.4508 C   0  0  0  0  0  0  0  0  0  0  0  0
   20.4001   19.3651   19.8376 H   0  0  0  0  0  0  0  0  0  0  0  0
   19.5617   17.6648   20.9850 C   0  0  0  0  0  0  0  0  0  0  0  0
   19.8111   16.6081   20.8191 H   0  0  0  0  0  0  0  0  0  0  0  0
   18.6448   17.8482   20.4091 H   0  0  0  0  0  0  0  0  0  0  0  0
   19.2897   17.8734   22.4955 C   0  0  0  0  0  0  0  0  0  0  0  0
   18.7280   17.0026   22.8602 H   0  0  0  0  0  0  0  0  0  0  0  0
   20.2374   17.8746   23.0512 H   0  0  0  0  0  0  0  0  0  0  0  0
   18.4681   19.1408   22.8416 C   0  0  0  0  0  0  0  0  0  0  0  0
   18.1861   19.0893   23.9024 H   0  0  0  0  0  0  0  0  0  0  0  0
   17.5278   19.1432   22.2735 H   0  0  0  0  0  0  0  0  0  0  0  0
   19.2221   20.4740   22.6018 C   0  0  0  0  0  0  0  0  0  0  0  0
   20.2047   20.4472   23.0876 H   0  0  0  0  0  0  0  0  0  0  0  0
   19.3905   20.6338   21.5321 H   0  0  0  0  0  0  0  0  0  0  0  0
   18.4631   21.6847   23.1326 C   0  0  0  0  0  0  0  0  0  0  0  0
   17.6658   22.2308   22.3959 O   0  5  0  0  0  0  0  0  0  0  0  0
   18.6739   22.0378   24.2762 O   0  0  0  0  0  0  0  0  0  0  0  0
  1  2  1  0  0  0  0
  1  3  1  0  0  0  0
  1  4  2  0  0  0  0
  4  5  1  0  0  0  0
  4  6  1  0  0  0  0
  6  7  1  0  0  0  0
  6  8  1  0  0  0  0
  6  9  1  0  0  0  0
  9 10  1  0  0  0  0
  9 11  1  0  0  0  0
  9 12  1  0  0  0  0
 12 13  1  0  0  0  0
 12 14  1  0  0  0  0
 12 15  1  0  0  0  0
 15 16  1  0  0  0  0
 15 17  1  0  0  0  0
 15 18  1  0  0  0  0
 18 19  1  0  0  0  0
 18 20  2  0  0  0  0
M  END
> <VConfSearch Rank>
280

> <Conf_Id>
91

> <Delta U+W>
1.604

> <U+W>
-50.141

> <U>
10.644

> <W>
-60.786

> <W(PB)>
-62.965

> <W(SA)>
2.179

> <Valence>
11.230

> <Coulomb>
-1.075

> <VdW>
0.489

> <VdW6>
-7.547

> <VdW12>
8.036

> <Bond>
0.159

> <Angle>
3.006

> <Pdih>
8.064

> <Idih>
0.002

> <Tether>
0.000

$$$$
VeraChem MOL file


 20 19  0  0  0  0  0  0  0  0999 V2000     
   16.1227   18.9830   21.6246 C   0  0  0  0  0  0  0  0  0  0  0  0
   16.0803   19.2648   22.6755 H   0  0  0  0  0  0  0  0  0  0  0  0
   15.2320   18.5317   21.1906 H   0  0  0  0  0  0  0  0  0  0  0  0
   17.2230   19.1791   20.8935 C   0  0  0  0  0  0  0  0  0  0  0  0
   17.2449   18.8892   19.8432 H   0  0  0  0  0  0  0  0  0  0  0  0
   18.4952   19.8000   21.4262 C   0  0  0  0  0  0  0  0  0  0  0  0
   18.3040   20.2912   22.3900 H   0  0  0  0  0  0  0  0  0  0  0  0
   18.8395   20.5818   20.7361 H   0  0  0  0  0  0  0  0  0  0  0  0
   19.6021   18.7393   21.6007 C   0  0  0  0  0  0  0  0  0  0  0  0
   19.2510   17.9576   22.2885 H   0  0  0  0  0  0  0  0  0  0  0  0
   19.7961   18.2515   20.6355 H   0  0  0  0  0  0  0  0  0  0  0  0
   20.9101   19.3572   22.1415 C   0  0  0  0  0  0  0  0  0  0  0  0
   20.7169   19.8449   23.1071 H   0  0  0  0  0  0  0  0  0  0  0  0
   21.2610   20.1399   21.4547 H   0  0  0  0  0  0  0  0  0  0  0  0
   22.0229   18.2899   22.3175 C   0  0  0  0  0  0  0  0  0  0  0  0
   21.6817   17.5088   23.0070 H   0  0  0  0  0  0  0  0  0  0  0  0
   22.2254   17.8035   21.3561 H   0  0  0  0  0  0  0  0  0  0  0  0
   23.3554   18.8186   22.8507 C   0  0  0  0  0  0  0  0  0  0  0  0
   24.2518   18.0122   23.0006 O   0  5  0  0  0  0  0  0  0  0  0  0
   23.4769   20.0018   23.1035 O   0  0  0  0  0  0  0  0  0  0  0  0
  1  2  1  0  0  0  0
  1  3  1  0  0  0  0
  1  4  2  0  0  0  0
  4  5  1  0  0  0  0
  4  6  1  0  0  0  0
  6  7  1  0  0  0  0
  6  8  1  0  0  0  0
  6  9  1  0  0  0  0
  9 10  1  0  0  0  0
  9 11  1  0  0  0  0
  9 12  1  0  0  0  0
 12 13  1  0  0  0  0
 12 14  1  0  0  0  0
 12 15  1  0  0  0  0
 15 16  1  0  0  0  0
 15 17  1  0  0  0  0
 15 18  1  0  0  0  0
 18 19  1  0  0  0  0
 18 20  2  0  0  0  0
M  END
> <VConfSearch Rank>
281

> <Conf_Id>
33

> <Delta U+W>
0.000

> <U+W>
-51.745

> <U>
7.593

> <W>
-59.338

> <W(PB)>
-61.574

> <W(SA)>
2.236

> <Valence>
9.570

> <Coulomb>
-3.091

> <VdW>
1.114

> <VdW6>
-6.064

> <VdW12>
7.178

> <Bond>
0.117

> <Angle>
2.692

> <Pdih>
6.761

> <Idih>
0.000

> <Tether>
0.000

$$$$
VeraChem MOL file


 20 19  0  0  0  0  0  0  0  0999 V2000     
   18.5616   20.7897   18.9695 C   0  0  0  0  0  0  0  0  0  0  0  0
   19.0582   20.0531   18.3399 H   0  0  0  0  0  0  0  0  0  0  0  0
   18.1747   21.6842   18.4842 H   0  0  0  0  0  0  0  0  0  0  0  0
   18.4323   20.6083   20.2864 C   0  0  0  0  0  0  0  0  0  0  0  0
   17.9325   21.3584   20.8989 H   0  0  0  0  0  0  0  0  0  0  0  0
   18.9427   19.3935   21.0290 C   0  0  0  0  0  0  0  0  0  0  0  0
   19.1915   18.5921   20.3203 H   0  0  0  0  0  0  0  0  0  0  0  0
   18.1464   19.0076   21.6779 H   0  0  0  0  0  0  0  0  0  0  0  0
   20.1909   19.7418   21.8708 C   0  0  0  0  0  0  0  0  0  0  0  0
   20.9416   20.2041   21.2151 H   0  0  0  0  0  0  0  0  0  0  0  0
   19.9296   20.4976   22.6241 H   0  0  0  0  0  0  0  0  0  0  0  0
   20.8298   18.5149   22.5641 C   0  0  0  0  0  0  0  0  0  0  0  0
   21.7674   18.8297   23.0431 H   0  0  0  0  0  0  0  0  0  0  0  0
   21.1039   17.7635   21.8106 H   0  0  0  0  0  0  0  0  0  0  0  0
   19.9170   17.8645   23.6358 C   0  0  0  0  0  0  0  0  0  0  0  0
   19.6018   18.6150   24.3706 H   0  0  0  0  0  0  0  0  0  0  0  0
   19.0095   17.4578   23.1756 H   0  0  0  0  0  0  0  0  0  0  0  0
   20.6051   16.7292   24.3852 C   0  0  0  0  0  0  0  0  0  0  0  0
   20.5212   15.6063   23.9283 O   0  5  0  0  0  0  0  0  0  0  0  0
   21.2237   17.0007   25.3954 O   0  0  0  0  0  0  0  0  0  0  0  0
  1  2  1  0  0  0  0
  1  3  1  0  0  0  0
  1  4  2  0  0  0  0
  4  5  1  0  0  0  0
  4  6  1  0  0  0  0
  6  7  1  0  0  0  0
  6  8  1  0  0  0  0
  6  9  1  0  0  0  0
  9 10  1  0  0  0  0
  9 11  1  0  0  0  0
  9 12  1  0  0  0  0
 12 13  1  0  0  0  0
 12 14  1  0  0  0  0
 12 15  1  0  0  0  0
 15 16  1  0  0  0  0
 15 17  1  0  0  0  0
 15 18  1  0  0  0  0
 18 19  1  0  0  0  0
 18 20  2  0  0  0  0
M  END
> <VConfSearch Rank>
282

> <Conf_Id>
37

> <Delta U+W>
-0.384

> <U+W>
-52.130

> <U>
7.491

> <W>
-59.621

> <W(PB)>
-61.853

> <W(SA)>
2.232

> <Valence>
9.604

> <Coulomb>
-2.799

> <VdW>
0.686

> <VdW6>
-6.435

> <VdW12>
7.121

> <Bond>
0.124

> <Angle>
2.493

> <Pdih>
6.986

> <Idih>
0.001

> <Tether>
0.000

$$$$
VeraChem MOL file


 20 19  0  0  0  0  0  0  0  0999 V2000     
   20.2246   19.5582   18.6256 C   0  0  0  0  0  0  0  0  0  0  0  0
   20.3594   19.7520   17.5628 H   0  0  0  0  0  0  0  0  0  0  0  0
   20.5505   18.5873   18.9927 H   0  0  0  0  0  0  0  0  0  0  0  0
   19.6817   20.4833   19.4252 C   0  0  0  0  0  0  0  0  0  0  0  0
   19.3744   21.4379   18.9988 H   0  0  0  0  0  0  0  0  0  0  0  0
   19.4311   20.3590   20.9188 C   0  0  0  0  0  0  0  0  0  0  0  0
   18.3623   20.5216   21.1119 H   0  0  0  0  0  0  0  0  0  0  0  0
   19.9527   21.1771   21.4334 H   0  0  0  0  0  0  0  0  0  0  0  0
   19.8601   19.0112   21.5444 C   0  0  0  0  0  0  0  0  0  0  0  0
   19.3259   18.1895   21.0478 H   0  0  0  0  0  0  0  0  0  0  0  0
   20.9336   18.8521   21.3727 H   0  0  0  0  0  0  0  0  0  0  0  0
   19.5720   18.9667   23.0610 C   0  0  0  0  0  0  0  0  0  0  0  0
   18.4993   19.1253   23.2394 H   0  0  0  0  0  0  0  0  0  0  0  0
   20.1037   19.7865   23.5637 H   0  0  0  0  0  0  0  0  0  0  0  0
   20.0007   17.6180   23.6898 C   0  0  0  0  0  0  0  0  0  0  0  0
   19.4684   16.7892   23.2078 H   0  0  0  0  0  0  0  0  0  0  0  0
   21.0729   17.4504   23.5319 H   0  0  0  0  0  0  0  0  0  0  0  0
   19.7263   17.5496   25.1878 C   0  0  0  0  0  0  0  0  0  0  0  0
   18.6456   17.1321   25.5544 O   0  5  0  0  0  0  0  0  0  0  0  0
   20.5930   17.9342   25.9478 O   0  0  0  0  0  0  0  0  0  0  0  0
  1  2  1  0  0  0  0
  1  3  1  0  0  0  0
  1  4  2  0  0  0  0
  4  5  1  0  0  0  0
  4  6  1  0  0  0  0
  6  7  1  0  0  0  0
  6  8  1  0  0  0  0
  6  9  1  0  0  0  0
  9 10  1  0  0  0  0
  9 11  1  0  0  0  0
  9 12  1  0  0  0  0
 12 13  1  0  0  0  0
 12 14  1  0  0  0  0
 12 15  1  0  0  0  0
 15 16  1  0  0  0  0
 15 17  1  0  0  0  0
 15 18  1  0  0  0  0
 18 19  1  0  0  0  0
 18 20  2  0  0  0  0
M  END
> <VConfSearch Rank>
283

> <Conf_Id>
44

> <Delta U+W>
-1.440

> <U+W>
-53.185

> <U>
6.572

> <W>
-59.757

> <W(PB)>
-62.007

> <W(SA)>
2.249

> <Valence>
7.989

> <Coulomb>
-2.697

> <VdW>
1.281

> <VdW6>
-6.467

> <VdW12>
7.748

> <Bond>
0.136

> <Angle>
2.854

> <Pdih>
4.997

> <Idih>
0.001

> <Tether>
0.000

$$$$
VeraChem MOL file


 20 19  0  0  0  0  0  0  0  0999 V2000     
   17.9479   17.0579   19.7976 C   0  0  0  0  0  0  0  0  0  0  0  0
   18.8988   17.0446   19.2674 H   0  0  0  0  0  0  0  0  0  0  0  0
   17.0717   16.6933   19.2641 H   0  0  0  0  0  0  0  0  0  0  0  0
   17.8550   17.5057   21.0525 C   0  0  0  0  0  0  0  0  0  0  0  0
   16.8932   17.5111   21.5650 H   0  0  0  0  0  0  0  0  0  0  0  0
   19.0263   18.0252   21.8562 C   0  0  0  0  0  0  0  0  0  0  0  0
   19.9680   17.7327   21.3744 H   0  0  0  0  0  0  0  0  0  0  0  0
   19.0219   17.5620   22.8519 H   0  0  0  0  0  0  0  0  0  0  0  0
   18.9628   19.5626   21.9995 C   0  0  0  0  0  0  0  0  0  0  0  0
   19.0223   20.0272   21.0057 H   0  0  0  0  0  0  0  0  0  0  0  0
   17.9839   19.8409   22.4135 H   0  0  0  0  0  0  0  0  0  0  0  0
   20.0678   20.1439   22.9136 C   0  0  0  0  0  0  0  0  0  0  0  0
   20.0034   19.6872   23.9109 H   0  0  0  0  0  0  0  0  0  0  0  0
   19.8812   21.2179   23.0519 H   0  0  0  0  0  0  0  0  0  0  0  0
   21.5001   19.9563   22.3495 C   0  0  0  0  0  0  0  0  0  0  0  0
   21.7540   18.8923   22.2844 H   0  0  0  0  0  0  0  0  0  0  0  0
   21.5649   20.3694   21.3359 H   0  0  0  0  0  0  0  0  0  0  0  0
   22.5638   20.6346   23.2054 C   0  0  0  0  0  0  0  0  0  0  0  0
   22.8542   21.7872   22.9527 O   0  5  0  0  0  0  0  0  0  0  0  0
   23.0596   19.9992   24.1148 O   0  0  0  0  0  0  0  0  0  0  0  0
  1  2  1  0  0  0  0
  1  3  1  0  0  0  0
  1  4  2  0  0  0  0
  4  5  1  0  0  0  0
  4  6  1  0  0  0  0
  6  7  1  0  0  0  0
  6  8  1  0  0  0  0
  6  9  1  0  0  0  0
  9 10  1  0  0  0  0
  9 11  1  0  0  0  0
  9 12  1  0  0  0  0
 12 13  1  0  0  0  0
 12 14  1  0  0  0  0
 12 15  1  0  0  0  0
 15 16  1  0  0  0  0
 15 17  1  0  0  0  0
 15 18  1  0  0  0  0
 18 19  1  0  0  0  0
 18 20  2  0  0  0  0
M  END
> <VConfSearch Rank>
284

> <Conf_Id>
38

> <Delta U+W>
-0.381

> <U+W>
-52.126

> <U>
7.601

> <W>
-59.727

> <W(PB)>
-61.964

> <W(SA)>
2.236

> <Valence>
9.602

> <Coulomb>
-2.686

> <VdW>
0.685

> <VdW6>
-6.453

> <VdW12>
7.139

> <Bond>
0.125

> <Angle>
2.485

> <Pdih>
6.991

> <Idih>
0.001

> <Tether>
0.000

$$$$
VeraChem MOL file


 20 19  0  0  0  0  0  0  0  0999 V2000     
   16.8881   18.3271   24.0107 C   0  0  0  0  0  0  0  0  0  0  0  0
   16.7080   17.4189   23.4377 H   0  0  0  0  0  0  0  0  0  0  0  0
   16.4771   18.3738   25.0178 H   0  0  0  0  0  0  0  0  0  0  0  0
   17.5873   19.3453   23.5028 C   0  0  0  0  0  0  0  0  0  0  0  0
   17.7570   20.2453   24.0935 H   0  0  0  0  0  0  0  0  0  0  0  0
   18.1871   19.3530   22.1144 C   0  0  0  0  0  0  0  0  0  0  0  0
   17.9283   20.2923   21.6076 H   0  0  0  0  0  0  0  0  0  0  0  0
   17.7600   18.5402   21.5112 H   0  0  0  0  0  0  0  0  0  0  0  0
   19.7216   19.2011   22.1695 C   0  0  0  0  0  0  0  0  0  0  0  0
   20.1464   20.0165   22.7713 H   0  0  0  0  0  0  0  0  0  0  0  0
   19.9766   18.2628   22.6813 H   0  0  0  0  0  0  0  0  0  0  0  0
   20.3512   19.2099   20.7582 C   0  0  0  0  0  0  0  0  0  0  0  0
   20.1069   20.1518   20.2473 H   0  0  0  0  0  0  0  0  0  0  0  0
   19.9094   18.4018   20.1595 H   0  0  0  0  0  0  0  0  0  0  0  0
   21.8909   19.0279   20.7909 C   0  0  0  0  0  0  0  0  0  0  0  0
   22.1521   18.1049   21.3227 H   0  0  0  0  0  0  0  0  0  0  0  0
   22.2693   18.9225   19.7674 H   0  0  0  0  0  0  0  0  0  0  0  0
   22.6391   20.1906   21.4366 C   0  0  0  0  0  0  0  0  0  0  0  0
   23.0870   20.0368   22.5558 O   0  5  0  0  0  0  0  0  0  0  0  0
   22.7635   21.2167   20.7972 O   0  0  0  0  0  0  0  0  0  0  0  0
  1  2  1  0  0  0  0
  1  3  1  0  0  0  0
  1  4  2  0  0  0  0
  4  5  1  0  0  0  0
  4  6  1  0  0  0  0
  6  7  1  0  0  0  0
  6  8  1  0  0  0  0
  6  9  1  0  0  0  0
  9 10  1  0  0  0  0
  9 11  1  0  0  0  0
  9 12  1  0  0  0  0
 12 13  1  0  0  0  0
 12 14  1  0  0  0  0
 12 15  1  0  0  0  0
 15 16  1  0  0  0  0
 15 17  1  0  0  0  0
 15 18  1  0  0  0  0
 18 19  1  0  0  0  0
 18 20  2  0  0  0  0
M  END
> <VConfSearch Rank>
285

> <Conf_Id>
58

> <Delta U+W>
0.019

> <U+W>
-51.727

> <U>
8.963

> <W>
-60.690

> <W(PB)>
-62.934

> <W(SA)>
2.244

> <Valence>
9.327

> <Coulomb>
-0.780

> <VdW>
0.417

> <VdW6>
-6.635

> <VdW12>
7.052

> <Bond>
0.105

> <Angle>
2.399

> <Pdih>
6.822

> <Idih>
0.000

> <Tether>
0.000

$$$$
VeraChem MOL file


 20 19  0  0  0  0  0  0  0  0999 V2000     
   22.8893   19.2531   20.3595 C   0  0  0  0  0  0  0  0  0  0  0  0
   22.4261   19.1948   19.3758 H   0  0  0  0  0  0  0  0  0  0  0  0
   23.9257   18.9311   20.4450 H   0  0  0  0  0  0  0  0  0  0  0  0
   22.2152   19.6990   21.4227 C   0  0  0  0  0  0  0  0  0  0  0  0
   22.6971   19.7485   22.3989 H   0  0  0  0  0  0  0  0  0  0  0  0
   20.7762   20.1630   21.3807 C   0  0  0  0  0  0  0  0  0  0  0  0
   20.4580   20.3216   20.3413 H   0  0  0  0  0  0  0  0  0  0  0  0
   20.6878   21.1321   21.8898 H   0  0  0  0  0  0  0  0  0  0  0  0
   19.8403   19.1378   22.0545 C   0  0  0  0  0  0  0  0  0  0  0  0
   19.9352   18.1686   21.5456 H   0  0  0  0  0  0  0  0  0  0  0  0
   20.1593   18.9827   23.0945 H   0  0  0  0  0  0  0  0  0  0  0  0
   18.3655   19.5984   22.0229 C   0  0  0  0  0  0  0  0  0  0  0  0
   18.0606   19.7658   20.9810 H   0  0  0  0  0  0  0  0  0  0  0  0
   18.2653   20.5626   22.5406 H   0  0  0  0  0  0  0  0  0  0  0  0
   17.4046   18.5665   22.6687 C   0  0  0  0  0  0  0  0  0  0  0  0
   16.3671   18.8852   22.5143 H   0  0  0  0  0  0  0  0  0  0  0  0
   17.5131   17.5904   22.1806 H   0  0  0  0  0  0  0  0  0  0  0  0
   17.6076   18.3855   24.1704 C   0  0  0  0  0  0  0  0  0  0  0  0
   17.1917   19.2533   24.9128 O   0  5  0  0  0  0  0  0  0  0  0  0
   18.1654   17.3781   24.5589 O   0  0  0  0  0  0  0  0  0  0  0  0
  1  2  1  0  0  0  0
  1  3  1  0  0  0  0
  1  4  2  0  0  0  0
  4  5  1  0  0  0  0
  4  6  1  0  0  0  0
  6  7  1  0  0  0  0
  6  8  1  0  0  0  0
  6  9  1  0  0  0  0
  9 10  1  0  0  0  0
  9 11  1  0  0  0  0
  9 12  1  0  0  0  0
 12 13  1  0  0  0  0
 12 14  1  0  0  0  0
 12 15  1  0  0  0  0
 15 16  1  0  0  0  0
 15 17  1  0  0  0  0
 15 18  1  0  0  0  0
 18 19  1  0  0  0  0
 18 20  2  0  0  0  0
M  END
> <VConfSearch Rank>
286

> <Conf_Id>
54

> <Delta U+W>
-0.048

> <U+W>
-51.793

> <U>
8.964

> <W>
-60.756

> <W(PB)>
-63.007

> <W(SA)>
2.251

> <Valence>
9.327

> <Coulomb>
-0.780

> <VdW>
0.417

> <VdW6>
-6.635

> <VdW12>
7.052

> <Bond>
0.105

> <Angle>
2.399

> <Pdih>
6.822

> <Idih>
0.000

> <Tether>
0.000

$$$$
VeraChem MOL file


 20 19  0  0  0  0  0  0  0  0999 V2000     
   22.8023   20.2001   23.0054 C   0  0  0  0  0  0  0  0  0  0  0  0
   23.4612   19.9304   23.8291 H   0  0  0  0  0  0  0  0  0  0  0  0
   23.2671   20.4500   22.0530 H   0  0  0  0  0  0  0  0  0  0  0  0
   21.4760   20.2195   23.1605 C   0  0  0  0  0  0  0  0  0  0  0  0
   21.0317   19.9693   24.1234 H   0  0  0  0  0  0  0  0  0  0  0  0
   20.5000   20.5906   22.0644 C   0  0  0  0  0  0  0  0  0  0  0  0
   21.0204   21.1615   21.2834 H   0  0  0  0  0  0  0  0  0  0  0  0
   19.7227   21.2555   22.4643 H   0  0  0  0  0  0  0  0  0  0  0  0
   19.8429   19.3512   21.4161 C   0  0  0  0  0  0  0  0  0  0  0  0
   19.2583   19.6787   20.5454 H   0  0  0  0  0  0  0  0  0  0  0  0
   20.6250   18.6811   21.0335 H   0  0  0  0  0  0  0  0  0  0  0  0
   18.9220   18.5792   22.3907 C   0  0  0  0  0  0  0  0  0  0  0  0
   18.1485   19.2529   22.7848 H   0  0  0  0  0  0  0  0  0  0  0  0
   19.5082   18.2325   23.2519 H   0  0  0  0  0  0  0  0  0  0  0  0
   18.2447   17.3531   21.7251 C   0  0  0  0  0  0  0  0  0  0  0  0
   19.0039   16.6873   21.2969 H   0  0  0  0  0  0  0  0  0  0  0  0
   17.7071   16.7741   22.4852 H   0  0  0  0  0  0  0  0  0  0  0  0
   17.2415   17.7145   20.6334 C   0  0  0  0  0  0  0  0  0  0  0  0
   17.5683   17.5522   19.4742 O   0  5  0  0  0  0  0  0  0  0  0  0
   16.1544   18.1390   20.9728 O   0  0  0  0  0  0  0  0  0  0  0  0
  1  2  1  0  0  0  0
  1  3  1  0  0  0  0
  1  4  2  0  0  0  0
  4  5  1  0  0  0  0
  4  6  1  0  0  0  0
  6  7  1  0  0  0  0
  6  8  1  0  0  0  0
  6  9  1  0  0  0  0
  9 10  1  0  0  0  0
  9 11  1  0  0  0  0
  9 12  1  0  0  0  0
 12 13  1  0  0  0  0
 12 14  1  0  0  0  0
 12 15  1  0  0  0  0
 15 16  1  0  0  0  0
 15 17  1  0  0  0  0
 15 18  1  0  0  0  0
 18 19  1  0  0  0  0
 18 20  2  0  0  0  0
M  END
> <VConfSearch Rank>
287

> <Conf_Id>
27

> <Delta U+W>
0.478

> <U+W>
-51.267

> <U>
9.192

> <W>
-60.459

> <W(PB)>
-62.649

> <W(SA)>
2.190

> <Valence>
9.572

> <Coulomb>
-0.884

> <VdW>
0.504

> <VdW6>
-7.168

> <VdW12>
7.672

> <Bond>
0.127

> <Angle>
2.504

> <Pdih>
6.941

> <Idih>
0.001

> <Tether>
0.000

$$$$
VeraChem MOL file


 20 19  0  0  0  0  0  0  0  0999 V2000     
   20.5425   15.6421   22.6092 C   0  0  0  0  0  0  0  0  0  0  0  0
   20.7737   15.5996   23.6724 H   0  0  0  0  0  0  0  0  0  0  0  0
   21.0575   14.9399   21.9559 H   0  0  0  0  0  0  0  0  0  0  0  0
   19.6645   16.5222   22.1211 C   0  0  0  0  0  0  0  0  0  0  0  0
   19.4455   16.5457   21.0540 H   0  0  0  0  0  0  0  0  0  0  0  0
   18.9072   17.5226   22.9682 C   0  0  0  0  0  0  0  0  0  0  0  0
   18.9127   17.1984   24.0177 H   0  0  0  0  0  0  0  0  0  0  0  0
   17.8533   17.5511   22.6609 H   0  0  0  0  0  0  0  0  0  0  0  0
   19.5133   18.9417   22.8852 C   0  0  0  0  0  0  0  0  0  0  0  0
   19.0069   19.5858   23.6170 H   0  0  0  0  0  0  0  0  0  0  0  0
   20.5716   18.9041   23.1785 H   0  0  0  0  0  0  0  0  0  0  0  0
   19.3814   19.5704   21.4790 C   0  0  0  0  0  0  0  0  0  0  0  0
   18.3251   19.5835   21.1764 H   0  0  0  0  0  0  0  0  0  0  0  0
   19.9171   18.9568   20.7420 H   0  0  0  0  0  0  0  0  0  0  0  0
   19.9428   21.0131   21.4388 C   0  0  0  0  0  0  0  0  0  0  0  0
   19.4094   21.6476   22.1568 H   0  0  0  0  0  0  0  0  0  0  0  0
   21.0009   21.0154   21.7271 H   0  0  0  0  0  0  0  0  0  0  0  0
   19.8256   21.6555   20.0613 C   0  0  0  0  0  0  0  0  0  0  0  0
   20.7471   21.5139   19.2819 O   0  5  0  0  0  0  0  0  0  0  0  0
   18.8083   22.2657   19.7977 O   0  0  0  0  0  0  0  0  0  0  0  0
  1  2  1  0  0  0  0
  1  3  1  0  0  0  0
  1  4  2  0  0  0  0
  4  5  1  0  0  0  0
  4  6  1  0  0  0  0
  6  7  1  0  0  0  0
  6  8  1  0  0  0  0
  6  9  1  0  0  0  0
  9 10  1  0  0  0  0
  9 11  1  0  0  0  0
  9 12  1  0  0  0  0
 12 13  1  0  0  0  0
 12 14  1  0  0  0  0
 12 15  1  0  0  0  0
 15 16  1  0  0  0  0
 15 17  1  0  0  0  0
 15 18  1  0  0  0  0
 18 19  1  0  0  0  0
 18 20  2  0  0  0  0
M  END
> <VConfSearch Rank>
288

> <Conf_Id>
41

> <Delta U+W>
-0.634

> <U+W>
-52.379

> <U>
7.828

> <W>
-60.207

> <W(PB)>
-62.449

> <W(SA)>
2.242

> <Valence>
9.300

> <Coulomb>
-2.080

> <VdW>
0.608

> <VdW6>
-6.341

> <VdW12>
6.949

> <Bond>
0.103

> <Angle>
2.334

> <Pdih>
6.862

> <Idih>
0.001

> <Tether>
0.000

$$$$
VeraChem MOL file


 20 19  0  0  0  0  0  0  0  0999 V2000     
   21.3291   22.0779   22.0270 C   0  0  0  0  0  0  0  0  0  0  0  0
   21.7177   22.8823   21.4046 H   0  0  0  0  0  0  0  0  0  0  0  0
   21.0179   22.3329   23.0387 H   0  0  0  0  0  0  0  0  0  0  0  0
   21.2373   20.8290   21.5628 C   0  0  0  0  0  0  0  0  0  0  0  0
   21.5536   20.5945   20.5466 H   0  0  0  0  0  0  0  0  0  0  0  0
   20.7099   19.6618   22.3672 C   0  0  0  0  0  0  0  0  0  0  0  0
   20.6613   19.9251   23.4324 H   0  0  0  0  0  0  0  0  0  0  0  0
   21.4078   18.8192   22.2780 H   0  0  0  0  0  0  0  0  0  0  0  0
   19.3078   19.2378   21.8757 C   0  0  0  0  0  0  0  0  0  0  0  0
   18.6503   20.1181   21.8777 H   0  0  0  0  0  0  0  0  0  0  0  0
   19.3706   18.9023   20.8313 H   0  0  0  0  0  0  0  0  0  0  0  0
   18.6556   18.1336   22.7437 C   0  0  0  0  0  0  0  0  0  0  0  0
   17.6376   17.9484   22.3740 H   0  0  0  0  0  0  0  0  0  0  0  0
   18.5468   18.5000   23.7734 H   0  0  0  0  0  0  0  0  0  0  0  0
   19.4318   16.7883   22.7614 C   0  0  0  0  0  0  0  0  0  0  0  0
   20.4291   16.9223   23.1955 H   0  0  0  0  0  0  0  0  0  0  0  0
   18.9063   16.0748   23.4067 H   0  0  0  0  0  0  0  0  0  0  0  0
   19.5794   16.1362   21.3897 C   0  0  0  0  0  0  0  0  0  0  0  0
   18.5928   15.6387   20.8832 O   0  5  0  0  0  0  0  0  0  0  0  0
   20.6788   16.1264   20.8718 O   0  0  0  0  0  0  0  0  0  0  0  0
  1  2  1  0  0  0  0
  1  3  1  0  0  0  0
  1  4  2  0  0  0  0
  4  5  1  0  0  0  0
  4  6  1  0  0  0  0
  6  7  1  0  0  0  0
  6  8  1  0  0  0  0
  6  9  1  0  0  0  0
  9 10  1  0  0  0  0
  9 11  1  0  0  0  0
  9 12  1  0  0  0  0
 12 13  1  0  0  0  0
 12 14  1  0  0  0  0
 12 15  1  0  0  0  0
 15 16  1  0  0  0  0
 15 17  1  0  0  0  0
 15 18  1  0  0  0  0
 18 19  1  0  0  0  0
 18 20  2  0  0  0  0
M  END
> <VConfSearch Rank>
289

> <Conf_Id>
84

> <Delta U+W>
0.942

> <U+W>
-50.803

> <U>
10.196

> <W>
-60.999

> <W(PB)>
-63.182

> <W(SA)>
2.182

> <Valence>
9.837

> <Coulomb>
0.032

> <VdW>
0.328

> <VdW6>
-7.642

> <VdW12>
7.969

> <Bond>
0.151

> <Angle>
2.748

> <Pdih>
6.937

> <Idih>
0.001

> <Tether>
0.000

$$$$
VeraChem MOL file


 20 19  0  0  0  0  0  0  0  0999 V2000     
   17.1531   17.1553   20.8287 C   0  0  0  0  0  0  0  0  0  0  0  0
   16.1421   17.1001   20.4287 H   0  0  0  0  0  0  0  0  0  0  0  0
   17.9320   16.6093   20.2988 H   0  0  0  0  0  0  0  0  0  0  0  0
   17.4235   17.8680   21.9253 C   0  0  0  0  0  0  0  0  0  0  0  0
   16.6294   18.4081   22.4404 H   0  0  0  0  0  0  0  0  0  0  0  0
   18.8006   17.9904   22.5387 C   0  0  0  0  0  0  0  0  0  0  0  0
   19.4717   17.2268   22.1222 H   0  0  0  0  0  0  0  0  0  0  0  0
   18.7394   17.8022   23.6190 H   0  0  0  0  0  0  0  0  0  0  0  0
   19.3992   19.3907   22.2900 C   0  0  0  0  0  0  0  0  0  0  0  0
   19.4515   19.5747   21.2079 H   0  0  0  0  0  0  0  0  0  0  0  0
   18.7305   20.1547   22.7099 H   0  0  0  0  0  0  0  0  0  0  0  0
   20.8058   19.5333   22.9139 C   0  0  0  0  0  0  0  0  0  0  0  0
   21.4811   18.7795   22.4857 H   0  0  0  0  0  0  0  0  0  0  0  0
   20.7467   19.3289   23.9916 H   0  0  0  0  0  0  0  0  0  0  0  0
   21.4118   20.9450   22.7022 C   0  0  0  0  0  0  0  0  0  0  0  0
   20.7359   21.7113   23.1007 H   0  0  0  0  0  0  0  0  0  0  0  0
   22.3511   21.0283   23.2615 H   0  0  0  0  0  0  0  0  0  0  0  0
   21.7182   21.2762   21.2443 C   0  0  0  0  0  0  0  0  0  0  0  0
   20.9788   22.0439   20.6606 O   0  5  0  0  0  0  0  0  0  0  0  0
   22.6971   20.7666   20.7352 O   0  0  0  0  0  0  0  0  0  0  0  0
  1  2  1  0  0  0  0
  1  3  1  0  0  0  0
  1  4  2  0  0  0  0
  4  5  1  0  0  0  0
  4  6  1  0  0  0  0
  6  7  1  0  0  0  0
  6  8  1  0  0  0  0
  6  9  1  0  0  0  0
  9 10  1  0  0  0  0
  9 11  1  0  0  0  0
  9 12  1  0  0  0  0
 12 13  1  0  0  0  0
 12 14  1  0  0  0  0
 12 15  1  0  0  0  0
 15 16  1  0  0  0  0
 15 17  1  0  0  0  0
 15 18  1  0  0  0  0
 18 19  1  0  0  0  0
 18 20  2  0  0  0  0
M  END
> <VConfSearch Rank>
290

> <Conf_Id>
81

> <Delta U+W>
-0.051

> <U+W>
-51.796

> <U>
9.412

> <W>
-61.209

> <W(PB)>
-63.452

> <W(SA)>
2.243

> <Valence>
9.329

> <Coulomb>
-0.323

> <VdW>
0.406

> <VdW6>
-6.640

> <VdW12>
7.046

> <Bond>
0.105

> <Angle>
2.401

> <Pdih>
6.823

> <Idih>
0.000

> <Tether>
0.000

$$$$
VeraChem MOL file


 20 19  0  0  0  0  0  0  0  0999 V2000     
   17.8925   21.1438   23.8207 C   0  0  0  0  0  0  0  0  0  0  0  0
   16.9242   20.6784   23.9974 H   0  0  0  0  0  0  0  0  0  0  0  0
   18.1613   21.9941   24.4451 H   0  0  0  0  0  0  0  0  0  0  0  0
   18.7224   20.6905   22.8776 C   0  0  0  0  0  0  0  0  0  0  0  0
   19.6862   21.1722   22.7153 H   0  0  0  0  0  0  0  0  0  0  0  0
   18.4153   19.5190   21.9693 C   0  0  0  0  0  0  0  0  0  0  0  0
   18.6849   19.7643   20.9340 H   0  0  0  0  0  0  0  0  0  0  0  0
   17.3332   19.3315   21.9601 H   0  0  0  0  0  0  0  0  0  0  0  0
   19.1343   18.2225   22.4131 C   0  0  0  0  0  0  0  0  0  0  0  0
   18.7832   17.9496   23.4176 H   0  0  0  0  0  0  0  0  0  0  0  0
   18.8284   17.4013   21.7505 H   0  0  0  0  0  0  0  0  0  0  0  0
   20.6820   18.3139   22.4328 C   0  0  0  0  0  0  0  0  0  0  0  0
   21.0865   17.3552   22.7858 H   0  0  0  0  0  0  0  0  0  0  0  0
   20.9953   19.0651   23.1698 H   0  0  0  0  0  0  0  0  0  0  0  0
   21.3236   18.6491   21.0587 C   0  0  0  0  0  0  0  0  0  0  0  0
   20.9992   19.6367   20.7116 H   0  0  0  0  0  0  0  0  0  0  0  0
   22.4129   18.7020   21.1700 H   0  0  0  0  0  0  0  0  0  0  0  0
   21.0276   17.6253   19.9667 C   0  0  0  0  0  0  0  0  0  0  0  0
   20.2682   17.9405   19.0716 O   0  5  0  0  0  0  0  0  0  0  0  0
   21.5790   16.5440   20.0312 O   0  0  0  0  0  0  0  0  0  0  0  0
  1  2  1  0  0  0  0
  1  3  1  0  0  0  0
  1  4  2  0  0  0  0
  4  5  1  0  0  0  0
  4  6  1  0  0  0  0
  6  7  1  0  0  0  0
  6  8  1  0  0  0  0
  6  9  1  0  0  0  0
  9 10  1  0  0  0  0
  9 11  1  0  0  0  0
  9 12  1  0  0  0  0
 12 13  1  0  0  0  0
 12 14  1  0  0  0  0
 12 15  1  0  0  0  0
 15 16  1  0  0  0  0
 15 17  1  0  0  0  0
 15 18  1  0  0  0  0
 18 19  1  0  0  0  0
 18 20  2  0  0  0  0
M  END
> <VConfSearch Rank>
291

> <Conf_Id>
86

> <Delta U+W>
1.248

> <U+W>
-50.498

> <U>
10.404

> <W>
-60.901

> <W(PB)>
-63.061

> <W(SA)>
2.159

> <Valence>
10.021

> <Coulomb>
0.094

> <VdW>
0.289

> <VdW6>
-8.409

> <VdW12>
8.698

> <Bond>
0.179

> <Angle>
2.939

> <Pdih>
6.902

> <Idih>
0.001

> <Tether>
0.000

$$$$
VeraChem MOL file


 20 19  0  0  0  0  0  0  0  0999 V2000     
   20.3922   16.0858   22.7776 C   0  0  0  0  0  0  0  0  0  0  0  0
   19.8392   15.1959   23.0732 H   0  0  0  0  0  0  0  0  0  0  0  0
   21.0169   16.0154   21.8887 H   0  0  0  0  0  0  0  0  0  0  0  0
   20.3024   17.2190   23.4789 C   0  0  0  0  0  0  0  0  0  0  0  0
   19.6696   17.2691   24.3646 H   0  0  0  0  0  0  0  0  0  0  0  0
   21.0395   18.4946   23.1299 C   0  0  0  0  0  0  0  0  0  0  0  0
   21.7987   18.3043   22.3591 H   0  0  0  0  0  0  0  0  0  0  0  0
   21.5809   18.8498   24.0168 H   0  0  0  0  0  0  0  0  0  0  0  0
   20.0851   19.6107   22.6490 C   0  0  0  0  0  0  0  0  0  0  0  0
   19.3231   19.7989   23.4176 H   0  0  0  0  0  0  0  0  0  0  0  0
   20.6578   20.5421   22.5416 H   0  0  0  0  0  0  0  0  0  0  0  0
   19.4000   19.2717   21.3039 C   0  0  0  0  0  0  0  0  0  0  0  0
   18.8215   18.3444   21.4116 H   0  0  0  0  0  0  0  0  0  0  0  0
   20.1624   19.0799   20.5363 H   0  0  0  0  0  0  0  0  0  0  0  0
   18.4516   20.3980   20.8169 C   0  0  0  0  0  0  0  0  0  0  0  0
   17.9030   20.0572   19.9310 H   0  0  0  0  0  0  0  0  0  0  0  0
   17.7035   20.6223   21.5869 H   0  0  0  0  0  0  0  0  0  0  0  0
   19.1670   21.6923   20.4406 C   0  0  0  0  0  0  0  0  0  0  0  0
   19.7599   21.7313   19.3803 O   0  5  0  0  0  0  0  0  0  0  0  0
   19.1035   22.6304   21.2107 O   0  0  0  0  0  0  0  0  0  0  0  0
  1  2  1  0  0  0  0
  1  3  1  0  0  0  0
  1  4  2  0  0  0  0
  4  5  1  0  0  0  0
  4  6  1  0  0  0  0
  6  7  1  0  0  0  0
  6  8  1  0  0  0  0
  6  9  1  0  0  0  0
  9 10  1  0  0  0  0
  9 11  1  0  0  0  0
  9 12  1  0  0  0  0
 12 13  1  0  0  0  0
 12 14  1  0  0  0  0
 12 15  1  0  0  0  0
 15 16  1  0  0  0  0
 15 17  1  0  0  0  0
 15 18  1  0  0  0  0
 18 19  1  0  0  0  0
 18 20  2  0  0  0  0
M  END
> <VConfSearch Rank>
292

> <Conf_Id>
28

> <Delta U+W>
0.446

> <U+W>
-51.299

> <U>
9.295

> <W>
-60.594

> <W(PB)>
-62.806

> <W(SA)>
2.212

> <Valence>
9.495

> <Coulomb>
-0.610

> <VdW>
0.409

> <VdW6>
-7.332

> <VdW12>
7.741

> <Bond>
0.126

> <Angle>
2.497

> <Pdih>
6.872

> <Idih>
0.000

> <Tether>
0.000

$$$$
VeraChem MOL file


 20 19  0  0  0  0  0  0  0  0999 V2000     
   20.7459   21.7042   20.4389 C   0  0  0  0  0  0  0  0  0  0  0  0
   21.6142   21.3295   20.9766 H   0  0  0  0  0  0  0  0  0  0  0  0
   20.9263   22.4721   19.6886 H   0  0  0  0  0  0  0  0  0  0  0  0
   19.5079   21.2533   20.6710 C   0  0  0  0  0  0  0  0  0  0  0  0
   18.6777   21.6659   20.0982 H   0  0  0  0  0  0  0  0  0  0  0  0
   19.1010   20.1928   21.6806 C   0  0  0  0  0  0  0  0  0  0  0  0
   18.6547   19.3503   21.1368 H   0  0  0  0  0  0  0  0  0  0  0  0
   18.3006   20.5989   22.3131 H   0  0  0  0  0  0  0  0  0  0  0  0
   20.2474   19.6796   22.5868 C   0  0  0  0  0  0  0  0  0  0  0  0
   21.0144   19.1907   21.9704 H   0  0  0  0  0  0  0  0  0  0  0  0
   20.7327   20.5382   23.0704 H   0  0  0  0  0  0  0  0  0  0  0  0
   19.7711   18.7064   23.6936 C   0  0  0  0  0  0  0  0  0  0  0  0
   19.0418   19.2181   24.3361 H   0  0  0  0  0  0  0  0  0  0  0  0
   20.6263   18.4583   24.3373 H   0  0  0  0  0  0  0  0  0  0  0  0
   19.1463   17.3859   23.1658 C   0  0  0  0  0  0  0  0  0  0  0  0
   18.8305   16.7695   24.0154 H   0  0  0  0  0  0  0  0  0  0  0  0
   18.2433   17.5914   22.5800 H   0  0  0  0  0  0  0  0  0  0  0  0
   20.0955   16.5405   22.3212 C   0  0  0  0  0  0  0  0  0  0  0  0
   21.0204   15.9856   22.8815 O   0  5  0  0  0  0  0  0  0  0  0  0
   19.8737   16.4417   21.1304 O   0  0  0  0  0  0  0  0  0  0  0  0
  1  2  1  0  0  0  0
  1  3  1  0  0  0  0
  1  4  2  0  0  0  0
  4  5  1  0  0  0  0
  4  6  1  0  0  0  0
  6  7  1  0  0  0  0
  6  8  1  0  0  0  0
  6  9  1  0  0  0  0
  9 10  1  0  0  0  0
  9 11  1  0  0  0  0
  9 12  1  0  0  0  0
 12 13  1  0  0  0  0
 12 14  1  0  0  0  0
 12 15  1  0  0  0  0
 15 16  1  0  0  0  0
 15 17  1  0  0  0  0
 15 18  1  0  0  0  0
 18 19  1  0  0  0  0
 18 20  2  0  0  0  0
M  END
> <VConfSearch Rank>
293

> <Conf_Id>
53

> <Delta U+W>
0.549

> <U+W>
-51.197

> <U>
10.870

> <W>
-62.067

> <W(PB)>
-64.228

> <W(SA)>
2.161

> <Valence>
8.803

> <Coulomb>
1.020

> <VdW>
1.048

> <VdW6>
-8.312

> <VdW12>
9.360

> <Bond>
0.212

> <Angle>
3.379

> <Pdih>
5.211

> <Idih>
0.001

> <Tether>
0.000

$$$$
VeraChem MOL file


 20 19  0  0  0  0  0  0  0  0999 V2000     
   20.8128   16.5816   23.2288 C   0  0  0  0  0  0  0  0  0  0  0  0
   20.8639   17.2710   24.0687 H   0  0  0  0  0  0  0  0  0  0  0  0
   21.5613   15.7922   23.1912 H   0  0  0  0  0  0  0  0  0  0  0  0
   19.8747   16.6825   22.2809 C   0  0  0  0  0  0  0  0  0  0  0  0
   19.8664   15.9638   21.4620 H   0  0  0  0  0  0  0  0  0  0  0  0
   18.7782   17.7323   22.2051 C   0  0  0  0  0  0  0  0  0  0  0  0
   17.8501   17.3008   22.6023 H   0  0  0  0  0  0  0  0  0  0  0  0
   18.5588   17.9439   21.1508 H   0  0  0  0  0  0  0  0  0  0  0  0
   19.0705   19.0706   22.9326 C   0  0  0  0  0  0  0  0  0  0  0  0
   18.1779   19.7073   22.8649 H   0  0  0  0  0  0  0  0  0  0  0  0
   19.2153   18.8796   24.0040 H   0  0  0  0  0  0  0  0  0  0  0  0
   20.2897   19.8566   22.3826 C   0  0  0  0  0  0  0  0  0  0  0  0
   21.2022   19.2604   22.5112 H   0  0  0  0  0  0  0  0  0  0  0  0
   20.4286   20.7607   22.9912 H   0  0  0  0  0  0  0  0  0  0  0  0
   20.1673   20.2751   20.8919 C   0  0  0  0  0  0  0  0  0  0  0  0
   21.0715   20.8177   20.5924 H   0  0  0  0  0  0  0  0  0  0  0  0
   20.1092   19.3912   20.2468 H   0  0  0  0  0  0  0  0  0  0  0  0
   18.9750   21.1793   20.5932 C   0  0  0  0  0  0  0  0  0  0  0  0
   18.0402   20.7140   19.9713 O   0  5  0  0  0  0  0  0  0  0  0  0
   19.0210   22.3322   20.9756 O   0  0  0  0  0  0  0  0  0  0  0  0
  1  2  1  0  0  0  0
  1  3  1  0  0  0  0
  1  4  2  0  0  0  0
  4  5  1  0  0  0  0
  4  6  1  0  0  0  0
  6  7  1  0  0  0  0
  6  8  1  0  0  0  0
  6  9  1  0  0  0  0
  9 10  1  0  0  0  0
  9 11  1  0  0  0  0
  9 12  1  0  0  0  0
 12 13  1  0  0  0  0
 12 14  1  0  0  0  0
 12 15  1  0  0  0  0
 15 16  1  0  0  0  0
 15 17  1  0  0  0  0
 15 18  1  0  0  0  0
 18 19  1  0  0  0  0
 18 20  2  0  0  0  0
M  END
> <VConfSearch Rank>
294

> <Conf_Id>
66

> <Delta U+W>
1.737

> <U+W>
-50.008

> <U>
11.091

> <W>
-61.099

> <W(PB)>
-63.213

> <W(SA)>
2.114

> <Valence>
9.664

> <Coulomb>
0.658

> <VdW>
0.769

> <VdW6>
-9.171

> <VdW12>
9.940

> <Bond>
0.244

> <Angle>
3.658

> <Pdih>
5.762

> <Idih>
0.001

> <Tether>
0.000

$$$$
VeraChem MOL file


 20 19  0  0  0  0  0  0  0  0999 V2000     
   22.0849   19.9870   21.5831 C   0  0  0  0  0  0  0  0  0  0  0  0
   21.5733   20.8761   21.9448 H   0  0  0  0  0  0  0  0  0  0  0  0
   23.1264   19.8638   21.8748 H   0  0  0  0  0  0  0  0  0  0  0  0
   21.4782   19.0798   20.8100 C   0  0  0  0  0  0  0  0  0  0  0  0
   22.0392   18.2083   20.4737 H   0  0  0  0  0  0  0  0  0  0  0  0
   20.0357   19.1184   20.3319 C   0  0  0  0  0  0  0  0  0  0  0  0
   19.6517   18.0921   20.2788 H   0  0  0  0  0  0  0  0  0  0  0  0
   20.0204   19.4774   19.2944 H   0  0  0  0  0  0  0  0  0  0  0  0
   19.0623   19.9770   21.1814 C   0  0  0  0  0  0  0  0  0  0  0  0
   19.4089   21.0188   21.1912 H   0  0  0  0  0  0  0  0  0  0  0  0
   18.0835   19.9955   20.6832 H   0  0  0  0  0  0  0  0  0  0  0  0
   18.8684   19.4859   22.6387 C   0  0  0  0  0  0  0  0  0  0  0  0
   18.2333   20.2083   23.1696 H   0  0  0  0  0  0  0  0  0  0  0  0
   19.8306   19.4763   23.1675 H   0  0  0  0  0  0  0  0  0  0  0  0
   18.2148   18.0831   22.7382 C   0  0  0  0  0  0  0  0  0  0  0  0
   17.2761   18.0610   22.1721 H   0  0  0  0  0  0  0  0  0  0  0  0
   18.8738   17.3203   22.3083 H   0  0  0  0  0  0  0  0  0  0  0  0
   17.9088   17.6757   24.1751 C   0  0  0  0  0  0  0  0  0  0  0  0
   18.7533   17.0537   24.7888 O   0  5  0  0  0  0  0  0  0  0  0  0
   16.8385   18.0038   24.6482 O   0  0  0  0  0  0  0  0  0  0  0  0
  1  2  1  0  0  0  0
  1  3  1  0  0  0  0
  1  4  2  0  0  0  0
  4  5  1  0  0  0  0
  4  6  1  0  0  0  0
  6  7  1  0  0  0  0
  6  8  1  0  0  0  0
  6  9  1  0  0  0  0
  9 10  1  0  0  0  0
  9 11  1  0  0  0  0
  9 12  1  0  0  0  0
 12 13  1  0  0  0  0
 12 14  1  0  0  0  0
 12 15  1  0  0  0  0
 15 16  1  0  0  0  0
 15 17  1  0  0  0  0
 15 18  1  0  0  0  0
 18 19  1  0  0  0  0
 18 20  2  0  0  0  0
M  END
> <VConfSearch Rank>
295

> <Conf_Id>
64

> <Delta U+W>
0.366

> <U+W>
-51.379

> <U>
10.000

> <W>
-61.379

> <W(PB)>
-63.541

> <W(SA)>
2.162

> <Valence>
9.398

> <Coulomb>
-0.504

> <VdW>
1.105

> <VdW6>
-7.975

> <VdW12>
9.080

> <Bond>
0.216

> <Angle>
3.417

> <Pdih>
5.765

> <Idih>
0.001

> <Tether>
0.000

$$$$
VeraChem MOL file


 20 19  0  0  0  0  0  0  0  0999 V2000     
   22.4433   20.5136   22.7748 C   0  0  0  0  0  0  0  0  0  0  0  0
   21.8641   21.0521   23.5230 H   0  0  0  0  0  0  0  0  0  0  0  0
   23.1970   21.0748   22.2251 H   0  0  0  0  0  0  0  0  0  0  0  0
   22.2375   19.2159   22.5348 C   0  0  0  0  0  0  0  0  0  0  0  0
   22.8265   18.6960   21.7797 H   0  0  0  0  0  0  0  0  0  0  0  0
   21.2093   18.3712   23.2568 C   0  0  0  0  0  0  0  0  0  0  0  0
   20.8097   18.9088   24.1274 H   0  0  0  0  0  0  0  0  0  0  0  0
   21.6973   17.4684   23.6477 H   0  0  0  0  0  0  0  0  0  0  0  0
   20.0452   17.9482   22.3327 C   0  0  0  0  0  0  0  0  0  0  0  0
   20.4451   17.4111   21.4617 H   0  0  0  0  0  0  0  0  0  0  0  0
   19.4037   17.2385   22.8727 H   0  0  0  0  0  0  0  0  0  0  0  0
   19.1916   19.1478   21.8617 C   0  0  0  0  0  0  0  0  0  0  0  0
   19.8168   19.8528   21.2966 H   0  0  0  0  0  0  0  0  0  0  0  0
   18.8068   19.6935   22.7344 H   0  0  0  0  0  0  0  0  0  0  0  0
   18.0048   18.6977   20.9747 C   0  0  0  0  0  0  0  0  0  0  0  0
   18.3741   18.1618   20.0921 H   0  0  0  0  0  0  0  0  0  0  0  0
   17.3592   18.0053   21.5282 H   0  0  0  0  0  0  0  0  0  0  0  0
   17.1473   19.8641   20.4969 C   0  0  0  0  0  0  0  0  0  0  0  0
   16.2280   20.2274   21.2038 O   0  5  0  0  0  0  0  0  0  0  0  0
   17.4296   20.3877   19.4372 O   0  0  0  0  0  0  0  0  0  0  0  0
  1  2  1  0  0  0  0
  1  3  1  0  0  0  0
  1  4  2  0  0  0  0
  4  5  1  0  0  0  0
  4  6  1  0  0  0  0
  6  7  1  0  0  0  0
  6  8  1  0  0  0  0
  6  9  1  0  0  0  0
  9 10  1  0  0  0  0
  9 11  1  0  0  0  0
  9 12  1  0  0  0  0
 12 13  1  0  0  0  0
 12 14  1  0  0  0  0
 12 15  1  0  0  0  0
 15 16  1  0  0  0  0
 15 17  1  0  0  0  0
 15 18  1  0  0  0  0
 18 19  1  0  0  0  0
 18 20  2  0  0  0  0
M  END
> <VConfSearch Rank>
296

> <Conf_Id>
42

> <Delta U+W>
-0.601

> <U+W>
-52.347

> <U>
8.428

> <W>
-60.774

> <W(PB)>
-62.982

> <W(SA)>
2.208

> <Valence>
9.231

> <Coulomb>
-1.304

> <VdW>
0.501

> <VdW6>
-6.515

> <VdW12>
7.016

> <Bond>
0.103

> <Angle>
2.328

> <Pdih>
6.799

> <Idih>
0.000

> <Tether>
0.000

$$$$
VeraChem MOL file


 20 19  0  0  0  0  0  0  0  0999 V2000     
   21.0271   21.5766   20.7250 C   0  0  0  0  0  0  0  0  0  0  0  0
   20.7907   22.2722   21.5285 H   0  0  0  0  0  0  0  0  0  0  0  0
   20.9920   21.9575   19.7058 H   0  0  0  0  0  0  0  0  0  0  0  0
   21.3444   20.3036   20.9756 C   0  0  0  0  0  0  0  0  0  0  0  0
   21.5749   19.6227   20.1566 H   0  0  0  0  0  0  0  0  0  0  0  0
   21.4123   19.7024   22.3633 C   0  0  0  0  0  0  0  0  0  0  0  0
   21.3614   20.4889   23.1284 H   0  0  0  0  0  0  0  0  0  0  0  0
   22.3836   19.2069   22.4926 H   0  0  0  0  0  0  0  0  0  0  0  0
   20.2896   18.6694   22.6092 C   0  0  0  0  0  0  0  0  0  0  0  0
   20.3465   17.8802   21.8469 H   0  0  0  0  0  0  0  0  0  0  0  0
   20.4616   18.1814   23.5782 H   0  0  0  0  0  0  0  0  0  0  0  0
   18.8802   19.3073   22.6043 C   0  0  0  0  0  0  0  0  0  0  0  0
   18.6781   19.7635   21.6253 H   0  0  0  0  0  0  0  0  0  0  0  0
   18.8482   20.1195   23.3429 H   0  0  0  0  0  0  0  0  0  0  0  0
   17.7618   18.2840   22.9310 C   0  0  0  0  0  0  0  0  0  0  0  0
   17.9597   17.8006   23.8953 H   0  0  0  0  0  0  0  0  0  0  0  0
   16.8036   18.8076   23.0292 H   0  0  0  0  0  0  0  0  0  0  0  0
   17.5843   17.2007   21.8709 C   0  0  0  0  0  0  0  0  0  0  0  0
   18.0305   16.0934   22.0987 O   0  5  0  0  0  0  0  0  0  0  0  0
   16.9876   17.4889   20.8520 O   0  0  0  0  0  0  0  0  0  0  0  0
  1  2  1  0  0  0  0
  1  3  1  0  0  0  0
  1  4  2  0  0  0  0
  4  5  1  0  0  0  0
  4  6  1  0  0  0  0
  6  7  1  0  0  0  0
  6  8  1  0  0  0  0
  6  9  1  0  0  0  0
  9 10  1  0  0  0  0
  9 11  1  0  0  0  0
  9 12  1  0  0  0  0
 12 13  1  0  0  0  0
 12 14  1  0  0  0  0
 12 15  1  0  0  0  0
 15 16  1  0  0  0  0
 15 17  1  0  0  0  0
 15 18  1  0  0  0  0
 18 19  1  0  0  0  0
 18 20  2  0  0  0  0
M  END
> <VConfSearch Rank>
297

> <Conf_Id>
68

> <Delta U+W>
0.492

> <U+W>
-51.253

> <U>
10.179

> <W>
-61.432

> <W(PB)>
-63.627

> <W(SA)>
2.195

> <Valence>
9.483

> <Coulomb>
0.361

> <VdW>
0.335

> <VdW6>
-7.385

> <VdW12>
7.720

> <Bond>
0.125

> <Angle>
2.487

> <Pdih>
6.870

> <Idih>
0.001

> <Tether>
0.000

$$$$
VeraChem MOL file


 20 19  0  0  0  0  0  0  0  0999 V2000     
   17.3009   17.4298   20.9367 C   0  0  0  0  0  0  0  0  0  0  0  0
   17.8169   16.5095   20.6679 H   0  0  0  0  0  0  0  0  0  0  0  0
   16.4404   17.7161   20.3345 H   0  0  0  0  0  0  0  0  0  0  0  0
   17.7067   18.1827   21.9624 C   0  0  0  0  0  0  0  0  0  0  0  0
   17.1740   19.0988   22.2160 H   0  0  0  0  0  0  0  0  0  0  0  0
   18.8887   17.8454   22.8461 C   0  0  0  0  0  0  0  0  0  0  0  0
   19.1328   16.7790   22.7471 H   0  0  0  0  0  0  0  0  0  0  0  0
   18.6248   18.0036   23.9003 H   0  0  0  0  0  0  0  0  0  0  0  0
   20.1433   18.6752   22.4920 C   0  0  0  0  0  0  0  0  0  0  0  0
   20.9946   18.2960   23.0736 H   0  0  0  0  0  0  0  0  0  0  0  0
   20.3942   18.5208   21.4333 H   0  0  0  0  0  0  0  0  0  0  0  0
   19.9660   20.1854   22.7778 C   0  0  0  0  0  0  0  0  0  0  0  0
   19.6674   20.3233   23.8258 H   0  0  0  0  0  0  0  0  0  0  0  0
   19.1535   20.5924   22.1606 H   0  0  0  0  0  0  0  0  0  0  0  0
   21.2605   20.9970   22.5125 C   0  0  0  0  0  0  0  0  0  0  0  0
   21.1164   22.0336   22.8393 H   0  0  0  0  0  0  0  0  0  0  0  0
   22.0908   20.5907   23.1025 H   0  0  0  0  0  0  0  0  0  0  0  0
   21.6785   21.0345   21.0453 C   0  0  0  0  0  0  0  0  0  0  0  0
   21.0799   21.7836   20.2986 O   0  5  0  0  0  0  0  0  0  0  0  0
   22.6032   20.3293   20.6918 O   0  0  0  0  0  0  0  0  0  0  0  0
  1  2  1  0  0  0  0
  1  3  1  0  0  0  0
  1  4  2  0  0  0  0
  4  5  1  0  0  0  0
  4  6  1  0  0  0  0
  6  7  1  0  0  0  0
  6  8  1  0  0  0  0
  6  9  1  0  0  0  0
  9 10  1  0  0  0  0
  9 11  1  0  0  0  0
  9 12  1  0  0  0  0
 12 13  1  0  0  0  0
 12 14  1  0  0  0  0
 12 15  1  0  0  0  0
 15 16  1  0  0  0  0
 15 17  1  0  0  0  0
 15 18  1  0  0  0  0
 18 19  1  0  0  0  0
 18 20  2  0  0  0  0
M  END
> <VConfSearch Rank>
298

> <Conf_Id>
87

> <Delta U+W>
0.339

> <U+W>
-51.407

> <U>
10.461

> <W>
-61.867

> <W(PB)>
-64.045

> <W(SA)>
2.178

> <Valence>
9.555

> <Coulomb>
0.483

> <VdW>
0.423

> <VdW6>
-7.223

> <VdW12>
7.646

> <Bond>
0.126

> <Angle>
2.492

> <Pdih>
6.936

> <Idih>
0.001

> <Tether>
0.000

$$$$
VeraChem MOL file


 20 19  0  0  0  0  0  0  0  0999 V2000     
   20.2959   21.1372   20.3378 C   0  0  0  0  0  0  0  0  0  0  0  0
   19.7786   20.9349   19.4014 H   0  0  0  0  0  0  0  0  0  0  0  0
   20.3742   22.1759   20.6542 H   0  0  0  0  0  0  0  0  0  0  0  0
   20.8136   20.1499   21.0734 C   0  0  0  0  0  0  0  0  0  0  0  0
   21.3356   20.3732   22.0032 H   0  0  0  0  0  0  0  0  0  0  0  0
   20.7528   18.6871   20.6886 C   0  0  0  0  0  0  0  0  0  0  0  0
   21.5178   18.1182   21.2337 H   0  0  0  0  0  0  0  0  0  0  0  0
   21.0150   18.5959   19.6258 H   0  0  0  0  0  0  0  0  0  0  0  0
   19.3596   18.0464   20.9069 C   0  0  0  0  0  0  0  0  0  0  0  0
   18.5753   18.7127   20.5224 H   0  0  0  0  0  0  0  0  0  0  0  0
   19.3078   17.1358   20.2947 H   0  0  0  0  0  0  0  0  0  0  0  0
   19.0476   17.6465   22.3710 C   0  0  0  0  0  0  0  0  0  0  0  0
   19.8410   16.9916   22.7566 H   0  0  0  0  0  0  0  0  0  0  0  0
   18.1260   17.0480   22.3756 H   0  0  0  0  0  0  0  0  0  0  0  0
   18.8538   18.8474   23.3320 C   0  0  0  0  0  0  0  0  0  0  0  0
   19.7970   19.3853   23.4708 H   0  0  0  0  0  0  0  0  0  0  0  0
   18.1308   19.5569   22.9122 H   0  0  0  0  0  0  0  0  0  0  0  0
   18.3591   18.4257   24.7108 C   0  0  0  0  0  0  0  0  0  0  0  0
   19.1854   18.1368   25.5538 O   0  5  0  0  0  0  0  0  0  0  0  0
   17.1596   18.3769   24.8999 O   0  0  0  0  0  0  0  0  0  0  0  0
  1  2  1  0  0  0  0
  1  3  1  0  0  0  0
  1  4  2  0  0  0  0
  4  5  1  0  0  0  0
  4  6  1  0  0  0  0
  6  7  1  0  0  0  0
  6  8  1  0  0  0  0
  6  9  1  0  0  0  0
  9 10  1  0  0  0  0
  9 11  1  0  0  0  0
  9 12  1  0  0  0  0
 12 13  1  0  0  0  0
 12 14  1  0  0  0  0
 12 15  1  0  0  0  0
 15 16  1  0  0  0  0
 15 17  1  0  0  0  0
 15 18  1  0  0  0  0
 18 19  1  0  0  0  0
 18 20  2  0  0  0  0
M  END
> <VConfSearch Rank>
299

> <Conf_Id>
51

> <Delta U+W>
1.709

> <U+W>
-50.036

> <U>
10.643

> <W>
-60.679

> <W(PB)>
-62.882

> <W(SA)>
2.203

> <Valence>
11.231

> <Coulomb>
-1.077

> <VdW>
0.489

> <VdW6>
-7.546

> <VdW12>
8.035

> <Bond>
0.159

> <Angle>
3.005

> <Pdih>
8.065

> <Idih>
0.002

> <Tether>
0.000

$$$$
VeraChem MOL file


 20 19  0  0  0  0  0  0  0  0999 V2000     
   22.2210   18.0939   22.3808 C   0  0  0  0  0  0  0  0  0  0  0  0
   22.2095   17.1519   21.8350 H   0  0  0  0  0  0  0  0  0  0  0  0
   22.7909   18.1304   23.3076 H   0  0  0  0  0  0  0  0  0  0  0  0
   21.5597   19.1646   21.9335 C   0  0  0  0  0  0  0  0  0  0  0  0
   21.5906   20.1011   22.4892 H   0  0  0  0  0  0  0  0  0  0  0  0
   20.7592   19.1886   20.6489 C   0  0  0  0  0  0  0  0  0  0  0  0
   21.3528   18.7072   19.8601 H   0  0  0  0  0  0  0  0  0  0  0  0
   20.6053   20.2237   20.3159 H   0  0  0  0  0  0  0  0  0  0  0  0
   19.3977   18.4574   20.7536 C   0  0  0  0  0  0  0  0  0  0  0  0
   19.0633   18.2202   19.7345 H   0  0  0  0  0  0  0  0  0  0  0  0
   19.5281   17.4913   21.2602 H   0  0  0  0  0  0  0  0  0  0  0  0
   18.2714   19.2706   21.4402 C   0  0  0  0  0  0  0  0  0  0  0  0
   17.3232   18.7341   21.2971 H   0  0  0  0  0  0  0  0  0  0  0  0
   18.1536   20.2416   20.9399 H   0  0  0  0  0  0  0  0  0  0  0  0
   18.4816   19.4925   22.9600 C   0  0  0  0  0  0  0  0  0  0  0  0
   18.6936   18.5385   23.4573 H   0  0  0  0  0  0  0  0  0  0  0  0
   19.3375   20.1513   23.1380 H   0  0  0  0  0  0  0  0  0  0  0  0
   17.2697   20.1217   23.6374 C   0  0  0  0  0  0  0  0  0  0  0  0
   17.1955   21.3343   23.6704 O   0  5  0  0  0  0  0  0  0  0  0  0
   16.4210   19.3830   24.0965 O   0  0  0  0  0  0  0  0  0  0  0  0
  1  2  1  0  0  0  0
  1  3  1  0  0  0  0
  1  4  2  0  0  0  0
  4  5  1  0  0  0  0
  4  6  1  0  0  0  0
  6  7  1  0  0  0  0
  6  8  1  0  0  0  0
  6  9  1  0  0  0  0
  9 10  1  0  0  0  0
  9 11  1  0  0  0  0
  9 12  1  0  0  0  0
 12 13  1  0  0  0  0
 12 14  1  0  0  0  0
 12 15  1  0  0  0  0
 15 16  1  0  0  0  0
 15 17  1  0  0  0  0
 15 18  1  0  0  0  0
 18 19  1  0  0  0  0
 18 20  2  0  0  0  0
M  END
> <VConfSearch Rank>
300

> <Conf_Id>
91

> <Delta U+W>
1.604

> <U+W>
-50.141

> <U>
10.644

> <W>
-60.786

> <W(PB)>
-62.965

> <W(SA)>
2.179

> <Valence>
11.230

> <Coulomb>
-1.075

> <VdW>
0.489

> <VdW6>
-7.547

> <VdW12>
8.036

> <Bond>
0.159

> <Angle>
3.006

> <Pdih>
8.064

> <Idih>
0.002

> <Tether>
0.000

$$$$
VeraChem MOL file


 20 19  0  0  0  0  0  0  0  0999 V2000     
   16.9727   18.3954   24.1676 C   0  0  0  0  0  0  0  0  0  0  0  0
   17.4122   17.4260   24.3969 H   0  0  0  0  0  0  0  0  0  0  0  0
   15.9131   18.5278   24.3801 H   0  0  0  0  0  0  0  0  0  0  0  0
   17.7005   19.3851   23.6438 C   0  0  0  0  0  0  0  0  0  0  0  0
   17.2409   20.3478   23.4210 H   0  0  0  0  0  0  0  0  0  0  0  0
   19.1745   19.2754   23.3233 C   0  0  0  0  0  0  0  0  0  0  0  0
   19.6048   18.3897   23.8104 H   0  0  0  0  0  0  0  0  0  0  0  0
   19.7047   20.1476   23.7286 H   0  0  0  0  0  0  0  0  0  0  0  0
   19.4086   19.1890   21.8006 C   0  0  0  0  0  0  0  0  0  0  0  0
   18.8728   18.3175   21.3996 H   0  0  0  0  0  0  0  0  0  0  0  0
   18.9821   20.0772   21.3143 H   0  0  0  0  0  0  0  0  0  0  0  0
   20.9098   19.0794   21.4551 C   0  0  0  0  0  0  0  0  0  0  0  0
   21.3369   18.1909   21.9407 H   0  0  0  0  0  0  0  0  0  0  0  0
   21.4464   19.9501   21.8570 H   0  0  0  0  0  0  0  0  0  0  0  0
   21.1447   18.9918   19.9236 C   0  0  0  0  0  0  0  0  0  0  0  0
   20.6171   18.1211   19.5169 H   0  0  0  0  0  0  0  0  0  0  0  0
   20.7265   19.8785   19.4331 H   0  0  0  0  0  0  0  0  0  0  0  0
   22.6082   18.8802   19.4934 C   0  0  0  0  0  0  0  0  0  0  0  0
   22.8319   18.8108   18.3012 O   0  5  0  0  0  0  0  0  0  0  0  0
   23.4848   18.8644   20.3360 O   0  0  0  0  0  0  0  0  0  0  0  0
  1  2  1  0  0  0  0
  1  3  1  0  0  0  0
  1  4  2  0  0  0  0
  4  5  1  0  0  0  0
  4  6  1  0  0  0  0
  6  7  1  0  0  0  0
  6  8  1  0  0  0  0
  6  9  1  0  0  0  0
  9 10  1  0  0  0  0
  9 11  1  0  0  0  0
  9 12  1  0  0  0  0
 12 13  1  0  0  0  0
 12 14  1  0  0  0  0
 12 15  1  0  0  0  0
 15 16  1  0  0  0  0
 15 17  1  0  0  0  0
 15 18  1  0  0  0  0
 18 19  1  0  0  0  0
 18 20  2  0  0  0  0
M  END
> <VConfSearch Rank>
301

> <Conf_Id>
33

> <Delta U+W>
0.000

> <U+W>
-51.745

> <U>
7.593

> <W>
-59.338

> <W(PB)>
-61.574

> <W(SA)>
2.236

> <Valence>
9.570

> <Coulomb>
-3.091

> <VdW>
1.114

> <VdW6>
-6.064

> <VdW12>
7.178

> <Bond>
0.117

> <Angle>
2.692

> <Pdih>
6.761

> <Idih>
0.000

> <Tether>
0.000

$$$$
VeraChem MOL file


 20 19  0  0  0  0  0  0  0  0999 V2000     
   16.1745   18.2834   21.6692 C   0  0  0  0  0  0  0  0  0  0  0  0
   16.0142   18.7946   22.6172 H   0  0  0  0  0  0  0  0  0  0  0  0
   15.3415   17.7145   21.2598 H   0  0  0  0  0  0  0  0  0  0  0  0
   17.3463   18.3471   21.0317 C   0  0  0  0  0  0  0  0  0  0  0  0
   17.4864   17.8274   20.0841 H   0  0  0  0  0  0  0  0  0  0  0  0
   18.5461   19.1167   21.5376 C   0  0  0  0  0  0  0  0  0  0  0  0
   18.2455   19.8040   22.3401 H   0  0  0  0  0  0  0  0  0  0  0  0
   18.9466   19.7345   20.7240 H   0  0  0  0  0  0  0  0  0  0  0  0
   19.6385   18.1585   22.0633 C   0  0  0  0  0  0  0  0  0  0  0  0
   19.1929   17.4935   22.8161 H   0  0  0  0  0  0  0  0  0  0  0  0
   19.9874   17.5121   21.2464 H   0  0  0  0  0  0  0  0  0  0  0  0
   20.8446   18.8880   22.7015 C   0  0  0  0  0  0  0  0  0  0  0  0
   21.5138   18.1389   23.1470 H   0  0  0  0  0  0  0  0  0  0  0  0
   20.4987   19.5249   23.5275 H   0  0  0  0  0  0  0  0  0  0  0  0
   21.6552   19.7428   21.6930 C   0  0  0  0  0  0  0  0  0  0  0  0
   21.9699   19.1271   20.8419 H   0  0  0  0  0  0  0  0  0  0  0  0
   21.0406   20.5583   21.2955 H   0  0  0  0  0  0  0  0  0  0  0  0
   22.9016   20.3627   22.3145 C   0  0  0  0  0  0  0  0  0  0  0  0
   22.7986   21.4529   22.8412 O   0  5  0  0  0  0  0  0  0  0  0  0
   23.9384   19.7301   22.2731 O   0  0  0  0  0  0  0  0  0  0  0  0
  1  2  1  0  0  0  0
  1  3  1  0  0  0  0
  1  4  2  0  0  0  0
  4  5  1  0  0  0  0
  4  6  1  0  0  0  0
  6  7  1  0  0  0  0
  6  8  1  0  0  0  0
  6  9  1  0  0  0  0
  9 10  1  0  0  0  0
  9 11  1  0  0  0  0
  9 12  1  0  0  0  0
 12 13  1  0  0  0  0
 12 14  1  0  0  0  0
 12 15  1  0  0  0  0
 15 16  1  0  0  0  0
 15 17  1  0  0  0  0
 15 18  1  0  0  0  0
 18 19  1  0  0  0  0
 18 20  2  0  0  0  0
M  END
> <VConfSearch Rank>
302

> <Conf_Id>
37

> <Delta U+W>
-0.384

> <U+W>
-52.130

> <U>
7.491

> <W>
-59.621

> <W(PB)>
-61.853

> <W(SA)>
2.232

> <Valence>
9.604

> <Coulomb>
-2.799

> <VdW>
0.686

> <VdW6>
-6.435

> <VdW12>
7.121

> <Bond>
0.124

> <Angle>
2.493

> <Pdih>
6.986

> <Idih>
0.001

> <Tether>
0.000

$$$$
VeraChem MOL file


 20 19  0  0  0  0  0  0  0  0999 V2000     
   22.0874   21.3999   21.4207 C   0  0  0  0  0  0  0  0  0  0  0  0
   22.8442   22.1643   21.2529 H   0  0  0  0  0  0  0  0  0  0  0  0
   21.2832   21.6485   22.1099 H   0  0  0  0  0  0  0  0  0  0  0  0
   22.1610   20.2175   20.7991 C   0  0  0  0  0  0  0  0  0  0  0  0
   22.9913   20.0269   20.1195 H   0  0  0  0  0  0  0  0  0  0  0  0
   21.1863   19.0593   20.9316 C   0  0  0  0  0  0  0  0  0  0  0  0
   21.7382   18.1701   21.2646 H   0  0  0  0  0  0  0  0  0  0  0  0
   20.7969   18.8102   19.9354 H   0  0  0  0  0  0  0  0  0  0  0  0
   20.0000   19.3089   21.8920 C   0  0  0  0  0  0  0  0  0  0  0  0
   20.3827   19.5383   22.8960 H   0  0  0  0  0  0  0  0  0  0  0  0
   19.4312   20.1854   21.5524 H   0  0  0  0  0  0  0  0  0  0  0  0
   19.0594   18.0866   21.9695 C   0  0  0  0  0  0  0  0  0  0  0  0
   19.6227   17.2061   22.3086 H   0  0  0  0  0  0  0  0  0  0  0  0
   18.6731   17.8518   20.9678 H   0  0  0  0  0  0  0  0  0  0  0  0
   17.8706   18.3341   22.9305 C   0  0  0  0  0  0  0  0  0  0  0  0
   18.2390   18.5569   23.9391 H   0  0  0  0  0  0  0  0  0  0  0  0
   17.2895   19.2027   22.5983 H   0  0  0  0  0  0  0  0  0  0  0  0
   16.9268   17.1406   23.0241 C   0  0  0  0  0  0  0  0  0  0  0  0
   17.1537   16.2946   23.8663 O   0  5  0  0  0  0  0  0  0  0  0  0
   16.0011   17.0786   22.2393 O   0  0  0  0  0  0  0  0  0  0  0  0
  1  2  1  0  0  0  0
  1  3  1  0  0  0  0
  1  4  2  0  0  0  0
  4  5  1  0  0  0  0
  4  6  1  0  0  0  0
  6  7  1  0  0  0  0
  6  8  1  0  0  0  0
  6  9  1  0  0  0  0
  9 10  1  0  0  0  0
  9 11  1  0  0  0  0
  9 12  1  0  0  0  0
 12 13  1  0  0  0  0
 12 14  1  0  0  0  0
 12 15  1  0  0  0  0
 15 16  1  0  0  0  0
 15 17  1  0  0  0  0
 15 18  1  0  0  0  0
 18 19  1  0  0  0  0
 18 20  2  0  0  0  0
M  END
> <VConfSearch Rank>
303

> <Conf_Id>
44

> <Delta U+W>
-1.440

> <U+W>
-53.185

> <U>
6.572

> <W>
-59.757

> <W(PB)>
-62.007

> <W(SA)>
2.249

> <Valence>
7.989

> <Coulomb>
-2.697

> <VdW>
1.281

> <VdW6>
-6.467

> <VdW12>
7.748

> <Bond>
0.136

> <Angle>
2.854

> <Pdih>
4.997

> <Idih>
0.001

> <Tether>
0.000

$$$$
VeraChem MOL file


 20 19  0  0  0  0  0  0  0  0999 V2000     
   20.1142   22.1772   20.4560 C   0  0  0  0  0  0  0  0  0  0  0  0
   19.6021   22.4697   21.3713 H   0  0  0  0  0  0  0  0  0  0  0  0
   20.1670   22.9123   19.6547 H   0  0  0  0  0  0  0  0  0  0  0  0
   20.6557   20.9643   20.3166 C   0  0  0  0  0  0  0  0  0  0  0  0
   21.1635   20.6913   19.3918 H   0  0  0  0  0  0  0  0  0  0  0  0
   20.6233   19.8935   21.3844 C   0  0  0  0  0  0  0  0  0  0  0  0
   20.3457   20.3374   22.3491 H   0  0  0  0  0  0  0  0  0  0  0  0
   21.6283   19.4685   21.5081 H   0  0  0  0  0  0  0  0  0  0  0  0
   19.6278   18.7709   21.0148 C   0  0  0  0  0  0  0  0  0  0  0  0
   18.6135   19.1874   20.9449 H   0  0  0  0  0  0  0  0  0  0  0  0
   19.8761   18.3907   20.0144 H   0  0  0  0  0  0  0  0  0  0  0  0
   19.6369   17.5851   22.0089 C   0  0  0  0  0  0  0  0  0  0  0  0
   20.6487   17.1613   22.0725 H   0  0  0  0  0  0  0  0  0  0  0  0
   18.9917   16.7887   21.6127 H   0  0  0  0  0  0  0  0  0  0  0  0
   19.1439   17.9643   23.4295 C   0  0  0  0  0  0  0  0  0  0  0  0
   19.8197   18.6925   23.8919 H   0  0  0  0  0  0  0  0  0  0  0  0
   18.1523   18.4291   23.3745 H   0  0  0  0  0  0  0  0  0  0  0  0
   19.0513   16.7615   24.3615 C   0  0  0  0  0  0  0  0  0  0  0  0
   18.0036   16.1472   24.4028 O   0  5  0  0  0  0  0  0  0  0  0  0
   20.0354   16.4584   25.0066 O   0  0  0  0  0  0  0  0  0  0  0  0
  1  2  1  0  0  0  0
  1  3  1  0  0  0  0
  1  4  2  0  0  0  0
  4  5  1  0  0  0  0
  4  6  1  0  0  0  0
  6  7  1  0  0  0  0
  6  8  1  0  0  0  0
  6  9  1  0  0  0  0
  9 10  1  0  0  0  0
  9 11  1  0  0  0  0
  9 12  1  0  0  0  0
 12 13  1  0  0  0  0
 12 14  1  0  0  0  0
 12 15  1  0  0  0  0
 15 16  1  0  0  0  0
 15 17  1  0  0  0  0
 15 18  1  0  0  0  0
 18 19  1  0  0  0  0
 18 20  2  0  0  0  0
M  END
> <VConfSearch Rank>
304

> <Conf_Id>
38

> <Delta U+W>
-0.381

> <U+W>
-52.126

> <U>
7.601

> <W>
-59.727

> <W(PB)>
-61.964

> <W(SA)>
2.236

> <Valence>
9.602

> <Coulomb>
-2.686

> <VdW>
0.685

> <VdW6>
-6.453

> <VdW12>
7.139

> <Bond>
0.125

> <Angle>
2.485

> <Pdih>
6.991

> <Idih>
0.001

> <Tether>
0.000

$$$$
VeraChem MOL file


 20 19  0  0  0  0  0  0  0  0999 V2000     
   21.5559   17.3460   19.6375 C   0  0  0  0  0  0  0  0  0  0  0  0
   20.7596   16.6127   19.5196 H   0  0  0  0  0  0  0  0  0  0  0  0
   22.2796   17.4340   18.8290 H   0  0  0  0  0  0  0  0  0  0  0  0
   21.6437   18.1112   20.7286 C   0  0  0  0  0  0  0  0  0  0  0  0
   22.4480   18.8399   20.8265 H   0  0  0  0  0  0  0  0  0  0  0  0
   20.6776   18.0451   21.8905 C   0  0  0  0  0  0  0  0  0  0  0  0
   21.2393   17.9875   22.8324 H   0  0  0  0  0  0  0  0  0  0  0  0
   20.0699   17.1321   21.8283 H   0  0  0  0  0  0  0  0  0  0  0  0
   19.7513   19.2789   21.9157 C   0  0  0  0  0  0  0  0  0  0  0  0
   20.3614   20.1905   21.9803 H   0  0  0  0  0  0  0  0  0  0  0  0
   19.1947   19.3359   20.9700 H   0  0  0  0  0  0  0  0  0  0  0  0
   18.7591   19.2286   23.0995 C   0  0  0  0  0  0  0  0  0  0  0  0
   19.3127   19.1823   24.0477 H   0  0  0  0  0  0  0  0  0  0  0  0
   18.1648   18.3070   23.0350 H   0  0  0  0  0  0  0  0  0  0  0  0
   17.7986   20.4459   23.1246 C   0  0  0  0  0  0  0  0  0  0  0  0
   17.2584   20.5221   22.1731 H   0  0  0  0  0  0  0  0  0  0  0  0
   17.0444   20.3016   23.9071 H   0  0  0  0  0  0  0  0  0  0  0  0
   18.4920   21.7773   23.3991 C   0  0  0  0  0  0  0  0  0  0  0  0
   18.6544   22.5443   22.4706 O   0  5  0  0  0  0  0  0  0  0  0  0
   18.8415   22.0163   24.5383 O   0  0  0  0  0  0  0  0  0  0  0  0
  1  2  1  0  0  0  0
  1  3  1  0  0  0  0
  1  4  2  0  0  0  0
  4  5  1  0  0  0  0
  4  6  1  0  0  0  0
  6  7  1  0  0  0  0
  6  8  1  0  0  0  0
  6  9  1  0  0  0  0
  9 10  1  0  0  0  0
  9 11  1  0  0  0  0
  9 12  1  0  0  0  0
 12 13  1  0  0  0  0
 12 14  1  0  0  0  0
 12 15  1  0  0  0  0
 15 16  1  0  0  0  0
 15 17  1  0  0  0  0
 15 18  1  0  0  0  0
 18 19  1  0  0  0  0
 18 20  2  0  0  0  0
M  END
> <VConfSearch Rank>
305

> <Conf_Id>
58

> <Delta U+W>
0.019

> <U+W>
-51.727

> <U>
8.963

> <W>
-60.690

> <W(PB)>
-62.934

> <W(SA)>
2.244

> <Valence>
9.327

> <Coulomb>
-0.780

> <VdW>
0.417

> <VdW6>
-6.635

> <VdW12>
7.052

> <Bond>
0.105

> <Angle>
2.399

> <Pdih>
6.822

> <Idih>
0.000

> <Tether>
0.000

$$$$
VeraChem MOL file


 20 19  0  0  0  0  0  0  0  0999 V2000     
   16.5903   18.9318   20.4169 C   0  0  0  0  0  0  0  0  0  0  0  0
   17.0363   18.5532   19.4987 H   0  0  0  0  0  0  0  0  0  0  0  0
   15.6000   19.3785   20.3457 H   0  0  0  0  0  0  0  0  0  0  0  0
   17.2305   18.8558   21.5866 C   0  0  0  0  0  0  0  0  0  0  0  0
   16.7667   19.2417   22.4941 H   0  0  0  0  0  0  0  0  0  0  0  0
   18.6050   18.2498   21.7629 C   0  0  0  0  0  0  0  0  0  0  0  0
   18.8809   17.6677   20.8730 H   0  0  0  0  0  0  0  0  0  0  0  0
   18.5916   17.5484   22.6079 H   0  0  0  0  0  0  0  0  0  0  0  0
   19.6670   19.3409   22.0135 C   0  0  0  0  0  0  0  0  0  0  0  0
   19.6741   20.0431   21.1685 H   0  0  0  0  0  0  0  0  0  0  0  0
   19.3899   19.9201   22.9052 H   0  0  0  0  0  0  0  0  0  0  0  0
   21.0778   18.7379   22.1990 C   0  0  0  0  0  0  0  0  0  0  0  0
   21.3394   18.1483   21.3099 H   0  0  0  0  0  0  0  0  0  0  0  0
   21.0768   18.0429   23.0503 H   0  0  0  0  0  0  0  0  0  0  0  0
   22.1647   19.8213   22.4219 C   0  0  0  0  0  0  0  0  0  0  0  0
   23.1551   19.3511   22.4283 H   0  0  0  0  0  0  0  0  0  0  0  0
   22.1595   20.5395   21.5930 H   0  0  0  0  0  0  0  0  0  0  0  0
   22.0156   20.5888   23.7324 C   0  0  0  0  0  0  0  0  0  0  0  0
   22.3440   20.0325   24.7619 O   0  5  0  0  0  0  0  0  0  0  0  0
   21.5861   21.7248   23.6890 O   0  0  0  0  0  0  0  0  0  0  0  0
  1  2  1  0  0  0  0
  1  3  1  0  0  0  0
  1  4  2  0  0  0  0
  4  5  1  0  0  0  0
  4  6  1  0  0  0  0
  6  7  1  0  0  0  0
  6  8  1  0  0  0  0
  6  9  1  0  0  0  0
  9 10  1  0  0  0  0
  9 11  1  0  0  0  0
  9 12  1  0  0  0  0
 12 13  1  0  0  0  0
 12 14  1  0  0  0  0
 12 15  1  0  0  0  0
 15 16  1  0  0  0  0
 15 17  1  0  0  0  0
 15 18  1  0  0  0  0
 18 19  1  0  0  0  0
 18 20  2  0  0  0  0
M  END
> <VConfSearch Rank>
306

> <Conf_Id>
54

> <Delta U+W>
-0.048

> <U+W>
-51.793

> <U>
8.964

> <W>
-60.756

> <W(PB)>
-63.007

> <W(SA)>
2.251

> <Valence>
9.327

> <Coulomb>
-0.780

> <VdW>
0.417

> <VdW6>
-6.635

> <VdW12>
7.052

> <Bond>
0.105

> <Angle>
2.399

> <Pdih>
6.822

> <Idih>
0.000

> <Tether>
0.000

$$$$
VeraChem MOL file


 20 19  0  0  0  0  0  0  0  0999 V2000     
   16.4588   19.5535   22.4407 C   0  0  0  0  0  0  0  0  0  0  0  0
   15.5794   18.9801   22.1526 H   0  0  0  0  0  0  0  0  0  0  0  0
   16.4381   20.0500   23.4096 H   0  0  0  0  0  0  0  0  0  0  0  0
   17.5209   19.6397   21.6356 C   0  0  0  0  0  0  0  0  0  0  0  0
   17.5193   19.1378   20.6684 H   0  0  0  0  0  0  0  0  0  0  0  0
   18.7735   20.4230   21.9660 C   0  0  0  0  0  0  0  0  0  0  0  0
   18.5516   21.1634   22.7464 H   0  0  0  0  0  0  0  0  0  0  0  0
   19.1017   20.9929   21.0865 H   0  0  0  0  0  0  0  0  0  0  0  0
   19.9234   19.5154   22.4580 C   0  0  0  0  0  0  0  0  0  0  0  0
   20.7472   20.1516   22.8096 H   0  0  0  0  0  0  0  0  0  0  0  0
   19.5843   18.9346   23.3269 H   0  0  0  0  0  0  0  0  0  0  0  0
   20.4470   18.5589   21.3603 C   0  0  0  0  0  0  0  0  0  0  0  0
   20.7727   19.1387   20.4855 H   0  0  0  0  0  0  0  0  0  0  0  0
   19.6307   17.9073   21.0219 H   0  0  0  0  0  0  0  0  0  0  0  0
   21.6191   17.6711   21.8534 C   0  0  0  0  0  0  0  0  0  0  0  0
   21.3195   17.1109   22.7475 H   0  0  0  0  0  0  0  0  0  0  0  0
   21.8671   16.9311   21.0834 H   0  0  0  0  0  0  0  0  0  0  0  0
   22.8952   18.4462   22.1686 C   0  0  0  0  0  0  0  0  0  0  0  0
   23.1838   18.6310   23.3346 O   0  5  0  0  0  0  0  0  0  0  0  0
   23.5731   18.8356   21.2380 O   0  0  0  0  0  0  0  0  0  0  0  0
  1  2  1  0  0  0  0
  1  3  1  0  0  0  0
  1  4  2  0  0  0  0
  4  5  1  0  0  0  0
  4  6  1  0  0  0  0
  6  7  1  0  0  0  0
  6  8  1  0  0  0  0
  6  9  1  0  0  0  0
  9 10  1  0  0  0  0
  9 11  1  0  0  0  0
  9 12  1  0  0  0  0
 12 13  1  0  0  0  0
 12 14  1  0  0  0  0
 12 15  1  0  0  0  0
 15 16  1  0  0  0  0
 15 17  1  0  0  0  0
 15 18  1  0  0  0  0
 18 19  1  0  0  0  0
 18 20  2  0  0  0  0
M  END
> <VConfSearch Rank>
307

> <Conf_Id>
27

> <Delta U+W>
0.478

> <U+W>
-51.267

> <U>
9.192

> <W>
-60.459

> <W(PB)>
-62.649

> <W(SA)>
2.190

> <Valence>
9.572

> <Coulomb>
-0.884

> <VdW>
0.504

> <VdW6>
-7.168

> <VdW12>
7.672

> <Bond>
0.127

> <Angle>
2.504

> <Pdih>
6.941

> <Idih>
0.001

> <Tether>
0.000

$$$$
VeraChem MOL file


 20 19  0  0  0  0  0  0  0  0999 V2000     
   22.1292   20.7032   23.2131 C   0  0  0  0  0  0  0  0  0  0  0  0
   22.1504   20.5079   24.2841 H   0  0  0  0  0  0  0  0  0  0  0  0
   22.4530   21.6866   22.8766 H   0  0  0  0  0  0  0  0  0  0  0  0
   21.7195   19.7764   22.3432 C   0  0  0  0  0  0  0  0  0  0  0  0
   21.7091   19.9917   21.2751 H   0  0  0  0  0  0  0  0  0  0  0  0
   21.2620   18.3880   22.7367 C   0  0  0  0  0  0  0  0  0  0  0  0
   21.6352   18.1460   23.7411 H   0  0  0  0  0  0  0  0  0  0  0  0
   21.7001   17.6435   22.0587 H   0  0  0  0  0  0  0  0  0  0  0  0
   19.7226   18.2533   22.7347 C   0  0  0  0  0  0  0  0  0  0  0  0
   19.4528   17.2740   23.1531 H   0  0  0  0  0  0  0  0  0  0  0  0
   19.2893   19.0107   23.4025 H   0  0  0  0  0  0  0  0  0  0  0  0
   19.1092   18.3879   21.3221 C   0  0  0  0  0  0  0  0  0  0  0  0
   19.5623   17.6469   20.6491 H   0  0  0  0  0  0  0  0  0  0  0  0
   19.3381   19.3787   20.9066 H   0  0  0  0  0  0  0  0  0  0  0  0
   17.5734   18.1904   21.3405 C   0  0  0  0  0  0  0  0  0  0  0  0
   17.3234   17.1990   21.7370 H   0  0  0  0  0  0  0  0  0  0  0  0
   17.1046   18.9311   21.9994 H   0  0  0  0  0  0  0  0  0  0  0  0
   16.9435   18.3198   19.9583 C   0  0  0  0  0  0  0  0  0  0  0  0
   16.5735   19.4194   19.5970 O   0  5  0  0  0  0  0  0  0  0  0  0
   16.8556   17.3205   19.2723 O   0  0  0  0  0  0  0  0  0  0  0  0
  1  2  1  0  0  0  0
  1  3  1  0  0  0  0
  1  4  2  0  0  0  0
  4  5  1  0  0  0  0
  4  6  1  0  0  0  0
  6  7  1  0  0  0  0
  6  8  1  0  0  0  0
  6  9  1  0  0  0  0
  9 10  1  0  0  0  0
  9 11  1  0  0  0  0
  9 12  1  0  0  0  0
 12 13  1  0  0  0  0
 12 14  1  0  0  0  0
 12 15  1  0  0  0  0
 15 16  1  0  0  0  0
 15 17  1  0  0  0  0
 15 18  1  0  0  0  0
 18 19  1  0  0  0  0
 18 20  2  0  0  0  0
M  END
> <VConfSearch Rank>
308

> <Conf_Id>
41

> <Delta U+W>
-0.634

> <U+W>
-52.379

> <U>
7.828

> <W>
-60.207

> <W(PB)>
-62.449

> <W(SA)>
2.242

> <Valence>
9.300

> <Coulomb>
-2.080

> <VdW>
0.608

> <VdW6>
-6.341

> <VdW12>
6.949

> <Bond>
0.103

> <Angle>
2.334

> <Pdih>
6.862

> <Idih>
0.001

> <Tether>
0.000

$$$$
VeraChem MOL file


 20 19  0  0  0  0  0  0  0  0999 V2000     
   17.6901   19.7543   19.6615 C   0  0  0  0  0  0  0  0  0  0  0  0
   17.3595   19.6078   18.6347 H   0  0  0  0  0  0  0  0  0  0  0  0
   16.9809   20.1992   20.3577 H   0  0  0  0  0  0  0  0  0  0  0  0
   18.9179   19.3988   20.0486 C   0  0  0  0  0  0  0  0  0  0  0  0
   19.6129   18.9544   19.3364 H   0  0  0  0  0  0  0  0  0  0  0  0
   19.4474   19.5721   21.4547 C   0  0  0  0  0  0  0  0  0  0  0  0
   18.7958   20.2470   22.0259 H   0  0  0  0  0  0  0  0  0  0  0  0
   20.4370   20.0451   21.4105 H   0  0  0  0  0  0  0  0  0  0  0  0
   19.5464   18.2123   22.1817 C   0  0  0  0  0  0  0  0  0  0  0  0
   18.5708   17.7098   22.1281 H   0  0  0  0  0  0  0  0  0  0  0  0
   20.2570   17.5633   21.6516 H   0  0  0  0  0  0  0  0  0  0  0  0
   19.9565   18.3348   23.6700 C   0  0  0  0  0  0  0  0  0  0  0  0
   19.9273   17.3364   24.1281 H   0  0  0  0  0  0  0  0  0  0  0  0
   19.2098   18.9392   24.2024 H   0  0  0  0  0  0  0  0  0  0  0  0
   21.3652   18.9474   23.8997 C   0  0  0  0  0  0  0  0  0  0  0  0
   21.4073   19.9747   23.5203 H   0  0  0  0  0  0  0  0  0  0  0  0
   21.5640   19.0062   24.9761 H   0  0  0  0  0  0  0  0  0  0  0  0
   22.5026   18.1473   23.2713 C   0  0  0  0  0  0  0  0  0  0  0  0
   22.8059   17.0864   23.7811 O   0  5  0  0  0  0  0  0  0  0  0  0
   23.0669   18.6130   22.3009 O   0  0  0  0  0  0  0  0  0  0  0  0
  1  2  1  0  0  0  0
  1  3  1  0  0  0  0
  1  4  2  0  0  0  0
  4  5  1  0  0  0  0
  4  6  1  0  0  0  0
  6  7  1  0  0  0  0
  6  8  1  0  0  0  0
  6  9  1  0  0  0  0
  9 10  1  0  0  0  0
  9 11  1  0  0  0  0
  9 12  1  0  0  0  0
 12 13  1  0  0  0  0
 12 14  1  0  0  0  0
 12 15  1  0  0  0  0
 15 16  1  0  0  0  0
 15 17  1  0  0  0  0
 15 18  1  0  0  0  0
 18 19  1  0  0  0  0
 18 20  2  0  0  0  0
M  END
> <VConfSearch Rank>
309

> <Conf_Id>
84

> <Delta U+W>
0.942

> <U+W>
-50.803

> <U>
10.196

> <W>
-60.999

> <W(PB)>
-63.182

> <W(SA)>
2.182

> <Valence>
9.837

> <Coulomb>
0.032

> <VdW>
0.328

> <VdW6>
-7.642

> <VdW12>
7.969

> <Bond>
0.151

> <Angle>
2.748

> <Pdih>
6.937

> <Idih>
0.001

> <Tether>
0.000

$$$$
VeraChem MOL file


 20 19  0  0  0  0  0  0  0  0999 V2000     
   16.9337   20.3215   20.1892 C   0  0  0  0  0  0  0  0  0  0  0  0
   16.1142   20.0257   19.5364 H   0  0  0  0  0  0  0  0  0  0  0  0
   16.7072   21.0210   20.9922 H   0  0  0  0  0  0  0  0  0  0  0  0
   18.1668   19.8407   20.0100 C   0  0  0  0  0  0  0  0  0  0  0  0
   18.3723   19.1406   19.2005 H   0  0  0  0  0  0  0  0  0  0  0  0
   19.3530   20.2058   20.8744 C   0  0  0  0  0  0  0  0  0  0  0  0
   19.1218   21.0903   21.4835 H   0  0  0  0  0  0  0  0  0  0  0  0
   20.2040   20.4760   20.2349 H   0  0  0  0  0  0  0  0  0  0  0  0
   19.7505   19.0357   21.7984 C   0  0  0  0  0  0  0  0  0  0  0  0
   18.8929   18.7665   22.4306 H   0  0  0  0  0  0  0  0  0  0  0  0
   19.9859   18.1519   21.1897 H   0  0  0  0  0  0  0  0  0  0  0  0
   20.9642   19.3917   22.6865 C   0  0  0  0  0  0  0  0  0  0  0  0
   20.7272   20.2670   23.3072 H   0  0  0  0  0  0  0  0  0  0  0  0
   21.8099   19.6776   22.0465 H   0  0  0  0  0  0  0  0  0  0  0  0
   21.3995   18.2169   23.6004 C   0  0  0  0  0  0  0  0  0  0  0  0
   21.6137   17.3265   22.9969 H   0  0  0  0  0  0  0  0  0  0  0  0
   22.3291   18.4805   24.1184 H   0  0  0  0  0  0  0  0  0  0  0  0
   20.3723   17.8471   24.6667 C   0  0  0  0  0  0  0  0  0  0  0  0
   19.7174   16.8355   24.5091 O   0  5  0  0  0  0  0  0  0  0  0  0
   20.2640   18.5750   25.6339 O   0  0  0  0  0  0  0  0  0  0  0  0
  1  2  1  0  0  0  0
  1  3  1  0  0  0  0
  1  4  2  0  0  0  0
  4  5  1  0  0  0  0
  4  6  1  0  0  0  0
  6  7  1  0  0  0  0
  6  8  1  0  0  0  0
  6  9  1  0  0  0  0
  9 10  1  0  0  0  0
  9 11  1  0  0  0  0
  9 12  1  0  0  0  0
 12 13  1  0  0  0  0
 12 14  1  0  0  0  0
 12 15  1  0  0  0  0
 15 16  1  0  0  0  0
 15 17  1  0  0  0  0
 15 18  1  0  0  0  0
 18 19  1  0  0  0  0
 18 20  2  0  0  0  0
M  END
> <VConfSearch Rank>
310

> <Conf_Id>
81

> <Delta U+W>
-0.051

> <U+W>
-51.796

> <U>
9.412

> <W>
-61.209

> <W(PB)>
-63.452

> <W(SA)>
2.243

> <Valence>
9.329

> <Coulomb>
-0.323

> <VdW>
0.406

> <VdW6>
-6.640

> <VdW12>
7.046

> <Bond>
0.105

> <Angle>
2.401

> <Pdih>
6.823

> <Idih>
0.000

> <Tether>
0.000

$$$$
VeraChem MOL file


 20 19  0  0  0  0  0  0  0  0999 V2000     
   22.1747   17.0964   21.6321 C   0  0  0  0  0  0  0  0  0  0  0  0
   22.4860   17.1717   20.5914 H   0  0  0  0  0  0  0  0  0  0  0  0
   22.8701   16.6347   22.3310 H   0  0  0  0  0  0  0  0  0  0  0  0
   20.9881   17.5539   22.0399 C   0  0  0  0  0  0  0  0  0  0  0  0
   20.6949   17.4666   23.0856 H   0  0  0  0  0  0  0  0  0  0  0  0
   19.9692   18.2014   21.1265 C   0  0  0  0  0  0  0  0  0  0  0  0
   18.9686   17.8010   21.3346 H   0  0  0  0  0  0  0  0  0  0  0  0
   20.1863   17.9363   20.0830 H   0  0  0  0  0  0  0  0  0  0  0  0
   19.9608   19.7439   21.2495 C   0  0  0  0  0  0  0  0  0  0  0  0
   20.9465   20.1277   20.9529 H   0  0  0  0  0  0  0  0  0  0  0  0
   19.2440   20.1548   20.5255 H   0  0  0  0  0  0  0  0  0  0  0  0
   19.6218   20.2795   22.6646 C   0  0  0  0  0  0  0  0  0  0  0  0
   19.6700   21.3770   22.6462 H   0  0  0  0  0  0  0  0  0  0  0  0
   20.3937   19.9538   23.3743 H   0  0  0  0  0  0  0  0  0  0  0  0
   18.2268   19.8515   23.1966 C   0  0  0  0  0  0  0  0  0  0  0  0
   18.1704   18.7619   23.2995 H   0  0  0  0  0  0  0  0  0  0  0  0
   18.0785   20.2659   24.2006 H   0  0  0  0  0  0  0  0  0  0  0  0
   17.0597   20.3224   22.3336 C   0  0  0  0  0  0  0  0  0  0  0  0
   16.4560   19.4949   21.6795 O   0  5  0  0  0  0  0  0  0  0  0  0
   16.7742   21.5037   22.3523 O   0  0  0  0  0  0  0  0  0  0  0  0
  1  2  1  0  0  0  0
  1  3  1  0  0  0  0
  1  4  2  0  0  0  0
  4  5  1  0  0  0  0
  4  6  1  0  0  0  0
  6  7  1  0  0  0  0
  6  8  1  0  0  0  0
  6  9  1  0  0  0  0
  9 10  1  0  0  0  0
  9 11  1  0  0  0  0
  9 12  1  0  0  0  0
 12 13  1  0  0  0  0
 12 14  1  0  0  0  0
 12 15  1  0  0  0  0
 15 16  1  0  0  0  0
 15 17  1  0  0  0  0
 15 18  1  0  0  0  0
 18 19  1  0  0  0  0
 18 20  2  0  0  0  0
M  END
> <VConfSearch Rank>
311

> <Conf_Id>
86

> <Delta U+W>
1.248

> <U+W>
-50.498

> <U>
10.404

> <W>
-60.901

> <W(PB)>
-63.061

> <W(SA)>
2.159

> <Valence>
10.021

> <Coulomb>
0.094

> <VdW>
0.289

> <VdW6>
-8.409

> <VdW12>
8.698

> <Bond>
0.179

> <Angle>
2.939

> <Pdih>
6.902

> <Idih>
0.001

> <Tether>
0.000

$$$$
VeraChem MOL file


 20 19  0  0  0  0  0  0  0  0999 V2000     
   17.9464   18.9161   19.5095 C   0  0  0  0  0  0  0  0  0  0  0  0
   18.0013   19.1117   18.4401 H   0  0  0  0  0  0  0  0  0  0  0  0
   17.6601   17.9130   19.8216 H   0  0  0  0  0  0  0  0  0  0  0  0
   18.2239   19.8711   20.4012 C   0  0  0  0  0  0  0  0  0  0  0  0
   18.5108   20.8681   20.0679 H   0  0  0  0  0  0  0  0  0  0  0  0
   18.1698   19.6743   21.9013 C   0  0  0  0  0  0  0  0  0  0  0  0
   17.6838   18.7209   22.1493 H   0  0  0  0  0  0  0  0  0  0  0  0
   17.5476   20.4633   22.3442 H   0  0  0  0  0  0  0  0  0  0  0  0
   19.5715   19.7224   22.5501 C   0  0  0  0  0  0  0  0  0  0  0  0
   20.0599   20.6740   22.2994 H   0  0  0  0  0  0  0  0  0  0  0  0
   19.4549   19.7090   23.6425 H   0  0  0  0  0  0  0  0  0  0  0  0
   20.4713   18.5412   22.1156 C   0  0  0  0  0  0  0  0  0  0  0  0
   20.5943   18.5574   21.0245 H   0  0  0  0  0  0  0  0  0  0  0  0
   19.9808   17.5896   22.3631 H   0  0  0  0  0  0  0  0  0  0  0  0
   21.8734   18.5847   22.7768 C   0  0  0  0  0  0  0  0  0  0  0  0
   22.5069   17.8017   22.3437 H   0  0  0  0  0  0  0  0  0  0  0  0
   22.3628   19.5429   22.5642 H   0  0  0  0  0  0  0  0  0  0  0  0
   21.8539   18.3719   24.2878 C   0  0  0  0  0  0  0  0  0  0  0  0
   21.6908   17.2420   24.7048 O   0  5  0  0  0  0  0  0  0  0  0  0
   22.0135   19.3380   25.0076 O   0  0  0  0  0  0  0  0  0  0  0  0
  1  2  1  0  0  0  0
  1  3  1  0  0  0  0
  1  4  2  0  0  0  0
  4  5  1  0  0  0  0
  4  6  1  0  0  0  0
  6  7  1  0  0  0  0
  6  8  1  0  0  0  0
  6  9  1  0  0  0  0
  9 10  1  0  0  0  0
  9 11  1  0  0  0  0
  9 12  1  0  0  0  0
 12 13  1  0  0  0  0
 12 14  1  0  0  0  0
 12 15  1  0  0  0  0
 15 16  1  0  0  0  0
 15 17  1  0  0  0  0
 15 18  1  0  0  0  0
 18 19  1  0  0  0  0
 18 20  2  0  0  0  0
M  END
> <VConfSearch Rank>
312

> <Conf_Id>
28

> <Delta U+W>
0.446

> <U+W>
-51.299

> <U>
9.295

> <W>
-60.594

> <W(PB)>
-62.806

> <W(SA)>
2.212

> <Valence>
9.495

> <Coulomb>
-0.610

> <VdW>
0.409

> <VdW6>
-7.332

> <VdW12>
7.741

> <Bond>
0.126

> <Angle>
2.497

> <Pdih>
6.872

> <Idih>
0.000

> <Tether>
0.000

$$$$
VeraChem MOL file


 20 19  0  0  0  0  0  0  0  0999 V2000     
   22.1922   20.3798   23.8510 C   0  0  0  0  0  0  0  0  0  0  0  0
   21.3992   20.1045   24.5429 H   0  0  0  0  0  0  0  0  0  0  0  0
   23.1489   20.6620   24.2874 H   0  0  0  0  0  0  0  0  0  0  0  0
   22.0214   20.3748   22.5241 C   0  0  0  0  0  0  0  0  0  0  0  0
   22.8547   20.6584   21.8816 H   0  0  0  0  0  0  0  0  0  0  0  0
   20.7526   20.0086   21.7722 C   0  0  0  0  0  0  0  0  0  0  0  0
   20.9640   19.1361   21.1407 H   0  0  0  0  0  0  0  0  0  0  0  0
   20.5056   20.8257   21.0814 H   0  0  0  0  0  0  0  0  0  0  0  0
   19.5232   19.7179   22.6681 C   0  0  0  0  0  0  0  0  0  0  0  0
   19.7271   18.8443   23.3025 H   0  0  0  0  0  0  0  0  0  0  0  0
   19.3649   20.5683   23.3452 H   0  0  0  0  0  0  0  0  0  0  0  0
   18.2170   19.4868   21.8684 C   0  0  0  0  0  0  0  0  0  0  0  0
   17.9926   20.3833   21.2749 H   0  0  0  0  0  0  0  0  0  0  0  0
   17.3851   19.3715   22.5769 H   0  0  0  0  0  0  0  0  0  0  0  0
   18.2462   18.2493   20.9301 C   0  0  0  0  0  0  0  0  0  0  0  0
   17.2892   18.1733   20.4008 H   0  0  0  0  0  0  0  0  0  0  0  0
   19.0174   18.3648   20.1601 H   0  0  0  0  0  0  0  0  0  0  0  0
   18.4705   16.9238   21.6523 C   0  0  0  0  0  0  0  0  0  0  0  0
   17.5714   16.4904   22.3460 O   0  5  0  0  0  0  0  0  0  0  0  0
   19.5285   16.3493   21.4861 O   0  0  0  0  0  0  0  0  0  0  0  0
  1  2  1  0  0  0  0
  1  3  1  0  0  0  0
  1  4  2  0  0  0  0
  4  5  1  0  0  0  0
  4  6  1  0  0  0  0
  6  7  1  0  0  0  0
  6  8  1  0  0  0  0
  6  9  1  0  0  0  0
  9 10  1  0  0  0  0
  9 11  1  0  0  0  0
  9 12  1  0  0  0  0
 12 13  1  0  0  0  0
 12 14  1  0  0  0  0
 12 15  1  0  0  0  0
 15 16  1  0  0  0  0
 15 17  1  0  0  0  0
 15 18  1  0  0  0  0
 18 19  1  0  0  0  0
 18 20  2  0  0  0  0
M  END
> <VConfSearch Rank>
313

> <Conf_Id>
53

> <Delta U+W>
0.549

> <U+W>
-51.197

> <U>
10.870

> <W>
-62.067

> <W(PB)>
-64.228

> <W(SA)>
2.161

> <Valence>
8.803

> <Coulomb>
1.020

> <VdW>
1.048

> <VdW6>
-8.312

> <VdW12>
9.360

> <Bond>
0.212

> <Angle>
3.379

> <Pdih>
5.211

> <Idih>
0.001

> <Tether>
0.000

$$$$
VeraChem MOL file


 20 19  0  0  0  0  0  0  0  0999 V2000     
   20.8032   19.6487   19.5960 C   0  0  0  0  0  0  0  0  0  0  0  0
   21.5391   20.0685   20.2783 H   0  0  0  0  0  0  0  0  0  0  0  0
   20.6746   20.1501   18.6384 H   0  0  0  0  0  0  0  0  0  0  0  0
   20.0858   18.5625   19.9029 C   0  0  0  0  0  0  0  0  0  0  0  0
   19.3635   18.1809   19.1819 H   0  0  0  0  0  0  0  0  0  0  0  0
   20.1577   17.7704   21.1980 C   0  0  0  0  0  0  0  0  0  0  0  0
   20.7937   16.8900   21.0371 H   0  0  0  0  0  0  0  0  0  0  0  0
   19.1645   17.3601   21.4212 H   0  0  0  0  0  0  0  0  0  0  0  0
   20.6675   18.5475   22.4397 C   0  0  0  0  0  0  0  0  0  0  0  0
   20.7412   17.8480   23.2836 H   0  0  0  0  0  0  0  0  0  0  0  0
   21.6920   18.8968   22.2565 H   0  0  0  0  0  0  0  0  0  0  0  0
   19.7834   19.7505   22.8617 C   0  0  0  0  0  0  0  0  0  0  0  0
   19.7602   20.4931   22.0540 H   0  0  0  0  0  0  0  0  0  0  0  0
   20.2545   20.2489   23.7200 H   0  0  0  0  0  0  0  0  0  0  0  0
   18.3252   19.3759   23.2436 C   0  0  0  0  0  0  0  0  0  0  0  0
   17.7785   20.2844   23.5215 H   0  0  0  0  0  0  0  0  0  0  0  0
   17.7985   18.9493   22.3824 H   0  0  0  0  0  0  0  0  0  0  0  0
   18.2166   18.4041   24.4151 C   0  0  0  0  0  0  0  0  0  0  0  0
   17.8695   17.2620   24.1864 O   0  5  0  0  0  0  0  0  0  0  0  0
   18.4653   18.8210   25.5295 O   0  0  0  0  0  0  0  0  0  0  0  0
  1  2  1  0  0  0  0
  1  3  1  0  0  0  0
  1  4  2  0  0  0  0
  4  5  1  0  0  0  0
  4  6  1  0  0  0  0
  6  7  1  0  0  0  0
  6  8  1  0  0  0  0
  6  9  1  0  0  0  0
  9 10  1  0  0  0  0
  9 11  1  0  0  0  0
  9 12  1  0  0  0  0
 12 13  1  0  0  0  0
 12 14  1  0  0  0  0
 12 15  1  0  0  0  0
 15 16  1  0  0  0  0
 15 17  1  0  0  0  0
 15 18  1  0  0  0  0
 18 19  1  0  0  0  0
 18 20  2  0  0  0  0
M  END
> <VConfSearch Rank>
314

> <Conf_Id>
66

> <Delta U+W>
1.737

> <U+W>
-50.008

> <U>
11.091

> <W>
-61.099

> <W(PB)>
-63.213

> <W(SA)>
2.114

> <Valence>
9.664

> <Coulomb>
0.658

> <VdW>
0.769

> <VdW6>
-9.171

> <VdW12>
9.940

> <Bond>
0.244

> <Angle>
3.658

> <Pdih>
5.762

> <Idih>
0.001

> <Tether>
0.000

$$$$
VeraChem MOL file


 20 19  0  0  0  0  0  0  0  0999 V2000     
   18.0756   17.4858   20.3373 C   0  0  0  0  0  0  0  0  0  0  0  0
   18.2970   18.3317   19.6903 H   0  0  0  0  0  0  0  0  0  0  0  0
   18.0173   16.5062   19.8664 H   0  0  0  0  0  0  0  0  0  0  0  0
   17.8758   17.6268   21.6523 C   0  0  0  0  0  0  0  0  0  0  0  0
   17.6545   16.7452   22.2533 H   0  0  0  0  0  0  0  0  0  0  0  0
   17.9314   18.9246   22.4417 C   0  0  0  0  0  0  0  0  0  0  0  0
   18.3318   18.7153   23.4414 H   0  0  0  0  0  0  0  0  0  0  0  0
   16.9047   19.2714   22.6179 H   0  0  0  0  0  0  0  0  0  0  0  0
   18.7530   20.0737   21.8007 C   0  0  0  0  0  0  0  0  0  0  0  0
   18.3223   20.3288   20.8235 H   0  0  0  0  0  0  0  0  0  0  0  0
   18.6390   20.9747   22.4186 H   0  0  0  0  0  0  0  0  0  0  0  0
   20.2648   19.7745   21.6340 C   0  0  0  0  0  0  0  0  0  0  0  0
   20.7301   20.6127   21.0973 H   0  0  0  0  0  0  0  0  0  0  0  0
   20.4091   18.8878   21.0026 H   0  0  0  0  0  0  0  0  0  0  0  0
   21.0087   19.5722   22.9795 C   0  0  0  0  0  0  0  0  0  0  0  0
   20.8330   20.4277   23.6424 H   0  0  0  0  0  0  0  0  0  0  0  0
   20.6373   18.6786   23.4938 H   0  0  0  0  0  0  0  0  0  0  0  0
   22.5146   19.4138   22.8027 C   0  0  0  0  0  0  0  0  0  0  0  0
   22.9633   18.2924   22.6696 O   0  5  0  0  0  0  0  0  0  0  0  0
   23.1987   20.4182   22.7883 O   0  0  0  0  0  0  0  0  0  0  0  0
  1  2  1  0  0  0  0
  1  3  1  0  0  0  0
  1  4  2  0  0  0  0
  4  5  1  0  0  0  0
  4  6  1  0  0  0  0
  6  7  1  0  0  0  0
  6  8  1  0  0  0  0
  6  9  1  0  0  0  0
  9 10  1  0  0  0  0
  9 11  1  0  0  0  0
  9 12  1  0  0  0  0
 12 13  1  0  0  0  0
 12 14  1  0  0  0  0
 12 15  1  0  0  0  0
 15 16  1  0  0  0  0
 15 17  1  0  0  0  0
 15 18  1  0  0  0  0
 18 19  1  0  0  0  0
 18 20  2  0  0  0  0
M  END
> <VConfSearch Rank>
315

> <Conf_Id>
64

> <Delta U+W>
0.366

> <U+W>
-51.379

> <U>
10.000

> <W>
-61.379

> <W(PB)>
-63.541

> <W(SA)>
2.162

> <Valence>
9.398

> <Coulomb>
-0.504

> <VdW>
1.105

> <VdW6>
-7.975

> <VdW12>
9.080

> <Bond>
0.216

> <Angle>
3.417

> <Pdih>
5.765

> <Idih>
0.001

> <Tether>
0.000

$$$$
VeraChem MOL file


 20 19  0  0  0  0  0  0  0  0999 V2000     
   17.1521   18.1472   22.5798 C   0  0  0  0  0  0  0  0  0  0  0  0
   17.5496   17.1342   22.6146 H   0  0  0  0  0  0  0  0  0  0  0  0
   16.1860   18.2902   22.0989 H   0  0  0  0  0  0  0  0  0  0  0  0
   17.8226   19.1777   23.1018 C   0  0  0  0  0  0  0  0  0  0  0  0
   17.4082   20.1844   23.0542 H   0  0  0  0  0  0  0  0  0  0  0  0
   19.1687   19.0572   23.7841 C   0  0  0  0  0  0  0  0  0  0  0  0
   19.4151   18.0029   23.9696 H   0  0  0  0  0  0  0  0  0  0  0  0
   19.1164   19.5408   24.7686 H   0  0  0  0  0  0  0  0  0  0  0  0
   20.3017   19.7154   22.9650 C   0  0  0  0  0  0  0  0  0  0  0  0
   20.0548   20.7697   22.7789 H   0  0  0  0  0  0  0  0  0  0  0  0
   21.2224   19.7089   23.5642 H   0  0  0  0  0  0  0  0  0  0  0  0
   20.5639   18.9941   21.6231 C   0  0  0  0  0  0  0  0  0  0  0  0
   19.6574   19.0172   21.0027 H   0  0  0  0  0  0  0  0  0  0  0  0
   20.7938   17.9362   21.8104 H   0  0  0  0  0  0  0  0  0  0  0  0
   21.7322   19.6415   20.8395 C   0  0  0  0  0  0  0  0  0  0  0  0
   21.5116   20.6958   20.6339 H   0  0  0  0  0  0  0  0  0  0  0  0
   22.6513   19.6127   21.4371 H   0  0  0  0  0  0  0  0  0  0  0  0
   22.0102   18.9474   19.5110 C   0  0  0  0  0  0  0  0  0  0  0  0
   22.7828   18.0094   19.5046 O   0  5  0  0  0  0  0  0  0  0  0  0
   21.4363   19.3538   18.5199 O   0  0  0  0  0  0  0  0  0  0  0  0
  1  2  1  0  0  0  0
  1  3  1  0  0  0  0
  1  4  2  0  0  0  0
  4  5  1  0  0  0  0
  4  6  1  0  0  0  0
  6  7  1  0  0  0  0
  6  8  1  0  0  0  0
  6  9  1  0  0  0  0
  9 10  1  0  0  0  0
  9 11  1  0  0  0  0
  9 12  1  0  0  0  0
 12 13  1  0  0  0  0
 12 14  1  0  0  0  0
 12 15  1  0  0  0  0
 15 16  1  0  0  0  0
 15 17  1  0  0  0  0
 15 18  1  0  0  0  0
 18 19  1  0  0  0  0
 18 20  2  0  0  0  0
M  END
> <VConfSearch Rank>
316

> <Conf_Id>
42

> <Delta U+W>
-0.601

> <U+W>
-52.347

> <U>
8.428

> <W>
-60.774

> <W(PB)>
-62.982

> <W(SA)>
2.208

> <Valence>
9.231

> <Coulomb>
-1.304

> <VdW>
0.501

> <VdW6>
-6.515

> <VdW12>
7.016

> <Bond>
0.103

> <Angle>
2.328

> <Pdih>
6.799

> <Idih>
0.000

> <Tether>
0.000

$$$$
VeraChem MOL file


 20 19  0  0  0  0  0  0  0  0999 V2000     
   20.8594   16.6185   22.9911 C   0  0  0  0  0  0  0  0  0  0  0  0
   20.8951   16.1937   21.9893 H   0  0  0  0  0  0  0  0  0  0  0  0
   20.6071   15.9483   23.8110 H   0  0  0  0  0  0  0  0  0  0  0  0
   21.1109   17.9120   23.2095 C   0  0  0  0  0  0  0  0  0  0  0  0
   21.0671   18.3180   24.2197 H   0  0  0  0  0  0  0  0  0  0  0  0
   21.4664   18.9036   22.1221 C   0  0  0  0  0  0  0  0  0  0  0  0
   21.6797   18.3830   21.1786 H   0  0  0  0  0  0  0  0  0  0  0  0
   22.3897   19.4278   22.4023 H   0  0  0  0  0  0  0  0  0  0  0  0
   20.3502   19.9479   21.8947 C   0  0  0  0  0  0  0  0  0  0  0  0
   20.1432   20.4720   22.8380 H   0  0  0  0  0  0  0  0  0  0  0  0
   20.7123   20.7070   21.1880 H   0  0  0  0  0  0  0  0  0  0  0  0
   19.0485   19.3196   21.3432 C   0  0  0  0  0  0  0  0  0  0  0  0
   18.6520   18.5875   22.0602 H   0  0  0  0  0  0  0  0  0  0  0  0
   19.2758   18.7668   20.4218 H   0  0  0  0  0  0  0  0  0  0  0  0
   17.9575   20.3790   21.0398 C   0  0  0  0  0  0  0  0  0  0  0  0
   18.3438   21.1326   20.3430 H   0  0  0  0  0  0  0  0  0  0  0  0
   17.1060   19.8966   20.5456 H   0  0  0  0  0  0  0  0  0  0  0  0
   17.4233   21.0908   22.2795 C   0  0  0  0  0  0  0  0  0  0  0  0
   17.8087   22.2212   22.5054 O   0  5  0  0  0  0  0  0  0  0  0  0
   16.6211   20.5017   22.9770 O   0  0  0  0  0  0  0  0  0  0  0  0
  1  2  1  0  0  0  0
  1  3  1  0  0  0  0
  1  4  2  0  0  0  0
  4  5  1  0  0  0  0
  4  6  1  0  0  0  0
  6  7  1  0  0  0  0
  6  8  1  0  0  0  0
  6  9  1  0  0  0  0
  9 10  1  0  0  0  0
  9 11  1  0  0  0  0
  9 12  1  0  0  0  0
 12 13  1  0  0  0  0
 12 14  1  0  0  0  0
 12 15  1  0  0  0  0
 15 16  1  0  0  0  0
 15 17  1  0  0  0  0
 15 18  1  0  0  0  0
 18 19  1  0  0  0  0
 18 20  2  0  0  0  0
M  END
> <VConfSearch Rank>
317

> <Conf_Id>
68

> <Delta U+W>
0.492

> <U+W>
-51.253

> <U>
10.179

> <W>
-61.432

> <W(PB)>
-63.627

> <W(SA)>
2.195

> <Valence>
9.483

> <Coulomb>
0.361

> <VdW>
0.335

> <VdW6>
-7.385

> <VdW12>
7.720

> <Bond>
0.125

> <Angle>
2.487

> <Pdih>
6.870

> <Idih>
0.001

> <Tether>
0.000

$$$$
VeraChem MOL file


 20 19  0  0  0  0  0  0  0  0999 V2000     
   22.3839   18.7000   20.5116 C   0  0  0  0  0  0  0  0  0  0  0  0
   23.1001   19.3220   21.0461 H   0  0  0  0  0  0  0  0  0  0  0  0
   22.5458   18.5527   19.4452 H   0  0  0  0  0  0  0  0  0  0  0  0
   21.3440   18.1405   21.1355 C   0  0  0  0  0  0  0  0  0  0  0  0
   20.6406   17.5192   20.5819 H   0  0  0  0  0  0  0  0  0  0  0  0
   21.0590   18.2959   22.6141 C   0  0  0  0  0  0  0  0  0  0  0  0
   21.9690   18.6241   23.1344 H   0  0  0  0  0  0  0  0  0  0  0  0
   20.7910   17.3232   23.0477 H   0  0  0  0  0  0  0  0  0  0  0  0
   19.9341   19.3186   22.8918 C   0  0  0  0  0  0  0  0  0  0  0  0
   19.8647   19.4832   23.9757 H   0  0  0  0  0  0  0  0  0  0  0  0
   20.2040   20.2857   22.4452 H   0  0  0  0  0  0  0  0  0  0  0  0
   18.5567   18.8571   22.3593 C   0  0  0  0  0  0  0  0  0  0  0  0
   18.3208   17.8678   22.7739 H   0  0  0  0  0  0  0  0  0  0  0  0
   18.5946   18.7423   21.2674 H   0  0  0  0  0  0  0  0  0  0  0  0
   17.4166   19.8418   22.7270 C   0  0  0  0  0  0  0  0  0  0  0  0
   16.4523   19.4130   22.4298 H   0  0  0  0  0  0  0  0  0  0  0  0
   17.3775   19.9885   23.8131 H   0  0  0  0  0  0  0  0  0  0  0  0
   17.5361   21.2069   22.0554 C   0  0  0  0  0  0  0  0  0  0  0  0
   17.2128   21.3004   20.8875 O   0  5  0  0  0  0  0  0  0  0  0  0
   17.9301   22.1439   22.7216 O   0  0  0  0  0  0  0  0  0  0  0  0
  1  2  1  0  0  0  0
  1  3  1  0  0  0  0
  1  4  2  0  0  0  0
  4  5  1  0  0  0  0
  4  6  1  0  0  0  0
  6  7  1  0  0  0  0
  6  8  1  0  0  0  0
  6  9  1  0  0  0  0
  9 10  1  0  0  0  0
  9 11  1  0  0  0  0
  9 12  1  0  0  0  0
 12 13  1  0  0  0  0
 12 14  1  0  0  0  0
 12 15  1  0  0  0  0
 15 16  1  0  0  0  0
 15 17  1  0  0  0  0
 15 18  1  0  0  0  0
 18 19  1  0  0  0  0
 18 20  2  0  0  0  0
M  END
> <VConfSearch Rank>
318

> <Conf_Id>
87

> <Delta U+W>
0.339

> <U+W>
-51.407

> <U>
10.461

> <W>
-61.867

> <W(PB)>
-64.045

> <W(SA)>
2.178

> <Valence>
9.555

> <Coulomb>
0.483

> <VdW>
0.423

> <VdW6>
-7.223

> <VdW12>
7.646

> <Bond>
0.126

> <Angle>
2.492

> <Pdih>
6.936

> <Idih>
0.001

> <Tether>
0.000

$$$$
VeraChem MOL file


 20 19  0  0  0  0  0  0  0  0999 V2000     
   17.8451   20.5652   23.4795 C   0  0  0  0  0  0  0  0  0  0  0  0
   18.1568   21.5724   23.2079 H   0  0  0  0  0  0  0  0  0  0  0  0
   16.7844   20.3990   23.6593 H   0  0  0  0  0  0  0  0  0  0  0  0
   18.7285   19.5692   23.5863 C   0  0  0  0  0  0  0  0  0  0  0  0
   18.3984   18.5700   23.8680 H   0  0  0  0  0  0  0  0  0  0  0  0
   20.2170   19.7313   23.3634 C   0  0  0  0  0  0  0  0  0  0  0  0
   20.7644   18.9030   23.8327 H   0  0  0  0  0  0  0  0  0  0  0  0
   20.5495   20.6402   23.8828 H   0  0  0  0  0  0  0  0  0  0  0  0
   20.6107   19.8480   21.8698 C   0  0  0  0  0  0  0  0  0  0  0  0
   19.9345   20.5453   21.3565 H   0  0  0  0  0  0  0  0  0  0  0  0
   21.6087   20.3042   21.8190 H   0  0  0  0  0  0  0  0  0  0  0  0
   20.6696   18.5025   21.1035 C   0  0  0  0  0  0  0  0  0  0  0  0
   21.3357   17.8032   21.6273 H   0  0  0  0  0  0  0  0  0  0  0  0
   21.1272   18.6854   20.1213 H   0  0  0  0  0  0  0  0  0  0  0  0
   19.2883   17.8349   20.8812 C   0  0  0  0  0  0  0  0  0  0  0  0
   18.8643   17.5014   21.8336 H   0  0  0  0  0  0  0  0  0  0  0  0
   18.5853   18.5535   20.4434 H   0  0  0  0  0  0  0  0  0  0  0  0
   19.3608   16.6214   19.9615 C   0  0  0  0  0  0  0  0  0  0  0  0
   19.5859   15.5361   20.4596 O   0  5  0  0  0  0  0  0  0  0  0  0
   19.2111   16.7961   18.7682 O   0  0  0  0  0  0  0  0  0  0  0  0
  1  2  1  0  0  0  0
  1  3  1  0  0  0  0
  1  4  2  0  0  0  0
  4  5  1  0  0  0  0
  4  6  1  0  0  0  0
  6  7  1  0  0  0  0
  6  8  1  0  0  0  0
  6  9  1  0  0  0  0
  9 10  1  0  0  0  0
  9 11  1  0  0  0  0
  9 12  1  0  0  0  0
 12 13  1  0  0  0  0
 12 14  1  0  0  0  0
 12 15  1  0  0  0  0
 15 16  1  0  0  0  0
 15 17  1  0  0  0  0
 15 18  1  0  0  0  0
 18 19  1  0  0  0  0
 18 20  2  0  0  0  0
M  END
> <VConfSearch Rank>
319

> <Conf_Id>
51

> <Delta U+W>
1.709

> <U+W>
-50.036

> <U>
10.643

> <W>
-60.679

> <W(PB)>
-62.882

> <W(SA)>
2.203

> <Valence>
11.231

> <Coulomb>
-1.077

> <VdW>
0.489

> <VdW6>
-7.546

> <VdW12>
8.035

> <Bond>
0.159

> <Angle>
3.005

> <Pdih>
8.065

> <Idih>
0.002

> <Tether>
0.000

$$$$
VeraChem MOL file


 20 19  0  0  0  0  0  0  0  0999 V2000     
   17.2506   20.3790   21.0420 C   0  0  0  0  0  0  0  0  0  0  0  0
   17.3199   21.3731   21.4806 H   0  0  0  0  0  0  0  0  0  0  0  0
   16.2608   19.9326   20.9634 H   0  0  0  0  0  0  0  0  0  0  0  0
   18.3375   19.7288   20.6182 C   0  0  0  0  0  0  0  0  0  0  0  0
   18.2467   18.7383   20.1738 H   0  0  0  0  0  0  0  0  0  0  0  0
   19.7405   20.2932   20.6849 C   0  0  0  0  0  0  0  0  0  0  0  0
   19.7142   21.3331   20.3322 H   0  0  0  0  0  0  0  0  0  0  0  0
   20.3992   19.7588   19.9874 H   0  0  0  0  0  0  0  0  0  0  0  0
   20.3491   20.2735   22.1092 C   0  0  0  0  0  0  0  0  0  0  0  0
   21.1780   20.9941   22.1315 H   0  0  0  0  0  0  0  0  0  0  0  0
   19.6126   20.6394   22.8376 H   0  0  0  0  0  0  0  0  0  0  0  0
   20.9078   18.9007   22.5611 C   0  0  0  0  0  0  0  0  0  0  0  0
   21.4673   19.0473   23.4955 H   0  0  0  0  0  0  0  0  0  0  0  0
   21.6334   18.5315   21.8234 H   0  0  0  0  0  0  0  0  0  0  0  0
   19.8229   17.8209   22.8066 C   0  0  0  0  0  0  0  0  0  0  0  0
   19.0417   18.2114   23.4696 H   0  0  0  0  0  0  0  0  0  0  0  0
   19.3416   17.5379   21.8652 H   0  0  0  0  0  0  0  0  0  0  0  0
   20.3861   16.5508   23.4337 C   0  0  0  0  0  0  0  0  0  0  0  0
   20.8039   15.6817   22.6940 O   0  5  0  0  0  0  0  0  0  0  0  0
   20.4114   16.4719   24.6461 O   0  0  0  0  0  0  0  0  0  0  0  0
  1  2  1  0  0  0  0
  1  3  1  0  0  0  0
  1  4  2  0  0  0  0
  4  5  1  0  0  0  0
  4  6  1  0  0  0  0
  6  7  1  0  0  0  0
  6  8  1  0  0  0  0
  6  9  1  0  0  0  0
  9 10  1  0  0  0  0
  9 11  1  0  0  0  0
  9 12  1  0  0  0  0
 12 13  1  0  0  0  0
 12 14  1  0  0  0  0
 12 15  1  0  0  0  0
 15 16  1  0  0  0  0
 15 17  1  0  0  0  0
 15 18  1  0  0  0  0
 18 19  1  0  0  0  0
 18 20  2  0  0  0  0
M  END
> <VConfSearch Rank>
320

> <Conf_Id>
91

> <Delta U+W>
1.604

> <U+W>
-50.141

> <U>
10.644

> <W>
-60.786

> <W(PB)>
-62.965

> <W(SA)>
2.179

> <Valence>
11.230

> <Coulomb>
-1.075

> <VdW>
0.489

> <VdW6>
-7.547

> <VdW12>
8.036

> <Bond>
0.159

> <Angle>
3.006

> <Pdih>
8.064

> <Idih>
0.002

> <Tether>
0.000

$$$$
VeraChem MOL file


 20 19  0  0  0  0  0  0  0  0999 V2000     
   19.2068   15.6906   20.3878 C   0  0  0  0  0  0  0  0  0  0  0  0
   19.7204   15.2511   21.2414 H   0  0  0  0  0  0  0  0  0  0  0  0
   19.1260   15.0859   19.4861 H   0  0  0  0  0  0  0  0  0  0  0  0
   18.6967   16.9238   20.4397 C   0  0  0  0  0  0  0  0  0  0  0  0
   18.1868   17.3454   19.5737 H   0  0  0  0  0  0  0  0  0  0  0  0
   18.7693   17.8207   21.6554 C   0  0  0  0  0  0  0  0  0  0  0  0
   19.0551   17.2378   22.5416 H   0  0  0  0  0  0  0  0  0  0  0  0
   17.7762   18.2420   21.8612 H   0  0  0  0  0  0  0  0  0  0  0  0
   19.7831   18.9646   21.4439 C   0  0  0  0  0  0  0  0  0  0  0  0
   20.7738   18.5379   21.2343 H   0  0  0  0  0  0  0  0  0  0  0  0
   19.4944   19.5501   20.5602 H   0  0  0  0  0  0  0  0  0  0  0  0
   19.8679   19.8925   22.6756 C   0  0  0  0  0  0  0  0  0  0  0  0
   20.1571   19.3077   23.5598 H   0  0  0  0  0  0  0  0  0  0  0  0
   18.8772   20.3186   22.8865 H   0  0  0  0  0  0  0  0  0  0  0  0
   20.8881   21.0424   22.4628 C   0  0  0  0  0  0  0  0  0  0  0  0
   21.8806   20.6241   22.2581 H   0  0  0  0  0  0  0  0  0  0  0  0
   20.6020   21.6342   21.5854 H   0  0  0  0  0  0  0  0  0  0  0  0
   21.0346   22.0104   23.6378 C   0  0  0  0  0  0  0  0  0  0  0  0
   21.8236   22.9250   23.5077 O   0  5  0  0  0  0  0  0  0  0  0  0
   20.3734   21.8413   24.6443 O   0  0  0  0  0  0  0  0  0  0  0  0
  1  2  1  0  0  0  0
  1  3  1  0  0  0  0
  1  4  2  0  0  0  0
  4  5  1  0  0  0  0
  4  6  1  0  0  0  0
  6  7  1  0  0  0  0
  6  8  1  0  0  0  0
  6  9  1  0  0  0  0
  9 10  1  0  0  0  0
  9 11  1  0  0  0  0
  9 12  1  0  0  0  0
 12 13  1  0  0  0  0
 12 14  1  0  0  0  0
 12 15  1  0  0  0  0
 15 16  1  0  0  0  0
 15 17  1  0  0  0  0
 15 18  1  0  0  0  0
 18 19  1  0  0  0  0
 18 20  2  0  0  0  0
M  END
> <VConfSearch Rank>
321

> <Conf_Id>
33

> <Delta U+W>
0.000

> <U+W>
-51.745

> <U>
7.593

> <W>
-59.338

> <W(PB)>
-61.574

> <W(SA)>
2.236

> <Valence>
9.570

> <Coulomb>
-3.091

> <VdW>
1.114

> <VdW6>
-6.064

> <VdW12>
7.178

> <Bond>
0.117

> <Angle>
2.692

> <Pdih>
6.761

> <Idih>
0.000

> <Tether>
0.000

$$$$
VeraChem MOL file


 20 19  0  0  0  0  0  0  0  0999 V2000     
   18.4352   15.8763   23.1592 C   0  0  0  0  0  0  0  0  0  0  0  0
   17.4600   16.1095   22.7349 H   0  0  0  0  0  0  0  0  0  0  0  0
   18.4991   15.0183   23.8263 H   0  0  0  0  0  0  0  0  0  0  0  0
   19.5130   16.6129   22.8772 C   0  0  0  0  0  0  0  0  0  0  0  0
   20.4800   16.3630   23.3131 H   0  0  0  0  0  0  0  0  0  0  0  0
   19.5015   17.8162   21.9607 C   0  0  0  0  0  0  0  0  0  0  0  0
   18.5717   17.8393   21.3762 H   0  0  0  0  0  0  0  0  0  0  0  0
   20.3262   17.7291   21.2422 H   0  0  0  0  0  0  0  0  0  0  0  0
   19.6356   19.1281   22.7661 C   0  0  0  0  0  0  0  0  0  0  0  0
   18.8507   19.1529   23.5346 H   0  0  0  0  0  0  0  0  0  0  0  0
   20.5947   19.1365   23.3019 H   0  0  0  0  0  0  0  0  0  0  0  0
   19.5144   20.4017   21.8958 C   0  0  0  0  0  0  0  0  0  0  0  0
   19.5067   21.2801   22.5561 H   0  0  0  0  0  0  0  0  0  0  0  0
   18.5498   20.4014   21.3694 H   0  0  0  0  0  0  0  0  0  0  0  0
   20.6650   20.5612   20.8684 C   0  0  0  0  0  0  0  0  0  0  0  0
   21.6354   20.5203   21.3774 H   0  0  0  0  0  0  0  0  0  0  0  0
   20.6461   19.7456   20.1369 H   0  0  0  0  0  0  0  0  0  0  0  0
   20.5898   21.8752   20.0991 C   0  0  0  0  0  0  0  0  0  0  0  0
   19.9434   21.9017   19.0704 O   0  5  0  0  0  0  0  0  0  0  0  0
   21.1632   22.8428   20.5591 O   0  0  0  0  0  0  0  0  0  0  0  0
  1  2  1  0  0  0  0
  1  3  1  0  0  0  0
  1  4  2  0  0  0  0
  4  5  1  0  0  0  0
  4  6  1  0  0  0  0
  6  7  1  0  0  0  0
  6  8  1  0  0  0  0
  6  9  1  0  0  0  0
  9 10  1  0  0  0  0
  9 11  1  0  0  0  0
  9 12  1  0  0  0  0
 12 13  1  0  0  0  0
 12 14  1  0  0  0  0
 12 15  1  0  0  0  0
 15 16  1  0  0  0  0
 15 17  1  0  0  0  0
 15 18  1  0  0  0  0
 18 19  1  0  0  0  0
 18 20  2  0  0  0  0
M  END
> <VConfSearch Rank>
322

> <Conf_Id>
37

> <Delta U+W>
-0.384

> <U+W>
-52.130

> <U>
7.491

> <W>
-59.621

> <W(PB)>
-61.853

> <W(SA)>
2.232

> <Valence>
9.604

> <Coulomb>
-2.799

> <VdW>
0.686

> <VdW6>
-6.435

> <VdW12>
7.121

> <Bond>
0.124

> <Angle>
2.493

> <Pdih>
6.986

> <Idih>
0.001

> <Tether>
0.000

$$$$
VeraChem MOL file


 20 19  0  0  0  0  0  0  0  0999 V2000     
   22.5333   17.9722   20.2925 C   0  0  0  0  0  0  0  0  0  0  0  0
   23.4345   17.6308   19.7860 H   0  0  0  0  0  0  0  0  0  0  0  0
   21.6984   18.2694   19.6616 H   0  0  0  0  0  0  0  0  0  0  0  0
   22.4757   18.0168   21.6284 C   0  0  0  0  0  0  0  0  0  0  0  0
   23.3454   17.7061   22.2069 H   0  0  0  0  0  0  0  0  0  0  0  0
   21.2951   18.4674   22.4722 C   0  0  0  0  0  0  0  0  0  0  0  0
   21.6195   19.2918   23.1213 H   0  0  0  0  0  0  0  0  0  0  0  0
   21.0136   17.6503   23.1499 H   0  0  0  0  0  0  0  0  0  0  0  0
   20.0499   18.9130   21.6705 C   0  0  0  0  0  0  0  0  0  0  0  0
   20.3200   19.7446   21.0052 H   0  0  0  0  0  0  0  0  0  0  0  0
   19.7075   18.0853   21.0342 H   0  0  0  0  0  0  0  0  0  0  0  0
   18.8984   19.3543   22.6002 C   0  0  0  0  0  0  0  0  0  0  0  0
   19.2346   20.1823   23.2396 H   0  0  0  0  0  0  0  0  0  0  0  0
   18.6234   18.5264   23.2685 H   0  0  0  0  0  0  0  0  0  0  0  0
   17.6503   19.8009   21.7997 C   0  0  0  0  0  0  0  0  0  0  0  0
   17.9046   20.6365   21.1366 H   0  0  0  0  0  0  0  0  0  0  0  0
   17.2935   18.9806   21.1654 H   0  0  0  0  0  0  0  0  0  0  0  0
   16.4986   20.2416   22.6961 C   0  0  0  0  0  0  0  0  0  0  0  0
   16.4419   21.4103   23.0241 O   0  5  0  0  0  0  0  0  0  0  0  0
   15.7000   19.4006   23.0588 O   0  0  0  0  0  0  0  0  0  0  0  0
  1  2  1  0  0  0  0
  1  3  1  0  0  0  0
  1  4  2  0  0  0  0
  4  5  1  0  0  0  0
  4  6  1  0  0  0  0
  6  7  1  0  0  0  0
  6  8  1  0  0  0  0
  6  9  1  0  0  0  0
  9 10  1  0  0  0  0
  9 11  1  0  0  0  0
  9 12  1  0  0  0  0
 12 13  1  0  0  0  0
 12 14  1  0  0  0  0
 12 15  1  0  0  0  0
 15 16  1  0  0  0  0
 15 17  1  0  0  0  0
 15 18  1  0  0  0  0
 18 19  1  0  0  0  0
 18 20  2  0  0  0  0
M  END
> <VConfSearch Rank>
323

> <Conf_Id>
44

> <Delta U+W>
-1.440

> <U+W>
-53.185

> <U>
6.572

> <W>
-59.757

> <W(PB)>
-62.007

> <W(SA)>
2.249

> <Valence>
7.989

> <Coulomb>
-2.697

> <VdW>
1.281

> <VdW6>
-6.467

> <VdW12>
7.748

> <Bond>
0.136

> <Angle>
2.854

> <Pdih>
4.997

> <Idih>
0.001

> <Tether>
0.000

$$$$
VeraChem MOL file


 20 19  0  0  0  0  0  0  0  0999 V2000     
   18.5759   15.9501   22.8211 C   0  0  0  0  0  0  0  0  0  0  0  0
   19.5129   15.9349   23.3754 H   0  0  0  0  0  0  0  0  0  0  0  0
   18.0439   15.0067   22.7105 H   0  0  0  0  0  0  0  0  0  0  0  0
   18.0957   17.0792   22.2934 C   0  0  0  0  0  0  0  0  0  0  0  0
   17.1560   17.0726   21.7416 H   0  0  0  0  0  0  0  0  0  0  0  0
   18.7769   18.4249   22.4070 C   0  0  0  0  0  0  0  0  0  0  0  0
   19.5462   18.3884   23.1889 H   0  0  0  0  0  0  0  0  0  0  0  0
   18.0442   19.1816   22.7176 H   0  0  0  0  0  0  0  0  0  0  0  0
   19.4125   18.8406   21.0611 C   0  0  0  0  0  0  0  0  0  0  0  0
   20.1841   18.1113   20.7783 H   0  0  0  0  0  0  0  0  0  0  0  0
   18.6441   18.7984   20.2770 H   0  0  0  0  0  0  0  0  0  0  0  0
   20.0211   20.2631   21.0787 C   0  0  0  0  0  0  0  0  0  0  0  0
   19.2482   20.9946   21.3519 H   0  0  0  0  0  0  0  0  0  0  0  0
   20.3448   20.5200   20.0605 H   0  0  0  0  0  0  0  0  0  0  0  0
   21.2321   20.4066   22.0368 C   0  0  0  0  0  0  0  0  0  0  0  0
   20.9242   20.2461   23.0761 H   0  0  0  0  0  0  0  0  0  0  0  0
   21.9922   19.6521   21.8018 H   0  0  0  0  0  0  0  0  0  0  0  0
   21.8883   21.7802   21.9550 C   0  0  0  0  0  0  0  0  0  0  0  0
   22.7869   21.9398   21.1527 O   0  5  0  0  0  0  0  0  0  0  0  0
   21.4703   22.6600   22.6817 O   0  0  0  0  0  0  0  0  0  0  0  0
  1  2  1  0  0  0  0
  1  3  1  0  0  0  0
  1  4  2  0  0  0  0
  4  5  1  0  0  0  0
  4  6  1  0  0  0  0
  6  7  1  0  0  0  0
  6  8  1  0  0  0  0
  6  9  1  0  0  0  0
  9 10  1  0  0  0  0
  9 11  1  0  0  0  0
  9 12  1  0  0  0  0
 12 13  1  0  0  0  0
 12 14  1  0  0  0  0
 12 15  1  0  0  0  0
 15 16  1  0  0  0  0
 15 17  1  0  0  0  0
 15 18  1  0  0  0  0
 18 19  1  0  0  0  0
 18 20  2  0  0  0  0
M  END
> <VConfSearch Rank>
324

> <Conf_Id>
38

> <Delta U+W>
-0.381

> <U+W>
-52.126

> <U>
7.601

> <W>
-59.727

> <W(PB)>
-61.964

> <W(SA)>
2.236

> <Valence>
9.602

> <Coulomb>
-2.686

> <VdW>
0.685

> <VdW6>
-6.453

> <VdW12>
7.139

> <Bond>
0.125

> <Angle>
2.485

> <Pdih>
6.991

> <Idih>
0.001

> <Tether>
0.000

$$$$
VeraChem MOL file


 20 19  0  0  0  0  0  0  0  0999 V2000     
   17.6961   21.8600   23.3496 C   0  0  0  0  0  0  0  0  0  0  0  0
   18.5408   22.3398   23.8413 H   0  0  0  0  0  0  0  0  0  0  0  0
   16.8225   22.4752   23.1407 H   0  0  0  0  0  0  0  0  0  0  0  0
   17.7271   20.5682   23.0121 C   0  0  0  0  0  0  0  0  0  0  0  0
   16.8711   20.1073   22.5196 H   0  0  0  0  0  0  0  0  0  0  0  0
   18.9028   19.6524   23.2702 C   0  0  0  0  0  0  0  0  0  0  0  0
   18.5490   18.7227   23.7356 H   0  0  0  0  0  0  0  0  0  0  0  0
   19.5981   20.1177   23.9821 H   0  0  0  0  0  0  0  0  0  0  0  0
   19.6505   19.3232   21.9612 C   0  0  0  0  0  0  0  0  0  0  0  0
   18.9534   18.8558   21.2519 H   0  0  0  0  0  0  0  0  0  0  0  0
   19.9986   20.2558   21.4962 H   0  0  0  0  0  0  0  0  0  0  0  0
   20.8539   18.3852   22.2069 C   0  0  0  0  0  0  0  0  0  0  0  0
   20.5077   17.4469   22.6624 H   0  0  0  0  0  0  0  0  0  0  0  0
   21.5368   18.8538   22.9285 H   0  0  0  0  0  0  0  0  0  0  0  0
   21.6369   18.0667   20.9068 C   0  0  0  0  0  0  0  0  0  0  0  0
   21.9654   18.9956   20.4251 H   0  0  0  0  0  0  0  0  0  0  0  0
   22.5421   17.4997   21.1537 H   0  0  0  0  0  0  0  0  0  0  0  0
   20.8463   17.2451   19.8924 C   0  0  0  0  0  0  0  0  0  0  0  0
   20.4080   17.8102   18.9098 O   0  5  0  0  0  0  0  0  0  0  0  0
   20.6996   16.0579   20.1074 O   0  0  0  0  0  0  0  0  0  0  0  0
  1  2  1  0  0  0  0
  1  3  1  0  0  0  0
  1  4  2  0  0  0  0
  4  5  1  0  0  0  0
  4  6  1  0  0  0  0
  6  7  1  0  0  0  0
  6  8  1  0  0  0  0
  6  9  1  0  0  0  0
  9 10  1  0  0  0  0
  9 11  1  0  0  0  0
  9 12  1  0  0  0  0
 12 13  1  0  0  0  0
 12 14  1  0  0  0  0
 12 15  1  0  0  0  0
 15 16  1  0  0  0  0
 15 17  1  0  0  0  0
 15 18  1  0  0  0  0
 18 19  1  0  0  0  0
 18 20  2  0  0  0  0
M  END
> <VConfSearch Rank>
325

> <Conf_Id>
58

> <Delta U+W>
0.019

> <U+W>
-51.727

> <U>
8.963

> <W>
-60.690

> <W(PB)>
-62.934

> <W(SA)>
2.244

> <Valence>
9.327

> <Coulomb>
-0.780

> <VdW>
0.417

> <VdW6>
-6.635

> <VdW12>
7.052

> <Bond>
0.105

> <Angle>
2.399

> <Pdih>
6.822

> <Idih>
0.000

> <Tether>
0.000

$$$$
VeraChem MOL file


 20 19  0  0  0  0  0  0  0  0999 V2000     
   16.5986   18.5204   20.5340 C   0  0  0  0  0  0  0  0  0  0  0  0
   16.1299   18.2894   21.4892 H   0  0  0  0  0  0  0  0  0  0  0  0
   16.1341   18.1145   19.6369 H   0  0  0  0  0  0  0  0  0  0  0  0
   17.7017   19.2698   20.4612 C   0  0  0  0  0  0  0  0  0  0  0  0
   18.1559   19.4885   19.4950 H   0  0  0  0  0  0  0  0  0  0  0  0
   18.4014   19.8674   21.6616 C   0  0  0  0  0  0  0  0  0  0  0  0
   17.7504   19.8174   22.5451 H   0  0  0  0  0  0  0  0  0  0  0  0
   18.6032   20.9310   21.4774 H   0  0  0  0  0  0  0  0  0  0  0  0
   19.7263   19.1335   21.9568 C   0  0  0  0  0  0  0  0  0  0  0  0
   19.5209   18.0690   22.1359 H   0  0  0  0  0  0  0  0  0  0  0  0
   20.3764   19.1869   21.0725 H   0  0  0  0  0  0  0  0  0  0  0  0
   20.4559   19.7340   23.1796 C   0  0  0  0  0  0  0  0  0  0  0  0
   19.7929   19.6905   24.0543 H   0  0  0  0  0  0  0  0  0  0  0  0
   20.6724   20.7963   22.9993 H   0  0  0  0  0  0  0  0  0  0  0  0
   21.7756   18.9901   23.5111 C   0  0  0  0  0  0  0  0  0  0  0  0
   22.1886   19.3771   24.4500 H   0  0  0  0  0  0  0  0  0  0  0  0
   21.5799   17.9222   23.6664 H   0  0  0  0  0  0  0  0  0  0  0  0
   22.8554   19.1371   22.4428 C   0  0  0  0  0  0  0  0  0  0  0  0
   23.4547   20.1924   22.3762 O   0  5  0  0  0  0  0  0  0  0  0  0
   23.0767   18.1906   21.7134 O   0  0  0  0  0  0  0  0  0  0  0  0
  1  2  1  0  0  0  0
  1  3  1  0  0  0  0
  1  4  2  0  0  0  0
  4  5  1  0  0  0  0
  4  6  1  0  0  0  0
  6  7  1  0  0  0  0
  6  8  1  0  0  0  0
  6  9  1  0  0  0  0
  9 10  1  0  0  0  0
  9 11  1  0  0  0  0
  9 12  1  0  0  0  0
 12 13  1  0  0  0  0
 12 14  1  0  0  0  0
 12 15  1  0  0  0  0
 15 16  1  0  0  0  0
 15 17  1  0  0  0  0
 15 18  1  0  0  0  0
 18 19  1  0  0  0  0
 18 20  2  0  0  0  0
M  END
> <VConfSearch Rank>
326

> <Conf_Id>
54

> <Delta U+W>
-0.048

> <U+W>
-51.793

> <U>
8.964

> <W>
-60.756

> <W(PB)>
-63.007

> <W(SA)>
2.251

> <Valence>
9.327

> <Coulomb>
-0.780

> <VdW>
0.417

> <VdW6>
-6.635

> <VdW12>
7.052

> <Bond>
0.105

> <Angle>
2.399

> <Pdih>
6.822

> <Idih>
0.000

> <Tether>
0.000

$$$$
VeraChem MOL file


 20 19  0  0  0  0  0  0  0  0999 V2000     
   20.4497   20.8026   24.8312 C   0  0  0  0  0  0  0  0  0  0  0  0
   20.8773   20.5198   25.7916 H   0  0  0  0  0  0  0  0  0  0  0  0
   20.7155   21.7804   24.4326 H   0  0  0  0  0  0  0  0  0  0  0  0
   19.6336   19.9782   24.1693 C   0  0  0  0  0  0  0  0  0  0  0  0
   19.3778   19.0053   24.5880 H   0  0  0  0  0  0  0  0  0  0  0  0
   18.9975   20.3061   22.8353 C   0  0  0  0  0  0  0  0  0  0  0  0
   19.0076   21.3931   22.6779 H   0  0  0  0  0  0  0  0  0  0  0  0
   17.9410   20.0064   22.8405 H   0  0  0  0  0  0  0  0  0  0  0  0
   19.7259   19.6284   21.6527 C   0  0  0  0  0  0  0  0  0  0  0  0
   19.3054   20.0139   20.7138 H   0  0  0  0  0  0  0  0  0  0  0  0
   20.7859   19.9174   21.6625 H   0  0  0  0  0  0  0  0  0  0  0  0
   19.6029   18.0862   21.6743 C   0  0  0  0  0  0  0  0  0  0  0  0
   18.5427   17.7971   21.6792 H   0  0  0  0  0  0  0  0  0  0  0  0
   20.0415   17.6963   22.6023 H   0  0  0  0  0  0  0  0  0  0  0  0
   20.3126   17.4152   20.4696 C   0  0  0  0  0  0  0  0  0  0  0  0
   21.3651   17.7214   20.4317 H   0  0  0  0  0  0  0  0  0  0  0  0
   20.3032   16.3266   20.5989 H   0  0  0  0  0  0  0  0  0  0  0  0
   19.6675   17.7196   19.1205 C   0  0  0  0  0  0  0  0  0  0  0  0
   20.2205   18.5118   18.3832 O   0  5  0  0  0  0  0  0  0  0  0  0
   18.6331   17.1471   18.8385 O   0  0  0  0  0  0  0  0  0  0  0  0
  1  2  1  0  0  0  0
  1  3  1  0  0  0  0
  1  4  2  0  0  0  0
  4  5  1  0  0  0  0
  4  6  1  0  0  0  0
  6  7  1  0  0  0  0
  6  8  1  0  0  0  0
  6  9  1  0  0  0  0
  9 10  1  0  0  0  0
  9 11  1  0  0  0  0
  9 12  1  0  0  0  0
 12 13  1  0  0  0  0
 12 14  1  0  0  0  0
 12 15  1  0  0  0  0
 15 16  1  0  0  0  0
 15 17  1  0  0  0  0
 15 18  1  0  0  0  0
 18 19  1  0  0  0  0
 18 20  2  0  0  0  0
M  END
> <VConfSearch Rank>
327

> <Conf_Id>
27

> <Delta U+W>
0.478

> <U+W>
-51.267

> <U>
9.192

> <W>
-60.459

> <W(PB)>
-62.649

> <W(SA)>
2.190

> <Valence>
9.572

> <Coulomb>
-0.884

> <VdW>
0.504

> <VdW6>
-7.168

> <VdW12>
7.672

> <Bond>
0.127

> <Angle>
2.504

> <Pdih>
6.941

> <Idih>
0.001

> <Tether>
0.000

$$$$
VeraChem MOL file


 20 19  0  0  0  0  0  0  0  0999 V2000     
   22.2985   19.6739   23.8350 C   0  0  0  0  0  0  0  0  0  0  0  0
   21.8940   20.0981   24.7526 H   0  0  0  0  0  0  0  0  0  0  0  0
   23.2709   20.0334   23.5028 H   0  0  0  0  0  0  0  0  0  0  0  0
   21.6295   18.7507   23.1394 C   0  0  0  0  0  0  0  0  0  0  0  0
   22.0541   18.3370   22.2251 H   0  0  0  0  0  0  0  0  0  0  0  0
   20.2784   18.1998   23.5428 C   0  0  0  0  0  0  0  0  0  0  0  0
   20.1047   18.3902   24.6106 H   0  0  0  0  0  0  0  0  0  0  0  0
   20.2673   17.1086   23.4197 H   0  0  0  0  0  0  0  0  0  0  0  0
   19.1215   18.8279   22.7333 C   0  0  0  0  0  0  0  0  0  0  0  0
   18.1672   18.4895   23.1595 H   0  0  0  0  0  0  0  0  0  0  0  0
   19.1473   19.9204   22.8477 H   0  0  0  0  0  0  0  0  0  0  0  0
   19.1670   18.4570   21.2332 C   0  0  0  0  0  0  0  0  0  0  0  0
   19.1673   17.3639   21.1214 H   0  0  0  0  0  0  0  0  0  0  0  0
   20.0998   18.8242   20.7841 H   0  0  0  0  0  0  0  0  0  0  0  0
   17.9651   19.0500   20.4573 C   0  0  0  0  0  0  0  0  0  0  0  0
   17.0224   18.6823   20.8798 H   0  0  0  0  0  0  0  0  0  0  0  0
   17.9576   20.1428   20.5492 H   0  0  0  0  0  0  0  0  0  0  0  0
   17.9874   18.6995   18.9738 C   0  0  0  0  0  0  0  0  0  0  0  0
   18.5631   19.4537   18.2146 O   0  5  0  0  0  0  0  0  0  0  0  0
   17.4436   17.6723   18.6191 O   0  0  0  0  0  0  0  0  0  0  0  0
  1  2  1  0  0  0  0
  1  3  1  0  0  0  0
  1  4  2  0  0  0  0
  4  5  1  0  0  0  0
  4  6  1  0  0  0  0
  6  7  1  0  0  0  0
  6  8  1  0  0  0  0
  6  9  1  0  0  0  0
  9 10  1  0  0  0  0
  9 11  1  0  0  0  0
  9 12  1  0  0  0  0
 12 13  1  0  0  0  0
 12 14  1  0  0  0  0
 12 15  1  0  0  0  0
 15 16  1  0  0  0  0
 15 17  1  0  0  0  0
 15 18  1  0  0  0  0
 18 19  1  0  0  0  0
 18 20  2  0  0  0  0
M  END
> <VConfSearch Rank>
328

> <Conf_Id>
41

> <Delta U+W>
-0.634

> <U+W>
-52.379

> <U>
7.828

> <W>
-60.207

> <W(PB)>
-62.449

> <W(SA)>
2.242

> <Valence>
9.300

> <Coulomb>
-2.080

> <VdW>
0.608

> <VdW6>
-6.341

> <VdW12>
6.949

> <Bond>
0.103

> <Angle>
2.334

> <Pdih>
6.862

> <Idih>
0.001

> <Tether>
0.000

$$$$
VeraChem MOL file


 20 19  0  0  0  0  0  0  0  0999 V2000     
   22.5684   16.5931   22.4124 C   0  0  0  0  0  0  0  0  0  0  0  0
   23.1150   15.9109   23.0613 H   0  0  0  0  0  0  0  0  0  0  0  0
   22.6694   16.4512   21.3376 H   0  0  0  0  0  0  0  0  0  0  0  0
   21.8033   17.5634   22.9191 C   0  0  0  0  0  0  0  0  0  0  0  0
   21.7150   17.6884   23.9981 H   0  0  0  0  0  0  0  0  0  0  0  0
   21.0170   18.5478   22.0822 C   0  0  0  0  0  0  0  0  0  0  0  0
   21.3592   18.5185   21.0390 H   0  0  0  0  0  0  0  0  0  0  0  0
   21.2050   19.5642   22.4516 H   0  0  0  0  0  0  0  0  0  0  0  0
   19.5041   18.2392   22.1381 C   0  0  0  0  0  0  0  0  0  0  0  0
   19.3463   17.1877   21.8610 H   0  0  0  0  0  0  0  0  0  0  0  0
   19.1461   18.3426   23.1717 H   0  0  0  0  0  0  0  0  0  0  0  0
   18.6558   19.1295   21.1969 C   0  0  0  0  0  0  0  0  0  0  0  0
   17.6103   18.7941   21.2402 H   0  0  0  0  0  0  0  0  0  0  0  0
   18.9850   18.9765   20.1603 H   0  0  0  0  0  0  0  0  0  0  0  0
   18.7068   20.6460   21.5287 C   0  0  0  0  0  0  0  0  0  0  0  0
   19.7270   21.0317   21.4220 H   0  0  0  0  0  0  0  0  0  0  0  0
   18.0906   21.1959   20.8079 H   0  0  0  0  0  0  0  0  0  0  0  0
   18.1953   20.9962   22.9232 C   0  0  0  0  0  0  0  0  0  0  0  0
   16.9998   20.9215   23.1298 O   0  5  0  0  0  0  0  0  0  0  0  0
   19.0017   21.3512   23.7602 O   0  0  0  0  0  0  0  0  0  0  0  0
  1  2  1  0  0  0  0
  1  3  1  0  0  0  0
  1  4  2  0  0  0  0
  4  5  1  0  0  0  0
  4  6  1  0  0  0  0
  6  7  1  0  0  0  0
  6  8  1  0  0  0  0
  6  9  1  0  0  0  0
  9 10  1  0  0  0  0
  9 11  1  0  0  0  0
  9 12  1  0  0  0  0
 12 13  1  0  0  0  0
 12 14  1  0  0  0  0
 12 15  1  0  0  0  0
 15 16  1  0  0  0  0
 15 17  1  0  0  0  0
 15 18  1  0  0  0  0
 18 19  1  0  0  0  0
 18 20  2  0  0  0  0
M  END
> <VConfSearch Rank>
329

> <Conf_Id>
84

> <Delta U+W>
0.942

> <U+W>
-50.803

> <U>
10.196

> <W>
-60.999

> <W(PB)>
-63.182

> <W(SA)>
2.182

> <Valence>
9.837

> <Coulomb>
0.032

> <VdW>
0.328

> <VdW6>
-7.642

> <VdW12>
7.969

> <Bond>
0.151

> <Angle>
2.748

> <Pdih>
6.937

> <Idih>
0.001

> <Tether>
0.000

$$$$
VeraChem MOL file


 20 19  0  0  0  0  0  0  0  0999 V2000     
   17.3096   16.6843   21.7182 C   0  0  0  0  0  0  0  0  0  0  0  0
   16.4064   16.3548   21.2075 H   0  0  0  0  0  0  0  0  0  0  0  0
   18.1346   15.9767   21.7838 H   0  0  0  0  0  0  0  0  0  0  0  0
   17.3990   17.9104   22.2402 C   0  0  0  0  0  0  0  0  0  0  0  0
   16.5619   18.6039   22.1628 H   0  0  0  0  0  0  0  0  0  0  0  0
   18.6186   18.4372   22.9632 C   0  0  0  0  0  0  0  0  0  0  0  0
   19.2959   17.6108   23.2183 H   0  0  0  0  0  0  0  0  0  0  0  0
   18.3124   18.8991   23.9113 H   0  0  0  0  0  0  0  0  0  0  0  0
   19.3730   19.4722   22.1025 C   0  0  0  0  0  0  0  0  0  0  0  0
   19.6706   19.0052   21.1533 H   0  0  0  0  0  0  0  0  0  0  0  0
   18.6973   20.3010   21.8504 H   0  0  0  0  0  0  0  0  0  0  0  0
   20.6208   20.0232   22.8289 C   0  0  0  0  0  0  0  0  0  0  0  0
   21.3056   19.1982   23.0701 H   0  0  0  0  0  0  0  0  0  0  0  0
   20.3157   20.4705   23.7846 H   0  0  0  0  0  0  0  0  0  0  0  0
   21.3755   21.0891   21.9927 C   0  0  0  0  0  0  0  0  0  0  0  0
   20.6975   21.9071   21.7207 H   0  0  0  0  0  0  0  0  0  0  0  0
   22.1772   21.5290   22.5974 H   0  0  0  0  0  0  0  0  0  0  0  0
   22.0131   20.5409   20.7192 C   0  0  0  0  0  0  0  0  0  0  0  0
   21.4833   20.7937   19.6550 O   0  5  0  0  0  0  0  0  0  0  0  0
   23.0314   19.8859   20.8251 O   0  0  0  0  0  0  0  0  0  0  0  0
  1  2  1  0  0  0  0
  1  3  1  0  0  0  0
  1  4  2  0  0  0  0
  4  5  1  0  0  0  0
  4  6  1  0  0  0  0
  6  7  1  0  0  0  0
  6  8  1  0  0  0  0
  6  9  1  0  0  0  0
  9 10  1  0  0  0  0
  9 11  1  0  0  0  0
  9 12  1  0  0  0  0
 12 13  1  0  0  0  0
 12 14  1  0  0  0  0
 12 15  1  0  0  0  0
 15 16  1  0  0  0  0
 15 17  1  0  0  0  0
 15 18  1  0  0  0  0
 18 19  1  0  0  0  0
 18 20  2  0  0  0  0
M  END
> <VConfSearch Rank>
330

> <Conf_Id>
81

> <Delta U+W>
-0.051

> <U+W>
-51.796

> <U>
9.412

> <W>
-61.209

> <W(PB)>
-63.452

> <W(SA)>
2.243

> <Valence>
9.329

> <Coulomb>
-0.323

> <VdW>
0.406

> <VdW6>
-6.640

> <VdW12>
7.046

> <Bond>
0.105

> <Angle>
2.401

> <Pdih>
6.823

> <Idih>
0.000

> <Tether>
0.000

$$$$
VeraChem MOL file


 20 19  0  0  0  0  0  0  0  0999 V2000     
   19.2755   16.5577   20.0398 C   0  0  0  0  0  0  0  0  0  0  0  0
   18.5316   16.8368   19.2954 H   0  0  0  0  0  0  0  0  0  0  0  0
   19.8925   15.6858   19.8293 H   0  0  0  0  0  0  0  0  0  0  0  0
   19.4301   17.2567   21.1672 C   0  0  0  0  0  0  0  0  0  0  0  0
   20.1791   16.9590   21.9005 H   0  0  0  0  0  0  0  0  0  0  0  0
   18.6069   18.4741   21.5300 C   0  0  0  0  0  0  0  0  0  0  0  0
   18.2857   18.4130   22.5779 H   0  0  0  0  0  0  0  0  0  0  0  0
   17.6840   18.4878   20.9348 H   0  0  0  0  0  0  0  0  0  0  0  0
   19.3693   19.7981   21.2840 C   0  0  0  0  0  0  0  0  0  0  0  0
   19.6039   19.8773   20.2137 H   0  0  0  0  0  0  0  0  0  0  0  0
   18.7024   20.6406   21.5124 H   0  0  0  0  0  0  0  0  0  0  0  0
   20.6818   19.9507   22.0953 C   0  0  0  0  0  0  0  0  0  0  0  0
   21.1526   20.9063   21.8262 H   0  0  0  0  0  0  0  0  0  0  0  0
   21.3911   19.1681   21.7953 H   0  0  0  0  0  0  0  0  0  0  0  0
   20.4939   19.9050   23.6363 C   0  0  0  0  0  0  0  0  0  0  0  0
   20.0951   18.9330   23.9481 H   0  0  0  0  0  0  0  0  0  0  0  0
   21.4697   20.0108   24.1243 H   0  0  0  0  0  0  0  0  0  0  0  0
   19.5892   21.0040   24.1863 C   0  0  0  0  0  0  0  0  0  0  0  0
   18.4869   20.6933   24.5931 O   0  5  0  0  0  0  0  0  0  0  0  0
   20.0188   22.1408   24.2092 O   0  0  0  0  0  0  0  0  0  0  0  0
  1  2  1  0  0  0  0
  1  3  1  0  0  0  0
  1  4  2  0  0  0  0
  4  5  1  0  0  0  0
  4  6  1  0  0  0  0
  6  7  1  0  0  0  0
  6  8  1  0  0  0  0
  6  9  1  0  0  0  0
  9 10  1  0  0  0  0
  9 11  1  0  0  0  0
  9 12  1  0  0  0  0
 12 13  1  0  0  0  0
 12 14  1  0  0  0  0
 12 15  1  0  0  0  0
 15 16  1  0  0  0  0
 15 17  1  0  0  0  0
 15 18  1  0  0  0  0
 18 19  1  0  0  0  0
 18 20  2  0  0  0  0
M  END
> <VConfSearch Rank>
331

> <Conf_Id>
86

> <Delta U+W>
1.248

> <U+W>
-50.498

> <U>
10.404

> <W>
-60.901

> <W(PB)>
-63.061

> <W(SA)>
2.159

> <Valence>
10.021

> <Coulomb>
0.094

> <VdW>
0.289

> <VdW6>
-8.409

> <VdW12>
8.698

> <Bond>
0.179

> <Angle>
2.939

> <Pdih>
6.902

> <Idih>
0.001

> <Tether>
0.000

$$$$
VeraChem MOL file


 20 19  0  0  0  0  0  0  0  0999 V2000     
   18.6513   16.8594   20.1223 C   0  0  0  0  0  0  0  0  0  0  0  0
   18.4935   15.7822   20.1244 H   0  0  0  0  0  0  0  0  0  0  0  0
   17.7789   17.4935   19.9733 H   0  0  0  0  0  0  0  0  0  0  0  0
   19.8689   17.3791   20.2998 C   0  0  0  0  0  0  0  0  0  0  0  0
   20.7288   16.7268   20.4496 H   0  0  0  0  0  0  0  0  0  0  0  0
   20.1656   18.8636   20.3098 C   0  0  0  0  0  0  0  0  0  0  0  0
   19.2968   19.4343   19.9548 H   0  0  0  0  0  0  0  0  0  0  0  0
   20.9814   19.0709   19.6046 H   0  0  0  0  0  0  0  0  0  0  0  0
   20.5776   19.3700   21.7105 C   0  0  0  0  0  0  0  0  0  0  0  0
   21.4441   18.7970   22.0680 H   0  0  0  0  0  0  0  0  0  0  0  0
   20.9071   20.4145   21.6248 H   0  0  0  0  0  0  0  0  0  0  0  0
   19.4272   19.2777   22.7409 C   0  0  0  0  0  0  0  0  0  0  0  0
   19.1014   18.2329   22.8326 H   0  0  0  0  0  0  0  0  0  0  0  0
   18.5594   19.8477   22.3812 H   0  0  0  0  0  0  0  0  0  0  0  0
   19.8389   19.7972   24.1429 C   0  0  0  0  0  0  0  0  0  0  0  0
   19.0333   19.5964   24.8588 H   0  0  0  0  0  0  0  0  0  0  0  0
   20.7241   19.2582   24.5015 H   0  0  0  0  0  0  0  0  0  0  0  0
   20.1280   21.2948   24.1895 C   0  0  0  0  0  0  0  0  0  0  0  0
   19.1843   22.0606   24.1814 O   0  5  0  0  0  0  0  0  0  0  0  0
   21.2871   21.6563   24.2443 O   0  0  0  0  0  0  0  0  0  0  0  0
  1  2  1  0  0  0  0
  1  3  1  0  0  0  0
  1  4  2  0  0  0  0
  4  5  1  0  0  0  0
  4  6  1  0  0  0  0
  6  7  1  0  0  0  0
  6  8  1  0  0  0  0
  6  9  1  0  0  0  0
  9 10  1  0  0  0  0
  9 11  1  0  0  0  0
  9 12  1  0  0  0  0
 12 13  1  0  0  0  0
 12 14  1  0  0  0  0
 12 15  1  0  0  0  0
 15 16  1  0  0  0  0
 15 17  1  0  0  0  0
 15 18  1  0  0  0  0
 18 19  1  0  0  0  0
 18 20  2  0  0  0  0
M  END
> <VConfSearch Rank>
332

> <Conf_Id>
28

> <Delta U+W>
0.446

> <U+W>
-51.299

> <U>
9.295

> <W>
-60.594

> <W(PB)>
-62.806

> <W(SA)>
2.212

> <Valence>
9.495

> <Coulomb>
-0.610

> <VdW>
0.409

> <VdW6>
-7.332

> <VdW12>
7.741

> <Bond>
0.126

> <Angle>
2.497

> <Pdih>
6.872

> <Idih>
0.000

> <Tether>
0.000

$$$$
VeraChem MOL file


 20 19  0  0  0  0  0  0  0  0999 V2000     
   19.8729   22.0626   20.7641 C   0  0  0  0  0  0  0  0  0  0  0  0
   19.0270   21.5141   20.3554 H   0  0  0  0  0  0  0  0  0  0  0  0
   19.9581   23.1119   20.4872 H   0  0  0  0  0  0  0  0  0  0  0  0
   20.7742   21.4941   21.5732 C   0  0  0  0  0  0  0  0  0  0  0  0
   21.5992   22.0962   21.9532 H   0  0  0  0  0  0  0  0  0  0  0  0
   20.7894   20.0494   22.0445 C   0  0  0  0  0  0  0  0  0  0  0  0
   20.6969   20.0412   23.1382 H   0  0  0  0  0  0  0  0  0  0  0  0
   21.7749   19.6185   21.8238 H   0  0  0  0  0  0  0  0  0  0  0  0
   19.6947   19.1477   21.4222 C   0  0  0  0  0  0  0  0  0  0  0  0
   18.7020   19.5194   21.7112 H   0  0  0  0  0  0  0  0  0  0  0  0
   19.7514   19.2201   20.3275 H   0  0  0  0  0  0  0  0  0  0  0  0
   19.8265   17.6555   21.8157 C   0  0  0  0  0  0  0  0  0  0  0  0
   20.8012   17.2772   21.4792 H   0  0  0  0  0  0  0  0  0  0  0  0
   19.0679   17.0781   21.2693 H   0  0  0  0  0  0  0  0  0  0  0  0
   19.6676   17.3730   23.3348 C   0  0  0  0  0  0  0  0  0  0  0  0
   19.7867   16.2988   23.5180 H   0  0  0  0  0  0  0  0  0  0  0  0
   20.4569   17.8738   23.9068 H   0  0  0  0  0  0  0  0  0  0  0  0
   18.3136   17.7825   23.9073 C   0  0  0  0  0  0  0  0  0  0  0  0
   17.3375   17.1307   23.5913 O   0  5  0  0  0  0  0  0  0  0  0  0
   18.2729   18.7280   24.6698 O   0  0  0  0  0  0  0  0  0  0  0  0
  1  2  1  0  0  0  0
  1  3  1  0  0  0  0
  1  4  2  0  0  0  0
  4  5  1  0  0  0  0
  4  6  1  0  0  0  0
  6  7  1  0  0  0  0
  6  8  1  0  0  0  0
  6  9  1  0  0  0  0
  9 10  1  0  0  0  0
  9 11  1  0  0  0  0
  9 12  1  0  0  0  0
 12 13  1  0  0  0  0
 12 14  1  0  0  0  0
 12 15  1  0  0  0  0
 15 16  1  0  0  0  0
 15 17  1  0  0  0  0
 15 18  1  0  0  0  0
 18 19  1  0  0  0  0
 18 20  2  0  0  0  0
M  END
> <VConfSearch Rank>
333

> <Conf_Id>
53

> <Delta U+W>
0.549

> <U+W>
-51.197

> <U>
10.870

> <W>
-62.067

> <W(PB)>
-64.228

> <W(SA)>
2.161

> <Valence>
8.803

> <Coulomb>
1.020

> <VdW>
1.048

> <VdW6>
-8.312

> <VdW12>
9.360

> <Bond>
0.212

> <Angle>
3.379

> <Pdih>
5.211

> <Idih>
0.001

> <Tether>
0.000

$$$$
VeraChem MOL file


 20 19  0  0  0  0  0  0  0  0999 V2000     
   20.6007   16.2719   21.5249 C   0  0  0  0  0  0  0  0  0  0  0  0
   19.7218   16.3052   20.8849 H   0  0  0  0  0  0  0  0  0  0  0  0
   20.8965   15.2968   21.9079 H   0  0  0  0  0  0  0  0  0  0  0  0
   21.3005   17.3697   21.8312 C   0  0  0  0  0  0  0  0  0  0  0  0
   22.1754   17.2805   22.4745 H   0  0  0  0  0  0  0  0  0  0  0  0
   20.9999   18.7877   21.3742 C   0  0  0  0  0  0  0  0  0  0  0  0
   21.6450   19.0257   20.5183 H   0  0  0  0  0  0  0  0  0  0  0  0
   21.3086   19.4890   22.1599 H   0  0  0  0  0  0  0  0  0  0  0  0
   19.5240   19.0789   20.9967 C   0  0  0  0  0  0  0  0  0  0  0  0
   19.4570   20.1075   20.6166 H   0  0  0  0  0  0  0  0  0  0  0  0
   19.2278   18.4353   20.1581 H   0  0  0  0  0  0  0  0  0  0  0  0
   18.5098   18.9068   22.1581 C   0  0  0  0  0  0  0  0  0  0  0  0
   18.5132   17.8638   22.4998 H   0  0  0  0  0  0  0  0  0  0  0  0
   17.4988   19.0976   21.7730 H   0  0  0  0  0  0  0  0  0  0  0  0
   18.7614   19.8368   23.3764 C   0  0  0  0  0  0  0  0  0  0  0  0
   18.0033   19.6419   24.1437 H   0  0  0  0  0  0  0  0  0  0  0  0
   19.7311   19.6157   23.8365 H   0  0  0  0  0  0  0  0  0  0  0  0
   18.7028   21.3257   23.0477 C   0  0  0  0  0  0  0  0  0  0  0  0
   19.7413   21.9571   23.0464 O   0  5  0  0  0  0  0  0  0  0  0  0
   17.6157   21.8191   22.8191 O   0  0  0  0  0  0  0  0  0  0  0  0
  1  2  1  0  0  0  0
  1  3  1  0  0  0  0
  1  4  2  0  0  0  0
  4  5  1  0  0  0  0
  4  6  1  0  0  0  0
  6  7  1  0  0  0  0
  6  8  1  0  0  0  0
  6  9  1  0  0  0  0
  9 10  1  0  0  0  0
  9 11  1  0  0  0  0
  9 12  1  0  0  0  0
 12 13  1  0  0  0  0
 12 14  1  0  0  0  0
 12 15  1  0  0  0  0
 15 16  1  0  0  0  0
 15 17  1  0  0  0  0
 15 18  1  0  0  0  0
 18 19  1  0  0  0  0
 18 20  2  0  0  0  0
M  END
> <VConfSearch Rank>
334

> <Conf_Id>
66

> <Delta U+W>
1.737

> <U+W>
-50.008

> <U>
11.091

> <W>
-61.099

> <W(PB)>
-63.213

> <W(SA)>
2.114

> <Valence>
9.664

> <Coulomb>
0.658

> <VdW>
0.769

> <VdW6>
-9.171

> <VdW12>
9.940

> <Bond>
0.244

> <Angle>
3.658

> <Pdih>
5.762

> <Idih>
0.001

> <Tether>
0.000

$$$$
VeraChem MOL file


 20 19  0  0  0  0  0  0  0  0999 V2000     
   20.8549   17.3018   20.3493 C   0  0  0  0  0  0  0  0  0  0  0  0
   20.8894   18.2152   19.7597 H   0  0  0  0  0  0  0  0  0  0  0  0
   21.7111   16.6337   20.2749 H   0  0  0  0  0  0  0  0  0  0  0  0
   19.8132   16.9960   21.1305 C   0  0  0  0  0  0  0  0  0  0  0  0
   19.8301   16.0660   21.6980 H   0  0  0  0  0  0  0  0  0  0  0  0
   18.5600   17.8316   21.3351 C   0  0  0  0  0  0  0  0  0  0  0  0
   18.2150   17.7070   22.3691 H   0  0  0  0  0  0  0  0  0  0  0  0
   17.7546   17.4112   20.7184 H   0  0  0  0  0  0  0  0  0  0  0  0
   18.6970   19.3461   21.0288 C   0  0  0  0  0  0  0  0  0  0  0  0
   18.9859   19.4809   19.9782 H   0  0  0  0  0  0  0  0  0  0  0  0
   17.7086   19.8154   21.1265 H   0  0  0  0  0  0  0  0  0  0  0  0
   19.6979   20.1031   21.9386 C   0  0  0  0  0  0  0  0  0  0  0  0
   19.7798   21.1392   21.5822 H   0  0  0  0  0  0  0  0  0  0  0  0
   20.7010   19.6663   21.8456 H   0  0  0  0  0  0  0  0  0  0  0  0
   19.2842   20.1233   23.4330 C   0  0  0  0  0  0  0  0  0  0  0  0
   18.2638   20.5103   23.5389 H   0  0  0  0  0  0  0  0  0  0  0  0
   19.2940   19.1093   23.8486 H   0  0  0  0  0  0  0  0  0  0  0  0
   20.2065   20.9845   24.2886 C   0  0  0  0  0  0  0  0  0  0  0  0
   21.1638   20.4534   24.8161 O   0  5  0  0  0  0  0  0  0  0  0  0
   19.9513   22.1680   24.3935 O   0  0  0  0  0  0  0  0  0  0  0  0
  1  2  1  0  0  0  0
  1  3  1  0  0  0  0
  1  4  2  0  0  0  0
  4  5  1  0  0  0  0
  4  6  1  0  0  0  0
  6  7  1  0  0  0  0
  6  8  1  0  0  0  0
  6  9  1  0  0  0  0
  9 10  1  0  0  0  0
  9 11  1  0  0  0  0
  9 12  1  0  0  0  0
 12 13  1  0  0  0  0
 12 14  1  0  0  0  0
 12 15  1  0  0  0  0
 15 16  1  0  0  0  0
 15 17  1  0  0  0  0
 15 18  1  0  0  0  0
 18 19  1  0  0  0  0
 18 20  2  0  0  0  0
M  END
> <VConfSearch Rank>
335

> <Conf_Id>
64

> <Delta U+W>
0.366

> <U+W>
-51.379

> <U>
10.000

> <W>
-61.379

> <W(PB)>
-63.541

> <W(SA)>
2.162

> <Valence>
9.398

> <Coulomb>
-0.504

> <VdW>
1.105

> <VdW6>
-7.975

> <VdW12>
9.080

> <Bond>
0.216

> <Angle>
3.417

> <Pdih>
5.765

> <Idih>
0.001

> <Tether>
0.000

$$$$
VeraChem MOL file


 20 19  0  0  0  0  0  0  0  0999 V2000     
   19.1860   21.8238   22.9788 C   0  0  0  0  0  0  0  0  0  0  0  0
   18.9798   22.0918   21.9438 H   0  0  0  0  0  0  0  0  0  0  0  0
   19.6791   22.5689   23.6007 H   0  0  0  0  0  0  0  0  0  0  0  0
   18.8521   20.6270   23.4689 C   0  0  0  0  0  0  0  0  0  0  0  0
   19.0697   20.3778   24.5072 H   0  0  0  0  0  0  0  0  0  0  0  0
   18.1664   19.5417   22.6666 C   0  0  0  0  0  0  0  0  0  0  0  0
   17.8039   19.9394   21.7089 H   0  0  0  0  0  0  0  0  0  0  0  0
   17.2793   19.1969   23.2143 H   0  0  0  0  0  0  0  0  0  0  0  0
   19.0924   18.3324   22.4056 C   0  0  0  0  0  0  0  0  0  0  0  0
   19.4554   17.9352   23.3635 H   0  0  0  0  0  0  0  0  0  0  0  0
   18.5058   17.5316   21.9350 H   0  0  0  0  0  0  0  0  0  0  0  0
   20.2919   18.6850   21.4965 C   0  0  0  0  0  0  0  0  0  0  0  0
   20.9022   19.4669   21.9690 H   0  0  0  0  0  0  0  0  0  0  0  0
   19.9269   19.0979   20.5460 H   0  0  0  0  0  0  0  0  0  0  0  0
   21.1811   17.4498   21.2108 C   0  0  0  0  0  0  0  0  0  0  0  0
   21.5635   17.0335   22.1505 H   0  0  0  0  0  0  0  0  0  0  0  0
   20.5924   16.6635   20.7233 H   0  0  0  0  0  0  0  0  0  0  0  0
   22.3722   17.7724   20.3156 C   0  0  0  0  0  0  0  0  0  0  0  0
   22.2215   17.6990   19.1120 O   0  5  0  0  0  0  0  0  0  0  0  0
   23.4153   18.1021   20.8449 O   0  0  0  0  0  0  0  0  0  0  0  0
  1  2  1  0  0  0  0
  1  3  1  0  0  0  0
  1  4  2  0  0  0  0
  4  5  1  0  0  0  0
  4  6  1  0  0  0  0
  6  7  1  0  0  0  0
  6  8  1  0  0  0  0
  6  9  1  0  0  0  0
  9 10  1  0  0  0  0
  9 11  1  0  0  0  0
  9 12  1  0  0  0  0
 12 13  1  0  0  0  0
 12 14  1  0  0  0  0
 12 15  1  0  0  0  0
 15 16  1  0  0  0  0
 15 17  1  0  0  0  0
 15 18  1  0  0  0  0
 18 19  1  0  0  0  0
 18 20  2  0  0  0  0
M  END
> <VConfSearch Rank>
336

> <Conf_Id>
42

> <Delta U+W>
-0.601

> <U+W>
-52.347

> <U>
8.428

> <W>
-60.774

> <W(PB)>
-62.982

> <W(SA)>
2.208

> <Valence>
9.231

> <Coulomb>
-1.304

> <VdW>
0.501

> <VdW6>
-6.515

> <VdW12>
7.016

> <Bond>
0.103

> <Angle>
2.328

> <Pdih>
6.799

> <Idih>
0.000

> <Tether>
0.000

$$$$
VeraChem MOL file


 20 19  0  0  0  0  0  0  0  0999 V2000     
   18.6775   16.7656   20.6522 C   0  0  0  0  0  0  0  0  0  0  0  0
   18.1821   17.3262   19.8612 H   0  0  0  0  0  0  0  0  0  0  0  0
   18.1851   15.8634   21.0110 H   0  0  0  0  0  0  0  0  0  0  0  0
   19.8421   17.1679   21.1679 C   0  0  0  0  0  0  0  0  0  0  0  0
   20.3200   16.5939   21.9613 H   0  0  0  0  0  0  0  0  0  0  0  0
   20.5845   18.4098   20.7224 C   0  0  0  0  0  0  0  0  0  0  0  0
   20.1435   18.8145   19.8013 H   0  0  0  0  0  0  0  0  0  0  0  0
   21.6203   18.1401   20.4773 H   0  0  0  0  0  0  0  0  0  0  0  0
   20.5996   19.5052   21.8122 C   0  0  0  0  0  0  0  0  0  0  0  0
   21.0473   19.1003   22.7304 H   0  0  0  0  0  0  0  0  0  0  0  0
   21.2510   20.3260   21.4823 H   0  0  0  0  0  0  0  0  0  0  0  0
   19.1897   20.0654   22.1150 C   0  0  0  0  0  0  0  0  0  0  0  0
   18.5384   19.2621   22.4864 H   0  0  0  0  0  0  0  0  0  0  0  0
   18.7382   20.4315   21.1832 H   0  0  0  0  0  0  0  0  0  0  0  0
   19.2167   21.2198   23.1500 C   0  0  0  0  0  0  0  0  0  0  0  0
   19.8815   22.0216   22.8067 H   0  0  0  0  0  0  0  0  0  0  0  0
   18.2144   21.6550   23.2395 H   0  0  0  0  0  0  0  0  0  0  0  0
   19.6546   20.7893   24.5471 C   0  0  0  0  0  0  0  0  0  0  0  0
   20.7852   21.0565   24.9040 O   0  5  0  0  0  0  0  0  0  0  0  0
   18.8461   20.2136   25.2485 O   0  0  0  0  0  0  0  0  0  0  0  0
  1  2  1  0  0  0  0
  1  3  1  0  0  0  0
  1  4  2  0  0  0  0
  4  5  1  0  0  0  0
  4  6  1  0  0  0  0
  6  7  1  0  0  0  0
  6  8  1  0  0  0  0
  6  9  1  0  0  0  0
  9 10  1  0  0  0  0
  9 11  1  0  0  0  0
  9 12  1  0  0  0  0
 12 13  1  0  0  0  0
 12 14  1  0  0  0  0
 12 15  1  0  0  0  0
 15 16  1  0  0  0  0
 15 17  1  0  0  0  0
 15 18  1  0  0  0  0
 18 19  1  0  0  0  0
 18 20  2  0  0  0  0
M  END
> <VConfSearch Rank>
337

> <Conf_Id>
68

> <Delta U+W>
0.492

> <U+W>
-51.253

> <U>
10.179

> <W>
-61.432

> <W(PB)>
-63.627

> <W(SA)>
2.195

> <Valence>
9.483

> <Coulomb>
0.361

> <VdW>
0.335

> <VdW6>
-7.385

> <VdW12>
7.720

> <Bond>
0.125

> <Angle>
2.487

> <Pdih>
6.870

> <Idih>
0.001

> <Tether>
0.000

$$$$
VeraChem MOL file


 20 19  0  0  0  0  0  0  0  0999 V2000     
   16.6742   19.4945   23.1995 C   0  0  0  0  0  0  0  0  0  0  0  0
   16.7285   20.3733   23.8401 H   0  0  0  0  0  0  0  0  0  0  0  0
   15.9751   18.7098   23.4835 H   0  0  0  0  0  0  0  0  0  0  0  0
   17.4362   19.3784   22.1089 C   0  0  0  0  0  0  0  0  0  0  0  0
   17.3640   18.4914   21.4801 H   0  0  0  0  0  0  0  0  0  0  0  0
   18.4244   20.4292   21.6495 C   0  0  0  0  0  0  0  0  0  0  0  0
   18.1839   21.3936   22.1172 H   0  0  0  0  0  0  0  0  0  0  0  0
   18.3316   20.5816   20.5659 H   0  0  0  0  0  0  0  0  0  0  0  0
   19.8828   20.0586   22.0012 C   0  0  0  0  0  0  0  0  0  0  0  0
   20.5325   20.9117   21.7625 H   0  0  0  0  0  0  0  0  0  0  0  0
   19.9652   19.8965   23.0850 H   0  0  0  0  0  0  0  0  0  0  0  0
   20.3861   18.8089   21.2405 C   0  0  0  0  0  0  0  0  0  0  0  0
   20.2528   18.9635   20.1613 H   0  0  0  0  0  0  0  0  0  0  0  0
   19.7805   17.9336   21.5125 H   0  0  0  0  0  0  0  0  0  0  0  0
   21.8793   18.5011   21.5242 C   0  0  0  0  0  0  0  0  0  0  0  0
   22.2142   17.6829   20.8760 H   0  0  0  0  0  0  0  0  0  0  0  0
   22.4991   19.3726   21.2812 H   0  0  0  0  0  0  0  0  0  0  0  0
   22.1639   18.0881   22.9655 C   0  0  0  0  0  0  0  0  0  0  0  0
   21.8872   16.9532   23.3008 O   0  5  0  0  0  0  0  0  0  0  0  0
   22.6720   18.9044   23.7088 O   0  0  0  0  0  0  0  0  0  0  0  0
  1  2  1  0  0  0  0
  1  3  1  0  0  0  0
  1  4  2  0  0  0  0
  4  5  1  0  0  0  0
  4  6  1  0  0  0  0
  6  7  1  0  0  0  0
  6  8  1  0  0  0  0
  6  9  1  0  0  0  0
  9 10  1  0  0  0  0
  9 11  1  0  0  0  0
  9 12  1  0  0  0  0
 12 13  1  0  0  0  0
 12 14  1  0  0  0  0
 12 15  1  0  0  0  0
 15 16  1  0  0  0  0
 15 17  1  0  0  0  0
 15 18  1  0  0  0  0
 18 19  1  0  0  0  0
 18 20  2  0  0  0  0
M  END
> <VConfSearch Rank>
338

> <Conf_Id>
87

> <Delta U+W>
0.339

> <U+W>
-51.407

> <U>
10.461

> <W>
-61.867

> <W(PB)>
-64.045

> <W(SA)>
2.178

> <Valence>
9.555

> <Coulomb>
0.483

> <VdW>
0.423

> <VdW6>
-7.223

> <VdW12>
7.646

> <Bond>
0.126

> <Angle>
2.492

> <Pdih>
6.936

> <Idih>
0.001

> <Tether>
0.000

$$$$
VeraChem MOL file


 20 19  0  0  0  0  0  0  0  0999 V2000     
   21.0924   20.9976   23.1583 C   0  0  0  0  0  0  0  0  0  0  0  0
   20.3823   21.4526   23.8469 H   0  0  0  0  0  0  0  0  0  0  0  0
   22.1335   20.9456   23.4721 H   0  0  0  0  0  0  0  0  0  0  0  0
   20.7029   20.5185   21.9740 C   0  0  0  0  0  0  0  0  0  0  0  0
   21.4300   20.0749   21.2948 H   0  0  0  0  0  0  0  0  0  0  0  0
   19.2768   20.5689   21.4688 C   0  0  0  0  0  0  0  0  0  0  0  0
   19.2553   20.4482   20.3775 H   0  0  0  0  0  0  0  0  0  0  0  0
   18.8734   21.5714   21.6654 H   0  0  0  0  0  0  0  0  0  0  0  0
   18.3460   19.5260   22.1360 C   0  0  0  0  0  0  0  0  0  0  0  0
   18.5070   19.5196   23.2228 H   0  0  0  0  0  0  0  0  0  0  0  0
   17.3088   19.8561   21.9874 H   0  0  0  0  0  0  0  0  0  0  0  0
   18.4668   18.0880   21.5716 C   0  0  0  0  0  0  0  0  0  0  0  0
   18.3190   18.1003   20.4830 H   0  0  0  0  0  0  0  0  0  0  0  0
   17.6467   17.4853   21.9861 H   0  0  0  0  0  0  0  0  0  0  0  0
   19.8067   17.3832   21.9050 C   0  0  0  0  0  0  0  0  0  0  0  0
   20.6375   17.8701   21.3847 H   0  0  0  0  0  0  0  0  0  0  0  0
   20.0116   17.4461   22.9803 H   0  0  0  0  0  0  0  0  0  0  0  0
   19.8146   15.9120   21.5058 C   0  0  0  0  0  0  0  0  0  0  0  0
   20.1697   15.6246   20.3797 O   0  5  0  0  0  0  0  0  0  0  0  0
   19.4455   15.0933   22.3245 O   0  0  0  0  0  0  0  0  0  0  0  0
  1  2  1  0  0  0  0
  1  3  1  0  0  0  0
  1  4  2  0  0  0  0
  4  5  1  0  0  0  0
  4  6  1  0  0  0  0
  6  7  1  0  0  0  0
  6  8  1  0  0  0  0
  6  9  1  0  0  0  0
  9 10  1  0  0  0  0
  9 11  1  0  0  0  0
  9 12  1  0  0  0  0
 12 13  1  0  0  0  0
 12 14  1  0  0  0  0
 12 15  1  0  0  0  0
 15 16  1  0  0  0  0
 15 17  1  0  0  0  0
 15 18  1  0  0  0  0
 18 19  1  0  0  0  0
 18 20  2  0  0  0  0
M  END
> <VConfSearch Rank>
339

> <Conf_Id>
51

> <Delta U+W>
1.709

> <U+W>
-50.036

> <U>
10.643

> <W>
-60.679

> <W(PB)>
-62.882

> <W(SA)>
2.203

> <Valence>
11.231

> <Coulomb>
-1.077

> <VdW>
0.489

> <VdW6>
-7.546

> <VdW12>
8.035

> <Bond>
0.159

> <Angle>
3.005

> <Pdih>
8.065

> <Idih>
0.002

> <Tether>
0.000

$$$$
VeraChem MOL file


 20 19  0  0  0  0  0  0  0  0999 V2000     
   21.1569   21.0232   20.5534 C   0  0  0  0  0  0  0  0  0  0  0  0
   20.9065   21.9570   21.0542 H   0  0  0  0  0  0  0  0  0  0  0  0
   21.3272   21.0596   19.4789 H   0  0  0  0  0  0  0  0  0  0  0  0
   21.2495   19.8750   21.2293 C   0  0  0  0  0  0  0  0  0  0  0  0
   21.5101   18.9525   20.7118 H   0  0  0  0  0  0  0  0  0  0  0  0
   21.0384   19.7536   22.7234 C   0  0  0  0  0  0  0  0  0  0  0  0
   21.5780   20.5721   23.2185 H   0  0  0  0  0  0  0  0  0  0  0  0
   21.4940   18.8272   23.0979 H   0  0  0  0  0  0  0  0  0  0  0  0
   19.5498   19.8208   23.1462 C   0  0  0  0  0  0  0  0  0  0  0  0
   19.5139   20.0778   24.2136 H   0  0  0  0  0  0  0  0  0  0  0  0
   19.0469   20.6445   22.6212 H   0  0  0  0  0  0  0  0  0  0  0  0
   18.7566   18.5037   22.9532 C   0  0  0  0  0  0  0  0  0  0  0  0
   17.7810   18.6139   23.4468 H   0  0  0  0  0  0  0  0  0  0  0  0
   19.2698   17.6797   23.4677 H   0  0  0  0  0  0  0  0  0  0  0  0
   18.5127   18.1181   21.4717 C   0  0  0  0  0  0  0  0  0  0  0  0
   18.0857   18.9665   20.9238 H   0  0  0  0  0  0  0  0  0  0  0  0
   19.4556   17.8542   20.9824 H   0  0  0  0  0  0  0  0  0  0  0  0
   17.5686   16.9311   21.3188 C   0  0  0  0  0  0  0  0  0  0  0  0
   18.0457   15.8134   21.3263 O   0  5  0  0  0  0  0  0  0  0  0  0
   16.3783   17.1539   21.2168 O   0  0  0  0  0  0  0  0  0  0  0  0
  1  2  1  0  0  0  0
  1  3  1  0  0  0  0
  1  4  2  0  0  0  0
  4  5  1  0  0  0  0
  4  6  1  0  0  0  0
  6  7  1  0  0  0  0
  6  8  1  0  0  0  0
  6  9  1  0  0  0  0
  9 10  1  0  0  0  0
  9 11  1  0  0  0  0
  9 12  1  0  0  0  0
 12 13  1  0  0  0  0
 12 14  1  0  0  0  0
 12 15  1  0  0  0  0
 15 16  1  0  0  0  0
 15 17  1  0  0  0  0
 15 18  1  0  0  0  0
 18 19  1  0  0  0  0
 18 20  2  0  0  0  0
M  END
> <VConfSearch Rank>
340

> <Conf_Id>
91

> <Delta U+W>
1.604

> <U+W>
-50.141

> <U>
10.644

> <W>
-60.786

> <W(PB)>
-62.965

> <W(SA)>
2.179

> <Valence>
11.230

> <Coulomb>
-1.075

> <VdW>
0.489

> <VdW6>
-7.547

> <VdW12>
8.036

> <Bond>
0.159

> <Angle>
3.006

> <Pdih>
8.064

> <Idih>
0.002

> <Tether>
0.000

$$$$
VeraChem MOL file


 20 19  0  0  0  0  0  0  0  0999 V2000     
   17.4031   19.4432   19.1124 C   0  0  0  0  0  0  0  0  0  0  0  0
   17.8618   18.5841   18.6255 H   0  0  0  0  0  0  0  0  0  0  0  0
   16.8278   20.1248   18.4882 H   0  0  0  0  0  0  0  0  0  0  0  0
   17.5406   19.6577   20.4235 C   0  0  0  0  0  0  0  0  0  0  0  0
   17.0740   20.5243   20.8913 H   0  0  0  0  0  0  0  0  0  0  0  0
   18.3224   18.7560   21.3526 C   0  0  0  0  0  0  0  0  0  0  0  0
   18.5300   17.7943   20.8637 H   0  0  0  0  0  0  0  0  0  0  0  0
   17.7191   18.5340   22.2430 H   0  0  0  0  0  0  0  0  0  0  0  0
   19.6518   19.4132   21.7787 C   0  0  0  0  0  0  0  0  0  0  0  0
   20.2495   19.6370   20.8843 H   0  0  0  0  0  0  0  0  0  0  0  0
   19.4435   20.3728   22.2716 H   0  0  0  0  0  0  0  0  0  0  0  0
   20.4621   18.5064   22.7307 C   0  0  0  0  0  0  0  0  0  0  0  0
   20.6712   17.5466   22.2382 H   0  0  0  0  0  0  0  0  0  0  0  0
   19.8644   18.2812   23.6249 H   0  0  0  0  0  0  0  0  0  0  0  0
   21.7994   19.1675   23.1585 C   0  0  0  0  0  0  0  0  0  0  0  0
   22.4038   19.3892   22.2712 H   0  0  0  0  0  0  0  0  0  0  0  0
   21.5979   20.1231   23.6566 H   0  0  0  0  0  0  0  0  0  0  0  0
   22.6659   18.3343   24.1041 C   0  0  0  0  0  0  0  0  0  0  0  0
   23.7205   18.8197   24.4622 O   0  5  0  0  0  0  0  0  0  0  0  0
   22.2842   17.2365   24.4618 O   0  0  0  0  0  0  0  0  0  0  0  0
  1  2  1  0  0  0  0
  1  3  1  0  0  0  0
  1  4  2  0  0  0  0
  4  5  1  0  0  0  0
  4  6  1  0  0  0  0
  6  7  1  0  0  0  0
  6  8  1  0  0  0  0
  6  9  1  0  0  0  0
  9 10  1  0  0  0  0
  9 11  1  0  0  0  0
  9 12  1  0  0  0  0
 12 13  1  0  0  0  0
 12 14  1  0  0  0  0
 12 15  1  0  0  0  0
 15 16  1  0  0  0  0
 15 17  1  0  0  0  0
 15 18  1  0  0  0  0
 18 19  1  0  0  0  0
 18 20  2  0  0  0  0
M  END
> <VConfSearch Rank>
341

> <Conf_Id>
33

> <Delta U+W>
0.000

> <U+W>
-51.745

> <U>
7.593

> <W>
-59.338

> <W(PB)>
-61.574

> <W(SA)>
2.236

> <Valence>
9.570

> <Coulomb>
-3.091

> <VdW>
1.114

> <VdW6>
-6.064

> <VdW12>
7.178

> <Bond>
0.117

> <Angle>
2.692

> <Pdih>
6.761

> <Idih>
0.000

> <Tether>
0.000

$$$$
VeraChem MOL file


 20 19  0  0  0  0  0  0  0  0999 V2000     
   16.5721   17.7842   23.2134 C   0  0  0  0  0  0  0  0  0  0  0  0
   17.1087   16.9858   23.7235 H   0  0  0  0  0  0  0  0  0  0  0  0
   15.4852   17.7240   23.1933 H   0  0  0  0  0  0  0  0  0  0  0  0
   17.2180   18.7983   22.6319 C   0  0  0  0  0  0  0  0  0  0  0  0
   16.6619   19.5870   22.1257 H   0  0  0  0  0  0  0  0  0  0  0  0
   18.7229   18.9494   22.6196 C   0  0  0  0  0  0  0  0  0  0  0  0
   19.1784   18.2721   23.3547 H   0  0  0  0  0  0  0  0  0  0  0  0
   18.9844   19.9707   22.9242 H   0  0  0  0  0  0  0  0  0  0  0  0
   19.2991   18.6498   21.2175 C   0  0  0  0  0  0  0  0  0  0  0  0
   18.9541   17.6566   20.8984 H   0  0  0  0  0  0  0  0  0  0  0  0
   18.8942   19.3670   20.4905 H   0  0  0  0  0  0  0  0  0  0  0  0
   20.8454   18.6746   21.1675 C   0  0  0  0  0  0  0  0  0  0  0  0
   21.1709   18.3424   20.1719 H   0  0  0  0  0  0  0  0  0  0  0  0
   21.2519   17.9481   21.8848 H   0  0  0  0  0  0  0  0  0  0  0  0
   21.4515   20.0742   21.4482 C   0  0  0  0  0  0  0  0  0  0  0  0
   21.0212   20.8169   20.7658 H   0  0  0  0  0  0  0  0  0  0  0  0
   21.2207   20.3977   22.4694 H   0  0  0  0  0  0  0  0  0  0  0  0
   22.9668   20.1035   21.2843 C   0  0  0  0  0  0  0  0  0  0  0  0
   23.6538   19.8388   22.2511 O   0  5  0  0  0  0  0  0  0  0  0  0
   23.4202   20.3709   20.1891 O   0  0  0  0  0  0  0  0  0  0  0  0
  1  2  1  0  0  0  0
  1  3  1  0  0  0  0
  1  4  2  0  0  0  0
  4  5  1  0  0  0  0
  4  6  1  0  0  0  0
  6  7  1  0  0  0  0
  6  8  1  0  0  0  0
  6  9  1  0  0  0  0
  9 10  1  0  0  0  0
  9 11  1  0  0  0  0
  9 12  1  0  0  0  0
 12 13  1  0  0  0  0
 12 14  1  0  0  0  0
 12 15  1  0  0  0  0
 15 16  1  0  0  0  0
 15 17  1  0  0  0  0
 15 18  1  0  0  0  0
 18 19  1  0  0  0  0
 18 20  2  0  0  0  0
M  END
> <VConfSearch Rank>
342

> <Conf_Id>
37

> <Delta U+W>
-0.384

> <U+W>
-52.130

> <U>
7.491

> <W>
-59.621

> <W(PB)>
-61.853

> <W(SA)>
2.232

> <Valence>
9.604

> <Coulomb>
-2.799

> <VdW>
0.686

> <VdW6>
-6.435

> <VdW12>
7.121

> <Bond>
0.124

> <Angle>
2.493

> <Pdih>
6.986

> <Idih>
0.001

> <Tether>
0.000

$$$$
VeraChem MOL file


 20 19  0  0  0  0  0  0  0  0999 V2000     
   22.2664   20.2125   19.9954 C   0  0  0  0  0  0  0  0  0  0  0  0
   23.0819   20.5864   19.3786 H   0  0  0  0  0  0  0  0  0  0  0  0
   21.4132   20.8731   20.1340 H   0  0  0  0  0  0  0  0  0  0  0  0
   22.3300   18.9957   20.5477 C   0  0  0  0  0  0  0  0  0  0  0  0
   23.2116   18.3796   20.3725 H   0  0  0  0  0  0  0  0  0  0  0  0
   21.2776   18.3409   21.4269 C   0  0  0  0  0  0  0  0  0  0  0  0
   21.7372   18.0738   22.3879 H   0  0  0  0  0  0  0  0  0  0  0  0
   20.9767   17.3896   20.9680 H   0  0  0  0  0  0  0  0  0  0  0  0
   20.0175   19.1988   21.6884 C   0  0  0  0  0  0  0  0  0  0  0  0
   20.3097   20.1437   22.1667 H   0  0  0  0  0  0  0  0  0  0  0  0
   19.5410   19.4521   20.7314 H   0  0  0  0  0  0  0  0  0  0  0  0
   19.0006   18.4626   22.5878 C   0  0  0  0  0  0  0  0  0  0  0  0
   19.4714   18.2062   23.5470 H   0  0  0  0  0  0  0  0  0  0  0  0
   18.7043   17.5160   22.1147 H   0  0  0  0  0  0  0  0  0  0  0  0
   17.7379   19.3195   22.8511 C   0  0  0  0  0  0  0  0  0  0  0  0
   18.0150   20.2634   23.3359 H   0  0  0  0  0  0  0  0  0  0  0  0
   17.2479   19.5732   21.9034 H   0  0  0  0  0  0  0  0  0  0  0  0
   16.7179   18.6137   23.7374 C   0  0  0  0  0  0  0  0  0  0  0  0
   16.8058   18.7588   24.9407 O   0  5  0  0  0  0  0  0  0  0  0  0
   15.8746   17.9216   23.2022 O   0  0  0  0  0  0  0  0  0  0  0  0
  1  2  1  0  0  0  0
  1  3  1  0  0  0  0
  1  4  2  0  0  0  0
  4  5  1  0  0  0  0
  4  6  1  0  0  0  0
  6  7  1  0  0  0  0
  6  8  1  0  0  0  0
  6  9  1  0  0  0  0
  9 10  1  0  0  0  0
  9 11  1  0  0  0  0
  9 12  1  0  0  0  0
 12 13  1  0  0  0  0
 12 14  1  0  0  0  0
 12 15  1  0  0  0  0
 15 16  1  0  0  0  0
 15 17  1  0  0  0  0
 15 18  1  0  0  0  0
 18 19  1  0  0  0  0
 18 20  2  0  0  0  0
M  END
> <VConfSearch Rank>
343

> <Conf_Id>
44

> <Delta U+W>
-1.440

> <U+W>
-53.185

> <U>
6.572

> <W>
-59.757

> <W(PB)>
-62.007

> <W(SA)>
2.249

> <Valence>
7.989

> <Coulomb>
-2.697

> <VdW>
1.281

> <VdW6>
-6.467

> <VdW12>
7.748

> <Bond>
0.136

> <Angle>
2.854

> <Pdih>
4.997

> <Idih>
0.001

> <Tether>
0.000

$$$$
VeraChem MOL file


 20 19  0  0  0  0  0  0  0  0999 V2000     
   19.5104   15.6621   21.3574 C   0  0  0  0  0  0  0  0  0  0  0  0
   20.5847   15.7719   21.2185 H   0  0  0  0  0  0  0  0  0  0  0  0
   19.0549   14.7309   21.0247 H   0  0  0  0  0  0  0  0  0  0  0  0
   18.7759   16.6303   21.9113 C   0  0  0  0  0  0  0  0  0  0  0  0
   17.7017   16.5004   22.0407 H   0  0  0  0  0  0  0  0  0  0  0  0
   19.3377   17.9477   22.3977 C   0  0  0  0  0  0  0  0  0  0  0  0
   20.4301   17.8798   22.4789 H   0  0  0  0  0  0  0  0  0  0  0  0
   18.9570   18.1587   23.4059 H   0  0  0  0  0  0  0  0  0  0  0  0
   18.9506   19.1016   21.4455 C   0  0  0  0  0  0  0  0  0  0  0  0
   19.3783   18.9163   20.4506 H   0  0  0  0  0  0  0  0  0  0  0  0
   17.8594   19.1062   21.3177 H   0  0  0  0  0  0  0  0  0  0  0  0
   19.3933   20.4952   21.9518 C   0  0  0  0  0  0  0  0  0  0  0  0
   18.9584   20.6859   22.9427 H   0  0  0  0  0  0  0  0  0  0  0  0
   18.9814   21.2610   21.2800 H   0  0  0  0  0  0  0  0  0  0  0  0
   20.9329   20.6689   22.0197 C   0  0  0  0  0  0  0  0  0  0  0  0
   21.3681   19.9795   22.7518 H   0  0  0  0  0  0  0  0  0  0  0  0
   21.3831   20.4382   21.0469 H   0  0  0  0  0  0  0  0  0  0  0  0
   21.3495   22.0824   22.4102 C   0  0  0  0  0  0  0  0  0  0  0  0
   21.5191   22.8960   21.5235 O   0  5  0  0  0  0  0  0  0  0  0  0
   21.4740   22.3383   23.5916 O   0  0  0  0  0  0  0  0  0  0  0  0
  1  2  1  0  0  0  0
  1  3  1  0  0  0  0
  1  4  2  0  0  0  0
  4  5  1  0  0  0  0
  4  6  1  0  0  0  0
  6  7  1  0  0  0  0
  6  8  1  0  0  0  0
  6  9  1  0  0  0  0
  9 10  1  0  0  0  0
  9 11  1  0  0  0  0
  9 12  1  0  0  0  0
 12 13  1  0  0  0  0
 12 14  1  0  0  0  0
 12 15  1  0  0  0  0
 15 16  1  0  0  0  0
 15 17  1  0  0  0  0
 15 18  1  0  0  0  0
 18 19  1  0  0  0  0
 18 20  2  0  0  0  0
M  END
> <VConfSearch Rank>
344

> <Conf_Id>
38

> <Delta U+W>
-0.381

> <U+W>
-52.126

> <U>
7.601

> <W>
-59.727

> <W(PB)>
-61.964

> <W(SA)>
2.236

> <Valence>
9.602

> <Coulomb>
-2.686

> <VdW>
0.685

> <VdW6>
-6.453

> <VdW12>
7.139

> <Bond>
0.125

> <Angle>
2.485

> <Pdih>
6.991

> <Idih>
0.001

> <Tether>
0.000

$$$$
VeraChem MOL file


 20 19  0  0  0  0  0  0  0  0999 V2000     
   22.4763   19.6597   19.8243 C   0  0  0  0  0  0  0  0  0  0  0  0
   23.1197   20.0492   20.6116 H   0  0  0  0  0  0  0  0  0  0  0  0
   22.9600   19.2414   18.9432 H   0  0  0  0  0  0  0  0  0  0  0  0
   21.1455   19.6897   19.9321 C   0  0  0  0  0  0  0  0  0  0  0  0
   20.5194   19.2937   19.1329 H   0  0  0  0  0  0  0  0  0  0  0  0
   20.4039   20.2546   21.1232 C   0  0  0  0  0  0  0  0  0  0  0  0
   19.6150   20.9350   20.7758 H   0  0  0  0  0  0  0  0  0  0  0  0
   21.0840   20.8509   21.7466 H   0  0  0  0  0  0  0  0  0  0  0  0
   19.7786   19.1299   21.9747 C   0  0  0  0  0  0  0  0  0  0  0  0
   19.0971   18.5365   21.3495 H   0  0  0  0  0  0  0  0  0  0  0  0
   20.5701   18.4487   22.3163 H   0  0  0  0  0  0  0  0  0  0  0  0
   19.0140   19.6905   23.1952 C   0  0  0  0  0  0  0  0  0  0  0  0
   18.2146   20.3642   22.8565 H   0  0  0  0  0  0  0  0  0  0  0  0
   19.6991   20.2946   23.8054 H   0  0  0  0  0  0  0  0  0  0  0  0
   18.4034   18.5734   24.0808 C   0  0  0  0  0  0  0  0  0  0  0  0
   19.1858   17.8761   24.4042 H   0  0  0  0  0  0  0  0  0  0  0  0
   17.9782   19.0169   24.9888 H   0  0  0  0  0  0  0  0  0  0  0  0
   17.2938   17.7784   23.3986 C   0  0  0  0  0  0  0  0  0  0  0  0
   17.5463   16.6555   23.0081 O   0  5  0  0  0  0  0  0  0  0  0  0
   16.2020   18.3003   23.2859 O   0  0  0  0  0  0  0  0  0  0  0  0
  1  2  1  0  0  0  0
  1  3  1  0  0  0  0
  1  4  2  0  0  0  0
  4  5  1  0  0  0  0
  4  6  1  0  0  0  0
  6  7  1  0  0  0  0
  6  8  1  0  0  0  0
  6  9  1  0  0  0  0
  9 10  1  0  0  0  0
  9 11  1  0  0  0  0
  9 12  1  0  0  0  0
 12 13  1  0  0  0  0
 12 14  1  0  0  0  0
 12 15  1  0  0  0  0
 15 16  1  0  0  0  0
 15 17  1  0  0  0  0
 15 18  1  0  0  0  0
 18 19  1  0  0  0  0
 18 20  2  0  0  0  0
M  END
> <VConfSearch Rank>
345

> <Conf_Id>
58

> <Delta U+W>
0.019

> <U+W>
-51.727

> <U>
8.963

> <W>
-60.690

> <W(PB)>
-62.934

> <W(SA)>
2.244

> <Valence>
9.327

> <Coulomb>
-0.780

> <VdW>
0.417

> <VdW6>
-6.635

> <VdW12>
7.052

> <Bond>
0.105

> <Angle>
2.399

> <Pdih>
6.822

> <Idih>
0.000

> <Tether>
0.000

$$$$
VeraChem MOL file


 20 19  0  0  0  0  0  0  0  0999 V2000     
   21.2250   18.3381   18.9259 C   0  0  0  0  0  0  0  0  0  0  0  0
   21.3672   19.3763   18.6301 H   0  0  0  0  0  0  0  0  0  0  0  0
   21.2047   17.5902   18.1350 H   0  0  0  0  0  0  0  0  0  0  0  0
   21.0781   17.9915   20.2073 C   0  0  0  0  0  0  0  0  0  0  0  0
   20.9359   16.9466   20.4821 H   0  0  0  0  0  0  0  0  0  0  0  0
   21.0960   18.9726   21.3583 C   0  0  0  0  0  0  0  0  0  0  0  0
   21.4932   19.9414   21.0260 H   0  0  0  0  0  0  0  0  0  0  0  0
   21.7715   18.6062   22.1429 H   0  0  0  0  0  0  0  0  0  0  0  0
   19.6822   19.1699   21.9442 C   0  0  0  0  0  0  0  0  0  0  0  0
   19.0083   19.5318   21.1555 H   0  0  0  0  0  0  0  0  0  0  0  0
   19.2882   18.1999   22.2779 H   0  0  0  0  0  0  0  0  0  0  0  0
   19.6832   20.1679   23.1242 C   0  0  0  0  0  0  0  0  0  0  0  0
   20.0929   21.1291   22.7852 H   0  0  0  0  0  0  0  0  0  0  0  0
   20.3482   19.8035   23.9196 H   0  0  0  0  0  0  0  0  0  0  0  0
   18.2657   20.4030   23.7075 C   0  0  0  0  0  0  0  0  0  0  0  0
   18.3056   21.2023   24.4568 H   0  0  0  0  0  0  0  0  0  0  0  0
   17.5825   20.7408   22.9188 H   0  0  0  0  0  0  0  0  0  0  0  0
   17.6614   19.1748   24.3823 C   0  0  0  0  0  0  0  0  0  0  0  0
   18.0743   18.8651   25.4826 O   0  5  0  0  0  0  0  0  0  0  0  0
   16.7872   18.5672   23.7961 O   0  0  0  0  0  0  0  0  0  0  0  0
  1  2  1  0  0  0  0
  1  3  1  0  0  0  0
  1  4  2  0  0  0  0
  4  5  1  0  0  0  0
  4  6  1  0  0  0  0
  6  7  1  0  0  0  0
  6  8  1  0  0  0  0
  6  9  1  0  0  0  0
  9 10  1  0  0  0  0
  9 11  1  0  0  0  0
  9 12  1  0  0  0  0
 12 13  1  0  0  0  0
 12 14  1  0  0  0  0
 12 15  1  0  0  0  0
 15 16  1  0  0  0  0
 15 17  1  0  0  0  0
 15 18  1  0  0  0  0
 18 19  1  0  0  0  0
 18 20  2  0  0  0  0
M  END
> <VConfSearch Rank>
346

> <Conf_Id>
54

> <Delta U+W>
-0.048

> <U+W>
-51.793

> <U>
8.964

> <W>
-60.756

> <W(PB)>
-63.007

> <W(SA)>
2.251

> <Valence>
9.327

> <Coulomb>
-0.780

> <VdW>
0.417

> <VdW6>
-6.635

> <VdW12>
7.052

> <Bond>
0.105

> <Angle>
2.399

> <Pdih>
6.822

> <Idih>
0.000

> <Tether>
0.000

$$$$
VeraChem MOL file


 20 19  0  0  0  0  0  0  0  0999 V2000     
   19.7111   21.0810   19.2727 C   0  0  0  0  0  0  0  0  0  0  0  0
   19.8563   22.1498   19.1250 H   0  0  0  0  0  0  0  0  0  0  0  0
   20.1019   20.4116   18.5080 H   0  0  0  0  0  0  0  0  0  0  0  0
   19.0802   20.6130   20.3528 C   0  0  0  0  0  0  0  0  0  0  0  0
   18.6937   21.3007   21.1044 H   0  0  0  0  0  0  0  0  0  0  0  0
   18.8361   19.1432   20.6212 C   0  0  0  0  0  0  0  0  0  0  0  0
   18.9189   18.5772   19.6834 H   0  0  0  0  0  0  0  0  0  0  0  0
   17.8091   18.9937   20.9804 H   0  0  0  0  0  0  0  0  0  0  0  0
   19.8364   18.5567   21.6428 C   0  0  0  0  0  0  0  0  0  0  0  0
   19.6951   17.4680   21.6873 H   0  0  0  0  0  0  0  0  0  0  0  0
   20.8623   18.7245   21.2873 H   0  0  0  0  0  0  0  0  0  0  0  0
   19.6685   19.1537   23.0603 C   0  0  0  0  0  0  0  0  0  0  0  0
   18.6384   18.9988   23.4101 H   0  0  0  0  0  0  0  0  0  0  0  0
   19.8300   20.2390   23.0225 H   0  0  0  0  0  0  0  0  0  0  0  0
   20.6570   18.5401   24.0858 C   0  0  0  0  0  0  0  0  0  0  0  0
   21.6890   18.6572   23.7337 H   0  0  0  0  0  0  0  0  0  0  0  0
   20.5823   19.0821   25.0359 H   0  0  0  0  0  0  0  0  0  0  0  0
   20.4075   17.0641   24.3823 C   0  0  0  0  0  0  0  0  0  0  0  0
   21.1608   16.2436   23.8959 O   0  5  0  0  0  0  0  0  0  0  0  0
   19.4715   16.7749   25.1015 O   0  0  0  0  0  0  0  0  0  0  0  0
  1  2  1  0  0  0  0
  1  3  1  0  0  0  0
  1  4  2  0  0  0  0
  4  5  1  0  0  0  0
  4  6  1  0  0  0  0
  6  7  1  0  0  0  0
  6  8  1  0  0  0  0
  6  9  1  0  0  0  0
  9 10  1  0  0  0  0
  9 11  1  0  0  0  0
  9 12  1  0  0  0  0
 12 13  1  0  0  0  0
 12 14  1  0  0  0  0
 12 15  1  0  0  0  0
 15 16  1  0  0  0  0
 15 17  1  0  0  0  0
 15 18  1  0  0  0  0
 18 19  1  0  0  0  0
 18 20  2  0  0  0  0
M  END
> <VConfSearch Rank>
347

> <Conf_Id>
27

> <Delta U+W>
0.478

> <U+W>
-51.267

> <U>
9.192

> <W>
-60.459

> <W(PB)>
-62.649

> <W(SA)>
2.190

> <Valence>
9.572

> <Coulomb>
-0.884

> <VdW>
0.504

> <VdW6>
-7.168

> <VdW12>
7.672

> <Bond>
0.127

> <Angle>
2.504

> <Pdih>
6.941

> <Idih>
0.001

> <Tether>
0.000

$$$$
VeraChem MOL file


 20 19  0  0  0  0  0  0  0  0999 V2000     
   20.9449   21.3532   20.1527 C   0  0  0  0  0  0  0  0  0  0  0  0
   20.1372   22.0689   20.0084 H   0  0  0  0  0  0  0  0  0  0  0  0
   21.7176   21.3085   19.3871 H   0  0  0  0  0  0  0  0  0  0  0  0
   20.9881   20.5570   21.2242 C   0  0  0  0  0  0  0  0  0  0  0  0
   21.8074   19.8499   21.3506 H   0  0  0  0  0  0  0  0  0  0  0  0
   19.9545   20.5678   22.3302 C   0  0  0  0  0  0  0  0  0  0  0  0
   19.3971   21.5140   22.3069 H   0  0  0  0  0  0  0  0  0  0  0  0
   20.4527   20.5287   23.3082 H   0  0  0  0  0  0  0  0  0  0  0  0
   18.9511   19.3989   22.2089 C   0  0  0  0  0  0  0  0  0  0  0  0
   18.1558   19.5368   22.9541 H   0  0  0  0  0  0  0  0  0  0  0  0
   18.4676   19.4340   21.2228 H   0  0  0  0  0  0  0  0  0  0  0  0
   19.6101   18.0165   22.4203 C   0  0  0  0  0  0  0  0  0  0  0  0
   20.1152   17.9919   23.3958 H   0  0  0  0  0  0  0  0  0  0  0  0
   20.3817   17.8481   21.6568 H   0  0  0  0  0  0  0  0  0  0  0  0
   18.5731   16.8684   22.3522 C   0  0  0  0  0  0  0  0  0  0  0  0
   17.8015   17.0084   23.1186 H   0  0  0  0  0  0  0  0  0  0  0  0
   18.0682   16.8719   21.3787 H   0  0  0  0  0  0  0  0  0  0  0  0
   19.1987   15.4932   22.5563 C   0  0  0  0  0  0  0  0  0  0  0  0
   19.5960   14.8925   21.5776 O   0  5  0  0  0  0  0  0  0  0  0  0
   19.2881   15.0666   23.6907 O   0  0  0  0  0  0  0  0  0  0  0  0
  1  2  1  0  0  0  0
  1  3  1  0  0  0  0
  1  4  2  0  0  0  0
  4  5  1  0  0  0  0
  4  6  1  0  0  0  0
  6  7  1  0  0  0  0
  6  8  1  0  0  0  0
  6  9  1  0  0  0  0
  9 10  1  0  0  0  0
  9 11  1  0  0  0  0
  9 12  1  0  0  0  0
 12 13  1  0  0  0  0
 12 14  1  0  0  0  0
 12 15  1  0  0  0  0
 15 16  1  0  0  0  0
 15 17  1  0  0  0  0
 15 18  1  0  0  0  0
 18 19  1  0  0  0  0
 18 20  2  0  0  0  0
M  END
> <VConfSearch Rank>
348

> <Conf_Id>
41

> <Delta U+W>
-0.634

> <U+W>
-52.379

> <U>
7.828

> <W>
-60.207

> <W(PB)>
-62.449

> <W(SA)>
2.242

> <Valence>
9.300

> <Coulomb>
-2.080

> <VdW>
0.608

> <VdW6>
-6.341

> <VdW12>
6.949

> <Bond>
0.103

> <Angle>
2.334

> <Pdih>
6.862

> <Idih>
0.001

> <Tether>
0.000

$$$$
VeraChem MOL file


 20 19  0  0  0  0  0  0  0  0999 V2000     
   22.7735   20.7148   21.2074 C   0  0  0  0  0  0  0  0  0  0  0  0
   23.2143   21.4052   20.4902 H   0  0  0  0  0  0  0  0  0  0  0  0
   23.2506   20.6332   22.1827 H   0  0  0  0  0  0  0  0  0  0  0  0
   21.6886   19.9993   20.8995 C   0  0  0  0  0  0  0  0  0  0  0  0
   21.2255   20.0959   19.9178 H   0  0  0  0  0  0  0  0  0  0  0  0
   21.0221   19.0215   21.8414 C   0  0  0  0  0  0  0  0  0  0  0  0
   21.6852   18.7964   22.6876 H   0  0  0  0  0  0  0  0  0  0  0  0
   20.8468   18.0756   21.3126 H   0  0  0  0  0  0  0  0  0  0  0  0
   19.6839   19.5845   22.3698 C   0  0  0  0  0  0  0  0  0  0  0  0
   19.8644   20.5765   22.8065 H   0  0  0  0  0  0  0  0  0  0  0  0
   18.9929   19.7387   21.5296 H   0  0  0  0  0  0  0  0  0  0  0  0
   19.0157   18.6885   23.4416 C   0  0  0  0  0  0  0  0  0  0  0  0
   18.1166   19.1967   23.8168 H   0  0  0  0  0  0  0  0  0  0  0  0
   19.6923   18.5866   24.3009 H   0  0  0  0  0  0  0  0  0  0  0  0
   18.6155   17.2747   22.9382 C   0  0  0  0  0  0  0  0  0  0  0  0
   19.5010   16.7101   22.6250 H   0  0  0  0  0  0  0  0  0  0  0  0
   18.1639   16.7105   23.7625 H   0  0  0  0  0  0  0  0  0  0  0  0
   17.6102   17.2836   21.7901 C   0  0  0  0  0  0  0  0  0  0  0  0
   16.4617   17.5954   22.0374 O   0  5  0  0  0  0  0  0  0  0  0  0
   17.9965   16.9619   20.6837 O   0  0  0  0  0  0  0  0  0  0  0  0
  1  2  1  0  0  0  0
  1  3  1  0  0  0  0
  1  4  2  0  0  0  0
  4  5  1  0  0  0  0
  4  6  1  0  0  0  0
  6  7  1  0  0  0  0
  6  8  1  0  0  0  0
  6  9  1  0  0  0  0
  9 10  1  0  0  0  0
  9 11  1  0  0  0  0
  9 12  1  0  0  0  0
 12 13  1  0  0  0  0
 12 14  1  0  0  0  0
 12 15  1  0  0  0  0
 15 16  1  0  0  0  0
 15 17  1  0  0  0  0
 15 18  1  0  0  0  0
 18 19  1  0  0  0  0
 18 20  2  0  0  0  0
M  END
> <VConfSearch Rank>
349

> <Conf_Id>
84

> <Delta U+W>
0.942

> <U+W>
-50.803

> <U>
10.196

> <W>
-60.999

> <W(PB)>
-63.182

> <W(SA)>
2.182

> <Valence>
9.837

> <Coulomb>
0.032

> <VdW>
0.328

> <VdW6>
-7.642

> <VdW12>
7.969

> <Bond>
0.151

> <Angle>
2.748

> <Pdih>
6.937

> <Idih>
0.001

> <Tether>
0.000

$$$$
VeraChem MOL file


 20 19  0  0  0  0  0  0  0  0999 V2000     
   20.9847   16.0337   22.1644 C   0  0  0  0  0  0  0  0  0  0  0  0
   21.5855   15.3248   22.7315 H   0  0  0  0  0  0  0  0  0  0  0  0
   20.0476   15.6725   21.7439 H   0  0  0  0  0  0  0  0  0  0  0  0
   21.3841   17.2969   21.9955 C   0  0  0  0  0  0  0  0  0  0  0  0
   22.3253   17.6388   22.4255 H   0  0  0  0  0  0  0  0  0  0  0  0
   20.6045   18.3362   21.2209 C   0  0  0  0  0  0  0  0  0  0  0  0
   19.8226   17.8541   20.6184 H   0  0  0  0  0  0  0  0  0  0  0  0
   21.2744   18.8489   20.5177 H   0  0  0  0  0  0  0  0  0  0  0  0
   19.9590   19.3692   22.1681 C   0  0  0  0  0  0  0  0  0  0  0  0
   19.2953   18.8487   22.8727 H   0  0  0  0  0  0  0  0  0  0  0  0
   20.7408   19.8547   22.7681 H   0  0  0  0  0  0  0  0  0  0  0  0
   19.1610   20.4408   21.3915 C   0  0  0  0  0  0  0  0  0  0  0  0
   18.3688   19.9597   20.8010 H   0  0  0  0  0  0  0  0  0  0  0  0
   19.8278   20.9420   20.6768 H   0  0  0  0  0  0  0  0  0  0  0  0
   18.5304   21.5073   22.3242 C   0  0  0  0  0  0  0  0  0  0  0  0
   19.3060   21.9781   22.9403 H   0  0  0  0  0  0  0  0  0  0  0  0
   18.0793   22.3026   21.7192 H   0  0  0  0  0  0  0  0  0  0  0  0
   17.4422   20.9611   23.2442 C   0  0  0  0  0  0  0  0  0  0  0  0
   17.7078   20.8023   24.4194 O   0  5  0  0  0  0  0  0  0  0  0  0
   16.3526   20.7212   22.7622 O   0  0  0  0  0  0  0  0  0  0  0  0
  1  2  1  0  0  0  0
  1  3  1  0  0  0  0
  1  4  2  0  0  0  0
  4  5  1  0  0  0  0
  4  6  1  0  0  0  0
  6  7  1  0  0  0  0
  6  8  1  0  0  0  0
  6  9  1  0  0  0  0
  9 10  1  0  0  0  0
  9 11  1  0  0  0  0
  9 12  1  0  0  0  0
 12 13  1  0  0  0  0
 12 14  1  0  0  0  0
 12 15  1  0  0  0  0
 15 16  1  0  0  0  0
 15 17  1  0  0  0  0
 15 18  1  0  0  0  0
 18 19  1  0  0  0  0
 18 20  2  0  0  0  0
M  END
> <VConfSearch Rank>
350

> <Conf_Id>
81

> <Delta U+W>
-0.051

> <U+W>
-51.796

> <U>
9.412

> <W>
-61.209

> <W(PB)>
-63.452

> <W(SA)>
2.243

> <Valence>
9.329

> <Coulomb>
-0.323

> <VdW>
0.406

> <VdW6>
-6.640

> <VdW12>
7.046

> <Bond>
0.105

> <Angle>
2.401

> <Pdih>
6.823

> <Idih>
0.000

> <Tether>
0.000

$$$$
VeraChem MOL file


 20 19  0  0  0  0  0  0  0  0999 V2000     
   22.3581   17.3141   22.1760 C   0  0  0  0  0  0  0  0  0  0  0  0
   22.3696   16.8123   23.1422 H   0  0  0  0  0  0  0  0  0  0  0  0
   23.0404   16.9458   21.4118 H   0  0  0  0  0  0  0  0  0  0  0  0
   21.5384   18.3401   21.9329 C   0  0  0  0  0  0  0  0  0  0  0  0
   21.5443   18.8300   20.9597 H   0  0  0  0  0  0  0  0  0  0  0  0
   20.5683   18.9092   22.9461 C   0  0  0  0  0  0  0  0  0  0  0  0
   20.6149   20.0059   22.9374 H   0  0  0  0  0  0  0  0  0  0  0  0
   20.8689   18.6052   23.9577 H   0  0  0  0  0  0  0  0  0  0  0  0
   19.1149   18.4369   22.7031 C   0  0  0  0  0  0  0  0  0  0  0  0
   19.0772   17.3435   22.8026 H   0  0  0  0  0  0  0  0  0  0  0  0
   18.4727   18.8371   23.4996 H   0  0  0  0  0  0  0  0  0  0  0  0
   18.5263   18.8333   21.3245 C   0  0  0  0  0  0  0  0  0  0  0  0
   17.5082   18.4277   21.2469 H   0  0  0  0  0  0  0  0  0  0  0  0
   19.1064   18.3516   20.5263 H   0  0  0  0  0  0  0  0  0  0  0  0
   18.4737   20.3635   21.0641 C   0  0  0  0  0  0  0  0  0  0  0  0
   19.4834   20.7894   21.0593 H   0  0  0  0  0  0  0  0  0  0  0  0
   18.0546   20.5480   20.0681 H   0  0  0  0  0  0  0  0  0  0  0  0
   17.6214   21.1368   22.0662 C   0  0  0  0  0  0  0  0  0  0  0  0
   18.1852   21.8482   22.8744 O   0  5  0  0  0  0  0  0  0  0  0  0
   16.4133   21.0204   22.0001 O   0  0  0  0  0  0  0  0  0  0  0  0
  1  2  1  0  0  0  0
  1  3  1  0  0  0  0
  1  4  2  0  0  0  0
  4  5  1  0  0  0  0
  4  6  1  0  0  0  0
  6  7  1  0  0  0  0
  6  8  1  0  0  0  0
  6  9  1  0  0  0  0
  9 10  1  0  0  0  0
  9 11  1  0  0  0  0
  9 12  1  0  0  0  0
 12 13  1  0  0  0  0
 12 14  1  0  0  0  0
 12 15  1  0  0  0  0
 15 16  1  0  0  0  0
 15 17  1  0  0  0  0
 15 18  1  0  0  0  0
 18 19  1  0  0  0  0
 18 20  2  0  0  0  0
M  END
> <VConfSearch Rank>
351

> <Conf_Id>
86

> <Delta U+W>
1.248

> <U+W>
-50.498

> <U>
10.404

> <W>
-60.901

> <W(PB)>
-63.061

> <W(SA)>
2.159

> <Valence>
10.021

> <Coulomb>
0.094

> <VdW>
0.289

> <VdW6>
-8.409

> <VdW12>
8.698

> <Bond>
0.179

> <Angle>
2.939

> <Pdih>
6.902

> <Idih>
0.001

> <Tether>
0.000

$$$$
VeraChem MOL file


 20 19  0  0  0  0  0  0  0  0999 V2000     
   18.7907   21.7537   20.7985 C   0  0  0  0  0  0  0  0  0  0  0  0
   19.2038   22.6429   20.3255 H   0  0  0  0  0  0  0  0  0  0  0  0
   18.0547   21.1823   20.2352 H   0  0  0  0  0  0  0  0  0  0  0  0
   19.1771   21.3794   22.0211 C   0  0  0  0  0  0  0  0  0  0  0  0
   19.9168   21.9642   22.5672 H   0  0  0  0  0  0  0  0  0  0  0  0
   18.6488   20.1575   22.7420 C   0  0  0  0  0  0  0  0  0  0  0  0
   17.7748   19.7469   22.2183 H   0  0  0  0  0  0  0  0  0  0  0  0
   18.3006   20.4530   23.7406 H   0  0  0  0  0  0  0  0  0  0  0  0
   19.7225   19.0566   22.8946 C   0  0  0  0  0  0  0  0  0  0  0  0
   20.5985   19.4674   23.4148 H   0  0  0  0  0  0  0  0  0  0  0  0
   19.3221   18.2604   23.5371 H   0  0  0  0  0  0  0  0  0  0  0  0
   20.1547   18.4521   21.5376 C   0  0  0  0  0  0  0  0  0  0  0  0
   20.5615   19.2458   20.8968 H   0  0  0  0  0  0  0  0  0  0  0  0
   19.2777   18.0447   21.0159 H   0  0  0  0  0  0  0  0  0  0  0  0
   21.2236   17.3394   21.6935 C   0  0  0  0  0  0  0  0  0  0  0  0
   21.5814   17.0341   20.7032 H   0  0  0  0  0  0  0  0  0  0  0  0
   22.0929   17.7234   22.2409 H   0  0  0  0  0  0  0  0  0  0  0  0
   20.7163   16.0863   22.4016 C   0  0  0  0  0  0  0  0  0  0  0  0
   20.0094   15.3214   21.7753 O   0  5  0  0  0  0  0  0  0  0  0  0
   21.0499   15.9019   23.5556 O   0  0  0  0  0  0  0  0  0  0  0  0
  1  2  1  0  0  0  0
  1  3  1  0  0  0  0
  1  4  2  0  0  0  0
  4  5  1  0  0  0  0
  4  6  1  0  0  0  0
  6  7  1  0  0  0  0
  6  8  1  0  0  0  0
  6  9  1  0  0  0  0
  9 10  1  0  0  0  0
  9 11  1  0  0  0  0
  9 12  1  0  0  0  0
 12 13  1  0  0  0  0
 12 14  1  0  0  0  0
 12 15  1  0  0  0  0
 15 16  1  0  0  0  0
 15 17  1  0  0  0  0
 15 18  1  0  0  0  0
 18 19  1  0  0  0  0
 18 20  2  0  0  0  0
M  END
> <VConfSearch Rank>
352

> <Conf_Id>
28

> <Delta U+W>
0.446

> <U+W>
-51.299

> <U>
9.295

> <W>
-60.594

> <W(PB)>
-62.806

> <W(SA)>
2.212

> <Valence>
9.495

> <Coulomb>
-0.610

> <VdW>
0.409

> <VdW6>
-7.332

> <VdW12>
7.741

> <Bond>
0.126

> <Angle>
2.497

> <Pdih>
6.872

> <Idih>
0.000

> <Tether>
0.000

$$$$
VeraChem MOL file


 20 19  0  0  0  0  0  0  0  0999 V2000     
   20.0237   17.8612   24.9551 C   0  0  0  0  0  0  0  0  0  0  0  0
   20.7373   17.3762   24.2924 H   0  0  0  0  0  0  0  0  0  0  0  0
   20.0671   17.5882   26.0081 H   0  0  0  0  0  0  0  0  0  0  0  0
   19.1304   18.7558   24.5173 C   0  0  0  0  0  0  0  0  0  0  0  0
   18.4425   19.2099   25.2302 H   0  0  0  0  0  0  0  0  0  0  0  0
   18.9489   19.2339   23.0863 C   0  0  0  0  0  0  0  0  0  0  0  0
   19.1432   20.3136   23.0548 H   0  0  0  0  0  0  0  0  0  0  0  0
   17.8944   19.1108   22.8061 H   0  0  0  0  0  0  0  0  0  0  0  0
   19.8352   18.5142   22.0398 C   0  0  0  0  0  0  0  0  0  0  0  0
   20.8947   18.7049   22.2597 H   0  0  0  0  0  0  0  0  0  0  0  0
   19.6855   17.4296   22.1294 H   0  0  0  0  0  0  0  0  0  0  0  0
   19.5245   18.9263   20.5794 C   0  0  0  0  0  0  0  0  0  0  0  0
   18.4773   18.6867   20.3507 H   0  0  0  0  0  0  0  0  0  0  0  0
   20.1347   18.3127   19.9022 H   0  0  0  0  0  0  0  0  0  0  0  0
   19.7847   20.4246   20.2632 C   0  0  0  0  0  0  0  0  0  0  0  0
   19.5277   20.6239   19.2163 H   0  0  0  0  0  0  0  0  0  0  0  0
   19.1355   21.0669   20.8689 H   0  0  0  0  0  0  0  0  0  0  0  0
   21.2325   20.8627   20.4651 C   0  0  0  0  0  0  0  0  0  0  0  0
   22.0679   20.4580   19.6804 O   0  5  0  0  0  0  0  0  0  0  0  0
   21.4839   21.6128   21.3876 O   0  0  0  0  0  0  0  0  0  0  0  0
  1  2  1  0  0  0  0
  1  3  1  0  0  0  0
  1  4  2  0  0  0  0
  4  5  1  0  0  0  0
  4  6  1  0  0  0  0
  6  7  1  0  0  0  0
  6  8  1  0  0  0  0
  6  9  1  0  0  0  0
  9 10  1  0  0  0  0
  9 11  1  0  0  0  0
  9 12  1  0  0  0  0
 12 13  1  0  0  0  0
 12 14  1  0  0  0  0
 12 15  1  0  0  0  0
 15 16  1  0  0  0  0
 15 17  1  0  0  0  0
 15 18  1  0  0  0  0
 18 19  1  0  0  0  0
 18 20  2  0  0  0  0
M  END
> <VConfSearch Rank>
353

> <Conf_Id>
53

> <Delta U+W>
0.549

> <U+W>
-51.197

> <U>
10.870

> <W>
-62.067

> <W(PB)>
-64.228

> <W(SA)>
2.161

> <Valence>
8.803

> <Coulomb>
1.020

> <VdW>
1.048

> <VdW6>
-8.312

> <VdW12>
9.360

> <Bond>
0.212

> <Angle>
3.379

> <Pdih>
5.211

> <Idih>
0.001

> <Tether>
0.000

$$$$
VeraChem MOL file


 20 19  0  0  0  0  0  0  0  0999 V2000     
   20.7808   16.5624   20.8938 C   0  0  0  0  0  0  0  0  0  0  0  0
   21.1542   16.4597   21.9104 H   0  0  0  0  0  0  0  0  0  0  0  0
   21.3781   16.1163   20.1006 H   0  0  0  0  0  0  0  0  0  0  0  0
   19.6382   17.1993   20.6159 C   0  0  0  0  0  0  0  0  0  0  0  0
   19.3075   17.2712   19.5801 H   0  0  0  0  0  0  0  0  0  0  0  0
   18.7127   17.8701   21.6177 C   0  0  0  0  0  0  0  0  0  0  0  0
   17.8830   17.1871   21.8423 H   0  0  0  0  0  0  0  0  0  0  0  0
   18.2388   18.7376   21.1408 H   0  0  0  0  0  0  0  0  0  0  0  0
   19.3701   18.3278   22.9459 C   0  0  0  0  0  0  0  0  0  0  0  0
   18.5861   18.7254   23.6049 H   0  0  0  0  0  0  0  0  0  0  0  0
   19.7804   17.4548   23.4699 H   0  0  0  0  0  0  0  0  0  0  0  0
   20.4811   19.3988   22.7860 C   0  0  0  0  0  0  0  0  0  0  0  0
   21.3061   18.9889   22.1894 H   0  0  0  0  0  0  0  0  0  0  0  0
   20.9020   19.6191   23.7766 H   0  0  0  0  0  0  0  0  0  0  0  0
   20.0055   20.7293   22.1410 C   0  0  0  0  0  0  0  0  0  0  0  0
   20.8542   21.4188   22.0649 H   0  0  0  0  0  0  0  0  0  0  0  0
   19.6539   20.5575   21.1174 H   0  0  0  0  0  0  0  0  0  0  0  0
   18.9077   21.4447   22.9229 C   0  0  0  0  0  0  0  0  0  0  0  0
   17.7838   21.4551   22.4603 O   0  5  0  0  0  0  0  0  0  0  0  0
   19.2102   21.9888   23.9669 O   0  0  0  0  0  0  0  0  0  0  0  0
  1  2  1  0  0  0  0
  1  3  1  0  0  0  0
  1  4  2  0  0  0  0
  4  5  1  0  0  0  0
  4  6  1  0  0  0  0
  6  7  1  0  0  0  0
  6  8  1  0  0  0  0
  6  9  1  0  0  0  0
  9 10  1  0  0  0  0
  9 11  1  0  0  0  0
  9 12  1  0  0  0  0
 12 13  1  0  0  0  0
 12 14  1  0  0  0  0
 12 15  1  0  0  0  0
 15 16  1  0  0  0  0
 15 17  1  0  0  0  0
 15 18  1  0  0  0  0
 18 19  1  0  0  0  0
 18 20  2  0  0  0  0
M  END
> <VConfSearch Rank>
354

> <Conf_Id>
66

> <Delta U+W>
1.737

> <U+W>
-50.008

> <U>
11.091

> <W>
-61.099

> <W(PB)>
-63.213

> <W(SA)>
2.114

> <Valence>
9.664

> <Coulomb>
0.658

> <VdW>
0.769

> <VdW6>
-9.171

> <VdW12>
9.940

> <Bond>
0.244

> <Angle>
3.658

> <Pdih>
5.762

> <Idih>
0.001

> <Tether>
0.000

$$$$
VeraChem MOL file


 20 19  0  0  0  0  0  0  0  0999 V2000     
   20.1764   16.4140   22.1249 C   0  0  0  0  0  0  0  0  0  0  0  0
   19.1169   16.3823   21.8807 H   0  0  0  0  0  0  0  0  0  0  0  0
   20.8029   15.6277   21.7075 H   0  0  0  0  0  0  0  0  0  0  0  0
   20.7003   17.3653   22.9056 C   0  0  0  0  0  0  0  0  0  0  0  0
   21.7685   17.3476   23.1200 H   0  0  0  0  0  0  0  0  0  0  0  0
   19.9517   18.5212   23.5491 C   0  0  0  0  0  0  0  0  0  0  0  0
   20.6118   19.3969   23.5828 H   0  0  0  0  0  0  0  0  0  0  0  0
   19.7619   18.2727   24.6016 H   0  0  0  0  0  0  0  0  0  0  0  0
   18.6150   18.9240   22.8729 C   0  0  0  0  0  0  0  0  0  0  0  0
   17.9268   18.0685   22.8874 H   0  0  0  0  0  0  0  0  0  0  0  0
   18.1334   19.7015   23.4813 H   0  0  0  0  0  0  0  0  0  0  0  0
   18.7553   19.4464   21.4203 C   0  0  0  0  0  0  0  0  0  0  0  0
   17.7499   19.6195   21.0123 H   0  0  0  0  0  0  0  0  0  0  0  0
   19.2170   18.6799   20.7839 H   0  0  0  0  0  0  0  0  0  0  0  0
   19.5690   20.7620   21.3107 C   0  0  0  0  0  0  0  0  0  0  0  0
   19.1506   21.5236   21.9793 H   0  0  0  0  0  0  0  0  0  0  0  0
   20.6092   20.5972   21.6133 H   0  0  0  0  0  0  0  0  0  0  0  0
   19.5816   21.3313   19.8965 C   0  0  0  0  0  0  0  0  0  0  0  0
   20.4834   21.0015   19.1517 O   0  5  0  0  0  0  0  0  0  0  0  0
   18.6804   22.0793   19.5718 O   0  0  0  0  0  0  0  0  0  0  0  0
  1  2  1  0  0  0  0
  1  3  1  0  0  0  0
  1  4  2  0  0  0  0
  4  5  1  0  0  0  0
  4  6  1  0  0  0  0
  6  7  1  0  0  0  0
  6  8  1  0  0  0  0
  6  9  1  0  0  0  0
  9 10  1  0  0  0  0
  9 11  1  0  0  0  0
  9 12  1  0  0  0  0
 12 13  1  0  0  0  0
 12 14  1  0  0  0  0
 12 15  1  0  0  0  0
 15 16  1  0  0  0  0
 15 17  1  0  0  0  0
 15 18  1  0  0  0  0
 18 19  1  0  0  0  0
 18 20  2  0  0  0  0
M  END
> <VConfSearch Rank>
355

> <Conf_Id>
64

> <Delta U+W>
0.366

> <U+W>
-51.379

> <U>
10.000

> <W>
-61.379

> <W(PB)>
-63.541

> <W(SA)>
2.162

> <Valence>
9.398

> <Coulomb>
-0.504

> <VdW>
1.105

> <VdW6>
-7.975

> <VdW12>
9.080

> <Bond>
0.216

> <Angle>
3.417

> <Pdih>
5.765

> <Idih>
0.001

> <Tether>
0.000

$$$$
VeraChem MOL file


 20 19  0  0  0  0  0  0  0  0999 V2000     
   21.1895   20.7521   24.1513 C   0  0  0  0  0  0  0  0  0  0  0  0
   20.2291   21.2494   24.2767 H   0  0  0  0  0  0  0  0  0  0  0  0
   22.0845   21.3694   24.2065 H   0  0  0  0  0  0  0  0  0  0  0  0
   21.2706   19.4367   23.9341 C   0  0  0  0  0  0  0  0  0  0  0  0
   22.2418   18.9588   23.8089 H   0  0  0  0  0  0  0  0  0  0  0  0
   20.0728   18.5152   23.8441 C   0  0  0  0  0  0  0  0  0  0  0  0
   19.1626   19.0303   24.1801 H   0  0  0  0  0  0  0  0  0  0  0  0
   20.2195   17.6684   24.5277 H   0  0  0  0  0  0  0  0  0  0  0  0
   19.8590   17.9702   22.4140 C   0  0  0  0  0  0  0  0  0  0  0  0
   20.7697   17.4556   22.0778 H   0  0  0  0  0  0  0  0  0  0  0  0
   19.0615   17.2150   22.4378 H   0  0  0  0  0  0  0  0  0  0  0  0
   19.4801   19.0776   21.4042 C   0  0  0  0  0  0  0  0  0  0  0  0
   20.2827   19.8261   21.3513 H   0  0  0  0  0  0  0  0  0  0  0  0
   18.5791   19.6021   21.7511 H   0  0  0  0  0  0  0  0  0  0  0  0
   19.2261   18.5041   19.9884 C   0  0  0  0  0  0  0  0  0  0  0  0
   20.1220   17.9877   19.6231 H   0  0  0  0  0  0  0  0  0  0  0  0
   18.4156   17.7661   20.0182 H   0  0  0  0  0  0  0  0  0  0  0  0
   18.8508   19.5779   18.9735 C   0  0  0  0  0  0  0  0  0  0  0  0
   17.6770   19.8688   18.8540 O   0  5  0  0  0  0  0  0  0  0  0  0
   19.7432   20.1051   18.3391 O   0  0  0  0  0  0  0  0  0  0  0  0
  1  2  1  0  0  0  0
  1  3  1  0  0  0  0
  1  4  2  0  0  0  0
  4  5  1  0  0  0  0
  4  6  1  0  0  0  0
  6  7  1  0  0  0  0
  6  8  1  0  0  0  0
  6  9  1  0  0  0  0
  9 10  1  0  0  0  0
  9 11  1  0  0  0  0
  9 12  1  0  0  0  0
 12 13  1  0  0  0  0
 12 14  1  0  0  0  0
 12 15  1  0  0  0  0
 15 16  1  0  0  0  0
 15 17  1  0  0  0  0
 15 18  1  0  0  0  0
 18 19  1  0  0  0  0
 18 20  2  0  0  0  0
M  END
> <VConfSearch Rank>
356

> <Conf_Id>
42

> <Delta U+W>
-0.601

> <U+W>
-52.347

> <U>
8.428

> <W>
-60.774

> <W(PB)>
-62.982

> <W(SA)>
2.208

> <Valence>
9.231

> <Coulomb>
-1.304

> <VdW>
0.501

> <VdW6>
-6.515

> <VdW12>
7.016

> <Bond>
0.103

> <Angle>
2.328

> <Pdih>
6.799

> <Idih>
0.000

> <Tether>
0.000

$$$$
VeraChem MOL file


 20 19  0  0  0  0  0  0  0  0999 V2000     
   17.6766   21.3779   22.7908 C   0  0  0  0  0  0  0  0  0  0  0  0
   16.9602   21.0731   22.0297 H   0  0  0  0  0  0  0  0  0  0  0  0
   17.7814   22.4445   22.9819 H   0  0  0  0  0  0  0  0  0  0  0  0
   18.4034   20.4815   23.4632 C   0  0  0  0  0  0  0  0  0  0  0  0
   19.1172   20.8078   24.2192 H   0  0  0  0  0  0  0  0  0  0  0  0
   18.3141   18.9851   23.2520 C   0  0  0  0  0  0  0  0  0  0  0  0
   17.4467   18.7338   22.6268 H   0  0  0  0  0  0  0  0  0  0  0  0
   18.1499   18.4951   24.2209 H   0  0  0  0  0  0  0  0  0  0  0  0
   19.5965   18.4067   22.6124 C   0  0  0  0  0  0  0  0  0  0  0  0
   20.4619   18.6534   23.2428 H   0  0  0  0  0  0  0  0  0  0  0  0
   19.5229   17.3108   22.5971 H   0  0  0  0  0  0  0  0  0  0  0  0
   19.8291   18.9209   21.1720 C   0  0  0  0  0  0  0  0  0  0  0  0
   19.9464   20.0134   21.1778 H   0  0  0  0  0  0  0  0  0  0  0  0
   18.9420   18.7026   20.5623 H   0  0  0  0  0  0  0  0  0  0  0  0
   21.0716   18.2779   20.5030 C   0  0  0  0  0  0  0  0  0  0  0  0
   20.9829   17.1848   20.5096 H   0  0  0  0  0  0  0  0  0  0  0  0
   21.1222   18.5860   19.4521 H   0  0  0  0  0  0  0  0  0  0  0  0
   22.3958   18.6627   21.1566 C   0  0  0  0  0  0  0  0  0  0  0  0
   22.9369   17.8516   21.8822 O   0  5  0  0  0  0  0  0  0  0  0  0
   22.8603   19.7578   20.9076 O   0  0  0  0  0  0  0  0  0  0  0  0
  1  2  1  0  0  0  0
  1  3  1  0  0  0  0
  1  4  2  0  0  0  0
  4  5  1  0  0  0  0
  4  6  1  0  0  0  0
  6  7  1  0  0  0  0
  6  8  1  0  0  0  0
  6  9  1  0  0  0  0
  9 10  1  0  0  0  0
  9 11  1  0  0  0  0
  9 12  1  0  0  0  0
 12 13  1  0  0  0  0
 12 14  1  0  0  0  0
 12 15  1  0  0  0  0
 15 16  1  0  0  0  0
 15 17  1  0  0  0  0
 15 18  1  0  0  0  0
 18 19  1  0  0  0  0
 18 20  2  0  0  0  0
M  END
> <VConfSearch Rank>
357

> <Conf_Id>
68

> <Delta U+W>
0.492

> <U+W>
-51.253

> <U>
10.179

> <W>
-61.432

> <W(PB)>
-63.627

> <W(SA)>
2.195

> <Valence>
9.483

> <Coulomb>
0.361

> <VdW>
0.335

> <VdW6>
-7.385

> <VdW12>
7.720

> <Bond>
0.125

> <Angle>
2.487

> <Pdih>
6.870

> <Idih>
0.001

> <Tether>
0.000

$$$$
VeraChem MOL file


 20 19  0  0  0  0  0  0  0  0999 V2000     
   19.7719   16.6720   20.2034 C   0  0  0  0  0  0  0  0  0  0  0  0
   19.3381   17.0385   19.2744 H   0  0  0  0  0  0  0  0  0  0  0  0
   19.6112   15.6245   20.4526 H   0  0  0  0  0  0  0  0  0  0  0  0
   20.4716   17.4739   21.0103 C   0  0  0  0  0  0  0  0  0  0  0  0
   20.8996   17.0859   21.9342 H   0  0  0  0  0  0  0  0  0  0  0  0
   20.7403   18.9365   20.7266 C   0  0  0  0  0  0  0  0  0  0  0  0
   20.5868   19.1411   19.6584 H   0  0  0  0  0  0  0  0  0  0  0  0
   21.7925   19.1710   20.9362 H   0  0  0  0  0  0  0  0  0  0  0  0
   19.8239   19.8725   21.5465 C   0  0  0  0  0  0  0  0  0  0  0  0
   19.9742   20.9051   21.2034 H   0  0  0  0  0  0  0  0  0  0  0  0
   18.7734   19.6242   21.3405 H   0  0  0  0  0  0  0  0  0  0  0  0
   20.0953   19.7986   23.0679 C   0  0  0  0  0  0  0  0  0  0  0  0
   21.1584   19.9999   23.2566 H   0  0  0  0  0  0  0  0  0  0  0  0
   19.8945   18.7837   23.4373 H   0  0  0  0  0  0  0  0  0  0  0  0
   19.2407   20.8106   23.8744 C   0  0  0  0  0  0  0  0  0  0  0  0
   19.5536   20.7988   24.9251 H   0  0  0  0  0  0  0  0  0  0  0  0
   19.4092   21.8292   23.5044 H   0  0  0  0  0  0  0  0  0  0  0  0
   17.7426   20.5221   23.8405 C   0  0  0  0  0  0  0  0  0  0  0  0
   17.3155   19.6297   24.5464 O   0  5  0  0  0  0  0  0  0  0  0  0
   17.0400   21.2088   23.1250 O   0  0  0  0  0  0  0  0  0  0  0  0
  1  2  1  0  0  0  0
  1  3  1  0  0  0  0
  1  4  2  0  0  0  0
  4  5  1  0  0  0  0
  4  6  1  0  0  0  0
  6  7  1  0  0  0  0
  6  8  1  0  0  0  0
  6  9  1  0  0  0  0
  9 10  1  0  0  0  0
  9 11  1  0  0  0  0
  9 12  1  0  0  0  0
 12 13  1  0  0  0  0
 12 14  1  0  0  0  0
 12 15  1  0  0  0  0
 15 16  1  0  0  0  0
 15 17  1  0  0  0  0
 15 18  1  0  0  0  0
 18 19  1  0  0  0  0
 18 20  2  0  0  0  0
M  END
> <VConfSearch Rank>
358

> <Conf_Id>
87

> <Delta U+W>
0.339

> <U+W>
-51.407

> <U>
10.461

> <W>
-61.867

> <W(PB)>
-64.045

> <W(SA)>
2.178

> <Valence>
9.555

> <Coulomb>
0.483

> <VdW>
0.423

> <VdW6>
-7.223

> <VdW12>
7.646

> <Bond>
0.126

> <Angle>
2.492

> <Pdih>
6.936

> <Idih>
0.001

> <Tether>
0.000

$$$$
VeraChem MOL file


 20 19  0  0  0  0  0  0  0  0999 V2000     
   18.1267   18.5650   19.5515 C   0  0  0  0  0  0  0  0  0  0  0  0
   17.1837   19.0692   19.7563 H   0  0  0  0  0  0  0  0  0  0  0  0
   18.5197   18.6272   18.5382 H   0  0  0  0  0  0  0  0  0  0  0  0
   18.7795   17.8971   20.5062 C   0  0  0  0  0  0  0  0  0  0  0  0
   19.7174   17.3913   20.2795 H   0  0  0  0  0  0  0  0  0  0  0  0
   18.2859   17.7592   21.9306 C   0  0  0  0  0  0  0  0  0  0  0  0
   18.7777   16.9098   22.4231 H   0  0  0  0  0  0  0  0  0  0  0  0
   17.2164   17.5104   21.9055 H   0  0  0  0  0  0  0  0  0  0  0  0
   18.4712   19.0429   22.7774 C   0  0  0  0  0  0  0  0  0  0  0  0
   18.1472   19.9217   22.2033 H   0  0  0  0  0  0  0  0  0  0  0  0
   17.7926   18.9792   23.6388 H   0  0  0  0  0  0  0  0  0  0  0  0
   19.9045   19.2629   23.3237 C   0  0  0  0  0  0  0  0  0  0  0  0
   20.2303   18.3766   23.8854 H   0  0  0  0  0  0  0  0  0  0  0  0
   19.8744   20.0904   24.0461 H   0  0  0  0  0  0  0  0  0  0  0  0
   20.9557   19.6029   22.2362 C   0  0  0  0  0  0  0  0  0  0  0  0
   21.1239   18.7423   21.5812 H   0  0  0  0  0  0  0  0  0  0  0  0
   20.5990   20.4279   21.6081 H   0  0  0  0  0  0  0  0  0  0  0  0
   22.3042   20.0025   22.8239 C   0  0  0  0  0  0  0  0  0  0  0  0
   23.1133   19.1252   23.0532 O   0  5  0  0  0  0  0  0  0  0  0  0
   22.5028   21.1786   23.0567 O   0  0  0  0  0  0  0  0  0  0  0  0
  1  2  1  0  0  0  0
  1  3  1  0  0  0  0
  1  4  2  0  0  0  0
  4  5  1  0  0  0  0
  4  6  1  0  0  0  0
  6  7  1  0  0  0  0
  6  8  1  0  0  0  0
  6  9  1  0  0  0  0
  9 10  1  0  0  0  0
  9 11  1  0  0  0  0
  9 12  1  0  0  0  0
 12 13  1  0  0  0  0
 12 14  1  0  0  0  0
 12 15  1  0  0  0  0
 15 16  1  0  0  0  0
 15 17  1  0  0  0  0
 15 18  1  0  0  0  0
 18 19  1  0  0  0  0
 18 20  2  0  0  0  0
M  END
> <VConfSearch Rank>
359

> <Conf_Id>
51

> <Delta U+W>
1.709

> <U+W>
-50.036

> <U>
10.643

> <W>
-60.679

> <W(PB)>
-62.882

> <W(SA)>
2.203

> <Valence>
11.231

> <Coulomb>
-1.077

> <VdW>
0.489

> <VdW6>
-7.546

> <VdW12>
8.035

> <Bond>
0.159

> <Angle>
3.005

> <Pdih>
8.065

> <Idih>
0.002

> <Tether>
0.000

$$$$
VeraChem MOL file


 20 19  0  0  0  0  0  0  0  0999 V2000     
   19.9348   17.7267   19.5075 C   0  0  0  0  0  0  0  0  0  0  0  0
   18.9607   17.2649   19.3554 H   0  0  0  0  0  0  0  0  0  0  0  0
   20.8117   17.1664   19.1878 H   0  0  0  0  0  0  0  0  0  0  0  0
   20.0522   18.9336   20.0671 C   0  0  0  0  0  0  0  0  0  0  0  0
   21.0353   19.3831   20.2027 H   0  0  0  0  0  0  0  0  0  0  0  0
   18.8774   19.7726   20.5228 C   0  0  0  0  0  0  0  0  0  0  0  0
   18.1096   19.7513   19.7376 H   0  0  0  0  0  0  0  0  0  0  0  0
   19.1760   20.8250   20.6187 H   0  0  0  0  0  0  0  0  0  0  0  0
   18.2401   19.2797   21.8457 C   0  0  0  0  0  0  0  0  0  0  0  0
   17.2270   19.6995   21.9086 H   0  0  0  0  0  0  0  0  0  0  0  0
   18.1128   18.1888   21.8177 H   0  0  0  0  0  0  0  0  0  0  0  0
   19.0009   19.6939   23.1305 C   0  0  0  0  0  0  0  0  0  0  0  0
   18.3712   19.4499   23.9973 H   0  0  0  0  0  0  0  0  0  0  0  0
   19.1387   20.7838   23.1480 H   0  0  0  0  0  0  0  0  0  0  0  0
   20.3726   18.9948   23.3121 C   0  0  0  0  0  0  0  0  0  0  0  0
   20.2629   17.9093   23.2032 H   0  0  0  0  0  0  0  0  0  0  0  0
   21.0798   19.3303   22.5470 H   0  0  0  0  0  0  0  0  0  0  0  0
   21.0015   19.2741   24.6722 C   0  0  0  0  0  0  0  0  0  0  0  0
   21.7081   20.2562   24.7873 O   0  5  0  0  0  0  0  0  0  0  0  0
   20.7521   18.5138   25.5868 O   0  0  0  0  0  0  0  0  0  0  0  0
  1  2  1  0  0  0  0
  1  3  1  0  0  0  0
  1  4  2  0  0  0  0
  4  5  1  0  0  0  0
  4  6  1  0  0  0  0
  6  7  1  0  0  0  0
  6  8  1  0  0  0  0
  6  9  1  0  0  0  0
  9 10  1  0  0  0  0
  9 11  1  0  0  0  0
  9 12  1  0  0  0  0
 12 13  1  0  0  0  0
 12 14  1  0  0  0  0
 12 15  1  0  0  0  0
 15 16  1  0  0  0  0
 15 17  1  0  0  0  0
 15 18  1  0  0  0  0
 18 19  1  0  0  0  0
 18 20  2  0  0  0  0
M  END
> <VConfSearch Rank>
360

> <Conf_Id>
91

> <Delta U+W>
1.604

> <U+W>
-50.141

> <U>
10.644

> <W>
-60.786

> <W(PB)>
-62.965

> <W(SA)>
2.179

> <Valence>
11.230

> <Coulomb>
-1.075

> <VdW>
0.489

> <VdW6>
-7.547

> <VdW12>
8.036

> <Bond>
0.159

> <Angle>
3.006

> <Pdih>
8.064

> <Idih>
0.002

> <Tether>
0.000

$$$$
VeraChem MOL file


 20 19  0  0  0  0  0  0  0  0999 V2000     
   21.0323   22.4579   22.3771 C   0  0  0  0  0  0  0  0  0  0  0  0
   20.5395   22.7316   21.4456 H   0  0  0  0  0  0  0  0  0  0  0  0
   21.8257   23.1119   22.7351 H   0  0  0  0  0  0  0  0  0  0  0  0
   20.6821   21.3623   23.0559 C   0  0  0  0  0  0  0  0  0  0  0  0
   21.1886   21.1058   23.9861 H   0  0  0  0  0  0  0  0  0  0  0  0
   19.5912   20.4088   22.6220 C   0  0  0  0  0  0  0  0  0  0  0  0
   18.9719   20.8698   21.8404 H   0  0  0  0  0  0  0  0  0  0  0  0
   18.9258   20.2009   23.4706 H   0  0  0  0  0  0  0  0  0  0  0  0
   20.1849   19.0862   22.0936 C   0  0  0  0  0  0  0  0  0  0  0  0
   20.8528   19.3002   21.2478 H   0  0  0  0  0  0  0  0  0  0  0  0
   20.8005   18.6233   22.8772 H   0  0  0  0  0  0  0  0  0  0  0  0
   19.0837   18.0991   21.6486 C   0  0  0  0  0  0  0  0  0  0  0  0
   18.4679   18.5613   20.8645 H   0  0  0  0  0  0  0  0  0  0  0  0
   18.4147   17.8857   22.4938 H   0  0  0  0  0  0  0  0  0  0  0  0
   19.6813   16.7693   21.1166 C   0  0  0  0  0  0  0  0  0  0  0  0
   20.3452   16.9743   20.2686 H   0  0  0  0  0  0  0  0  0  0  0  0
   20.2922   16.2993   21.8963 H   0  0  0  0  0  0  0  0  0  0  0  0
   18.6566   15.7328   20.6533 C   0  0  0  0  0  0  0  0  0  0  0  0
   19.0869   14.6778   20.2313 O   0  5  0  0  0  0  0  0  0  0  0  0
   17.4694   15.9876   20.7187 O   0  0  0  0  0  0  0  0  0  0  0  0
  1  2  1  0  0  0  0
  1  3  1  0  0  0  0
  1  4  2  0  0  0  0
  4  5  1  0  0  0  0
  4  6  1  0  0  0  0
  6  7  1  0  0  0  0
  6  8  1  0  0  0  0
  6  9  1  0  0  0  0
  9 10  1  0  0  0  0
  9 11  1  0  0  0  0
  9 12  1  0  0  0  0
 12 13  1  0  0  0  0
 12 14  1  0  0  0  0
 12 15  1  0  0  0  0
 15 16  1  0  0  0  0
 15 17  1  0  0  0  0
 15 18  1  0  0  0  0
 18 19  1  0  0  0  0
 18 20  2  0  0  0  0
M  END
> <VConfSearch Rank>
361

> <Conf_Id>
33

> <Delta U+W>
0.000

> <U+W>
-51.745

> <U>
7.593

> <W>
-59.338

> <W(PB)>
-61.574

> <W(SA)>
2.236

> <Valence>
9.570

> <Coulomb>
-3.091

> <VdW>
1.114

> <VdW6>
-6.064

> <VdW12>
7.178

> <Bond>
0.117

> <Angle>
2.692

> <Pdih>
6.761

> <Idih>
0.000

> <Tether>
0.000

$$$$
VeraChem MOL file


 20 19  0  0  0  0  0  0  0  0999 V2000     
   21.2754   16.1414   20.3789 C   0  0  0  0  0  0  0  0  0  0  0  0
   21.3811   16.7007   19.4507 H   0  0  0  0  0  0  0  0  0  0  0  0
   21.4918   15.0749   20.3486 H   0  0  0  0  0  0  0  0  0  0  0  0
   20.8932   16.7361   21.5121 C   0  0  0  0  0  0  0  0  0  0  0  0
   20.7927   16.1579   22.4304 H   0  0  0  0  0  0  0  0  0  0  0  0
   20.5769   18.2103   21.6310 C   0  0  0  0  0  0  0  0  0  0  0  0
   20.9460   18.7502   20.7485 H   0  0  0  0  0  0  0  0  0  0  0  0
   21.1056   18.6229   22.4996 H   0  0  0  0  0  0  0  0  0  0  0  0
   19.0560   18.4414   21.7767 C   0  0  0  0  0  0  0  0  0  0  0  0
   18.5417   17.9471   20.9409 H   0  0  0  0  0  0  0  0  0  0  0  0
   18.6945   17.9561   22.6937 H   0  0  0  0  0  0  0  0  0  0  0  0
   18.6569   19.9363   21.7868 C   0  0  0  0  0  0  0  0  0  0  0  0
   17.5604   20.0082   21.7785 H   0  0  0  0  0  0  0  0  0  0  0  0
   19.0062   20.4202   20.8641 H   0  0  0  0  0  0  0  0  0  0  0  0
   19.1975   20.7130   23.0154 C   0  0  0  0  0  0  0  0  0  0  0  0
   18.8909   20.2150   23.9430 H   0  0  0  0  0  0  0  0  0  0  0  0
   20.2930   20.7379   23.0058 H   0  0  0  0  0  0  0  0  0  0  0  0
   18.7018   22.1537   23.0662 C   0  0  0  0  0  0  0  0  0  0  0  0
   19.3557   23.0059   22.4980 O   0  5  0  0  0  0  0  0  0  0  0  0
   17.6642   22.3828   23.6559 O   0  0  0  0  0  0  0  0  0  0  0  0
  1  2  1  0  0  0  0
  1  3  1  0  0  0  0
  1  4  2  0  0  0  0
  4  5  1  0  0  0  0
  4  6  1  0  0  0  0
  6  7  1  0  0  0  0
  6  8  1  0  0  0  0
  6  9  1  0  0  0  0
  9 10  1  0  0  0  0
  9 11  1  0  0  0  0
  9 12  1  0  0  0  0
 12 13  1  0  0  0  0
 12 14  1  0  0  0  0
 12 15  1  0  0  0  0
 15 16  1  0  0  0  0
 15 17  1  0  0  0  0
 15 18  1  0  0  0  0
 18 19  1  0  0  0  0
 18 20  2  0  0  0  0
M  END
> <VConfSearch Rank>
362

> <Conf_Id>
37

> <Delta U+W>
-0.384

> <U+W>
-52.130

> <U>
7.491

> <W>
-59.621

> <W(PB)>
-61.853

> <W(SA)>
2.232

> <Valence>
9.604

> <Coulomb>
-2.799

> <VdW>
0.686

> <VdW6>
-6.435

> <VdW12>
7.121

> <Bond>
0.124

> <Angle>
2.493

> <Pdih>
6.986

> <Idih>
0.001

> <Tether>
0.000

$$$$
VeraChem MOL file


 20 19  0  0  0  0  0  0  0  0999 V2000     
   17.6149   21.5503   22.1561 C   0  0  0  0  0  0  0  0  0  0  0  0
   16.8953   22.3626   22.2429 H   0  0  0  0  0  0  0  0  0  0  0  0
   18.6389   21.8256   21.9130 H   0  0  0  0  0  0  0  0  0  0  0  0
   17.2376   20.2804   22.3432 C   0  0  0  0  0  0  0  0  0  0  0  0
   16.1965   20.0671   22.5848 H   0  0  0  0  0  0  0  0  0  0  0  0
   18.1218   19.0477   22.2560 C   0  0  0  0  0  0  0  0  0  0  0  0
   17.7020   18.3648   21.5053 H   0  0  0  0  0  0  0  0  0  0  0  0
   18.0686   18.5072   23.2106 H   0  0  0  0  0  0  0  0  0  0  0  0
   19.6038   19.3283   21.9140 C   0  0  0  0  0  0  0  0  0  0  0  0
   19.6652   19.8508   20.9495 H   0  0  0  0  0  0  0  0  0  0  0  0
   20.0358   19.9947   22.6732 H   0  0  0  0  0  0  0  0  0  0  0  0
   20.4315   18.0263   21.8447 C   0  0  0  0  0  0  0  0  0  0  0  0
   20.0042   17.3551   21.0868 H   0  0  0  0  0  0  0  0  0  0  0  0
   20.3740   17.4987   22.8070 H   0  0  0  0  0  0  0  0  0  0  0  0
   21.9159   18.3046   21.5024 C   0  0  0  0  0  0  0  0  0  0  0  0
   21.9919   18.8196   20.5372 H   0  0  0  0  0  0  0  0  0  0  0  0
   22.3617   18.9633   22.2574 H   0  0  0  0  0  0  0  0  0  0  0  0
   22.7545   17.0337   21.4283 C   0  0  0  0  0  0  0  0  0  0  0  0
   22.8374   16.4628   20.3588 O   0  5  0  0  0  0  0  0  0  0  0  0
   23.2865   16.6375   22.4464 O   0  0  0  0  0  0  0  0  0  0  0  0
  1  2  1  0  0  0  0
  1  3  1  0  0  0  0
  1  4  2  0  0  0  0
  4  5  1  0  0  0  0
  4  6  1  0  0  0  0
  6  7  1  0  0  0  0
  6  8  1  0  0  0  0
  6  9  1  0  0  0  0
  9 10  1  0  0  0  0
  9 11  1  0  0  0  0
  9 12  1  0  0  0  0
 12 13  1  0  0  0  0
 12 14  1  0  0  0  0
 12 15  1  0  0  0  0
 15 16  1  0  0  0  0
 15 17  1  0  0  0  0
 15 18  1  0  0  0  0
 18 19  1  0  0  0  0
 18 20  2  0  0  0  0
M  END
> <VConfSearch Rank>
363

> <Conf_Id>
44

> <Delta U+W>
-1.440

> <U+W>
-53.185

> <U>
6.572

> <W>
-59.757

> <W(PB)>
-62.007

> <W(SA)>
2.249

> <Valence>
7.989

> <Coulomb>
-2.697

> <VdW>
1.281

> <VdW6>
-6.467

> <VdW12>
7.748

> <Bond>
0.136

> <Angle>
2.854

> <Pdih>
4.997

> <Idih>
0.001

> <Tether>
0.000

$$$$
VeraChem MOL file


 20 19  0  0  0  0  0  0  0  0999 V2000     
   19.2910   19.7473   25.2821 C   0  0  0  0  0  0  0  0  0  0  0  0
   18.2529   19.6968   24.9575 H   0  0  0  0  0  0  0  0  0  0  0  0
   19.4886   20.1734   26.2643 H   0  0  0  0  0  0  0  0  0  0  0  0
   20.2863   19.3073   24.5078 C   0  0  0  0  0  0  0  0  0  0  0  0
   21.3188   19.3675   24.8515 H   0  0  0  0  0  0  0  0  0  0  0  0
   20.0892   18.7031   23.1352 C   0  0  0  0  0  0  0  0  0  0  0  0
   19.0340   18.4366   22.9934 H   0  0  0  0  0  0  0  0  0  0  0  0
   20.6649   17.7711   23.0588 H   0  0  0  0  0  0  0  0  0  0  0  0
   20.5389   19.6826   22.0278 C   0  0  0  0  0  0  0  0  0  0  0  0
   19.9251   20.5928   22.0707 H   0  0  0  0  0  0  0  0  0  0  0  0
   21.5725   19.9961   22.2289 H   0  0  0  0  0  0  0  0  0  0  0  0
   20.4754   19.0776   20.6050 C   0  0  0  0  0  0  0  0  0  0  0  0
   21.0966   18.1725   20.5580 H   0  0  0  0  0  0  0  0  0  0  0  0
   20.9170   19.7937   19.8981 H   0  0  0  0  0  0  0  0  0  0  0  0
   19.0349   18.7421   20.1387 C   0  0  0  0  0  0  0  0  0  0  0  0
   18.5961   17.9611   20.7697 H   0  0  0  0  0  0  0  0  0  0  0  0
   18.3938   19.6277   20.2229 H   0  0  0  0  0  0  0  0  0  0  0  0
   18.9816   18.2554   18.6950 C   0  0  0  0  0  0  0  0  0  0  0  0
   18.8360   19.0818   17.8160 O   0  5  0  0  0  0  0  0  0  0  0  0
   19.1070   17.0649   18.4858 O   0  0  0  0  0  0  0  0  0  0  0  0
  1  2  1  0  0  0  0
  1  3  1  0  0  0  0
  1  4  2  0  0  0  0
  4  5  1  0  0  0  0
  4  6  1  0  0  0  0
  6  7  1  0  0  0  0
  6  8  1  0  0  0  0
  6  9  1  0  0  0  0
  9 10  1  0  0  0  0
  9 11  1  0  0  0  0
  9 12  1  0  0  0  0
 12 13  1  0  0  0  0
 12 14  1  0  0  0  0
 12 15  1  0  0  0  0
 15 16  1  0  0  0  0
 15 17  1  0  0  0  0
 15 18  1  0  0  0  0
 18 19  1  0  0  0  0
 18 20  2  0  0  0  0
M  END
> <VConfSearch Rank>
364

> <Conf_Id>
38

> <Delta U+W>
-0.381

> <U+W>
-52.126

> <U>
7.601

> <W>
-59.727

> <W(PB)>
-61.964

> <W(SA)>
2.236

> <Valence>
9.602

> <Coulomb>
-2.686

> <VdW>
0.685

> <VdW6>
-6.453

> <VdW12>
7.139

> <Bond>
0.125

> <Angle>
2.485

> <Pdih>
6.991

> <Idih>
0.001

> <Tether>
0.000

$$$$
VeraChem MOL file


 20 19  0  0  0  0  0  0  0  0999 V2000     
   19.6206   15.7210   21.4301 C   0  0  0  0  0  0  0  0  0  0  0  0
   18.5538   15.7304   21.2123 H   0  0  0  0  0  0  0  0  0  0  0  0
   20.2037   14.8875   21.0421 H   0  0  0  0  0  0  0  0  0  0  0  0
   20.1957   16.6930   22.1430 C   0  0  0  0  0  0  0  0  0  0  0  0
   21.2654   16.6652   22.3491 H   0  0  0  0  0  0  0  0  0  0  0  0
   19.4515   17.8795   22.7139 C   0  0  0  0  0  0  0  0  0  0  0  0
   19.7205   18.0078   23.7709 H   0  0  0  0  0  0  0  0  0  0  0  0
   18.3682   17.6997   22.6829 H   0  0  0  0  0  0  0  0  0  0  0  0
   19.7811   19.1708   21.9362 C   0  0  0  0  0  0  0  0  0  0  0  0
   20.8648   19.3495   21.9707 H   0  0  0  0  0  0  0  0  0  0  0  0
   19.5152   19.0368   20.8785 H   0  0  0  0  0  0  0  0  0  0  0  0
   19.0306   20.3942   22.5090 C   0  0  0  0  0  0  0  0  0  0  0  0
   19.3026   20.5374   23.5641 H   0  0  0  0  0  0  0  0  0  0  0  0
   17.9497   20.2000   22.4847 H   0  0  0  0  0  0  0  0  0  0  0  0
   19.3255   21.6971   21.7214 C   0  0  0  0  0  0  0  0  0  0  0  0
   19.0852   21.5609   20.6600 H   0  0  0  0  0  0  0  0  0  0  0  0
   18.6814   22.5032   22.0919 H   0  0  0  0  0  0  0  0  0  0  0  0
   20.7694   22.1777   21.8361 C   0  0  0  0  0  0  0  0  0  0  0  0
   21.5081   22.0144   20.8850 O   0  5  0  0  0  0  0  0  0  0  0  0
   21.1138   22.7131   22.8714 O   0  0  0  0  0  0  0  0  0  0  0  0
  1  2  1  0  0  0  0
  1  3  1  0  0  0  0
  1  4  2  0  0  0  0
  4  5  1  0  0  0  0
  4  6  1  0  0  0  0
  6  7  1  0  0  0  0
  6  8  1  0  0  0  0
  6  9  1  0  0  0  0
  9 10  1  0  0  0  0
  9 11  1  0  0  0  0
  9 12  1  0  0  0  0
 12 13  1  0  0  0  0
 12 14  1  0  0  0  0
 12 15  1  0  0  0  0
 15 16  1  0  0  0  0
 15 17  1  0  0  0  0
 15 18  1  0  0  0  0
 18 19  1  0  0  0  0
 18 20  2  0  0  0  0
M  END
> <VConfSearch Rank>
365

> <Conf_Id>
58

> <Delta U+W>
0.019

> <U+W>
-51.727

> <U>
8.963

> <W>
-60.690

> <W(PB)>
-62.934

> <W(SA)>
2.244

> <Valence>
9.327

> <Coulomb>
-0.780

> <VdW>
0.417

> <VdW6>
-6.635

> <VdW12>
7.052

> <Bond>
0.105

> <Angle>
2.399

> <Pdih>
6.822

> <Idih>
0.000

> <Tether>
0.000

$$$$
VeraChem MOL file


 20 19  0  0  0  0  0  0  0  0999 V2000     
   21.4091   16.1219   21.5457 C   0  0  0  0  0  0  0  0  0  0  0  0
   20.8814   15.9250   20.6138 H   0  0  0  0  0  0  0  0  0  0  0  0
   21.8361   15.2685   22.0696 H   0  0  0  0  0  0  0  0  0  0  0  0
   21.5279   17.3601   22.0319 C   0  0  0  0  0  0  0  0  0  0  0  0
   22.0593   17.5356   22.9671 H   0  0  0  0  0  0  0  0  0  0  0  0
   20.9629   18.5923   21.3610 C   0  0  0  0  0  0  0  0  0  0  0  0
   20.6787   18.3644   20.3246 H   0  0  0  0  0  0  0  0  0  0  0  0
   21.7355   19.3714   21.3130 H   0  0  0  0  0  0  0  0  0  0  0  0
   19.7344   19.1290   22.1252 C   0  0  0  0  0  0  0  0  0  0  0  0
   18.9658   18.3454   22.1752 H   0  0  0  0  0  0  0  0  0  0  0  0
   20.0219   19.3583   23.1607 H   0  0  0  0  0  0  0  0  0  0  0  0
   19.1462   20.3907   21.4540 C   0  0  0  0  0  0  0  0  0  0  0  0
   18.8765   20.1561   20.4154 H   0  0  0  0  0  0  0  0  0  0  0  0
   19.9095   21.1802   21.4120 H   0  0  0  0  0  0  0  0  0  0  0  0
   17.8917   20.9279   22.1905 C   0  0  0  0  0  0  0  0  0  0  0  0
   17.4480   21.7454   21.6101 H   0  0  0  0  0  0  0  0  0  0  0  0
   17.1305   20.1419   22.2652 H   0  0  0  0  0  0  0  0  0  0  0  0
   18.1768   21.4646   23.5903 C   0  0  0  0  0  0  0  0  0  0  0  0
   18.7126   22.5510   23.6885 O   0  5  0  0  0  0  0  0  0  0  0  0
   17.8463   20.7886   24.5447 O   0  0  0  0  0  0  0  0  0  0  0  0
  1  2  1  0  0  0  0
  1  3  1  0  0  0  0
  1  4  2  0  0  0  0
  4  5  1  0  0  0  0
  4  6  1  0  0  0  0
  6  7  1  0  0  0  0
  6  8  1  0  0  0  0
  6  9  1  0  0  0  0
  9 10  1  0  0  0  0
  9 11  1  0  0  0  0
  9 12  1  0  0  0  0
 12 13  1  0  0  0  0
 12 14  1  0  0  0  0
 12 15  1  0  0  0  0
 15 16  1  0  0  0  0
 15 17  1  0  0  0  0
 15 18  1  0  0  0  0
 18 19  1  0  0  0  0
 18 20  2  0  0  0  0
M  END
> <VConfSearch Rank>
366

> <Conf_Id>
54

> <Delta U+W>
-0.048

> <U+W>
-51.793

> <U>
8.964

> <W>
-60.756

> <W(PB)>
-63.007

> <W(SA)>
2.251

> <Valence>
9.327

> <Coulomb>
-0.780

> <VdW>
0.417

> <VdW6>
-6.635

> <VdW12>
7.052

> <Bond>
0.105

> <Angle>
2.399

> <Pdih>
6.822

> <Idih>
0.000

> <Tether>
0.000

$$$$
VeraChem MOL file


 20 19  0  0  0  0  0  0  0  0999 V2000     
   16.6188   18.3757   21.0313 C   0  0  0  0  0  0  0  0  0  0  0  0
   16.1563   18.2022   20.0612 H   0  0  0  0  0  0  0  0  0  0  0  0
   16.2674   17.7750   21.8687 H   0  0  0  0  0  0  0  0  0  0  0  0
   17.5815   19.2887   21.1836 C   0  0  0  0  0  0  0  0  0  0  0  0
   17.9160   19.8816   20.3328 H   0  0  0  0  0  0  0  0  0  0  0  0
   18.2641   19.5887   22.5011 C   0  0  0  0  0  0  0  0  0  0  0  0
   17.6385   19.2335   23.3312 H   0  0  0  0  0  0  0  0  0  0  0  0
   18.3621   20.6745   22.6333 H   0  0  0  0  0  0  0  0  0  0  0  0
   19.6544   18.9227   22.6096 C   0  0  0  0  0  0  0  0  0  0  0  0
   20.0319   19.0624   23.6318 H   0  0  0  0  0  0  0  0  0  0  0  0
   19.5532   17.8391   22.4590 H   0  0  0  0  0  0  0  0  0  0  0  0
   20.6778   19.4986   21.6020 C   0  0  0  0  0  0  0  0  0  0  0  0
   20.7683   20.5846   21.7427 H   0  0  0  0  0  0  0  0  0  0  0  0
   20.3128   19.3414   20.5785 H   0  0  0  0  0  0  0  0  0  0  0  0
   22.0777   18.8448   21.7358 C   0  0  0  0  0  0  0  0  0  0  0  0
   21.9987   17.7559   21.6312 H   0  0  0  0  0  0  0  0  0  0  0  0
   22.7249   19.1956   20.9234 H   0  0  0  0  0  0  0  0  0  0  0  0
   22.7863   19.1580   23.0506 C   0  0  0  0  0  0  0  0  0  0  0  0
   22.8349   18.2899   23.8998 O   0  5  0  0  0  0  0  0  0  0  0  0
   23.2807   20.2600   23.1860 O   0  0  0  0  0  0  0  0  0  0  0  0
  1  2  1  0  0  0  0
  1  3  1  0  0  0  0
  1  4  2  0  0  0  0
  4  5  1  0  0  0  0
  4  6  1  0  0  0  0
  6  7  1  0  0  0  0
  6  8  1  0  0  0  0
  6  9  1  0  0  0  0
  9 10  1  0  0  0  0
  9 11  1  0  0  0  0
  9 12  1  0  0  0  0
 12 13  1  0  0  0  0
 12 14  1  0  0  0  0
 12 15  1  0  0  0  0
 15 16  1  0  0  0  0
 15 17  1  0  0  0  0
 15 18  1  0  0  0  0
 18 19  1  0  0  0  0
 18 20  2  0  0  0  0
M  END
> <VConfSearch Rank>
367

> <Conf_Id>
27

> <Delta U+W>
0.478

> <U+W>
-51.267

> <U>
9.192

> <W>
-60.459

> <W(PB)>
-62.649

> <W(SA)>
2.190

> <Valence>
9.572

> <Coulomb>
-0.884

> <VdW>
0.504

> <VdW6>
-7.168

> <VdW12>
7.672

> <Bond>
0.127

> <Angle>
2.504

> <Pdih>
6.941

> <Idih>
0.001

> <Tether>
0.000

$$$$
VeraChem MOL file


 20 19  0  0  0  0  0  0  0  0999 V2000     
   18.3899   15.7158   21.9529 C   0  0  0  0  0  0  0  0  0  0  0  0
   17.3153   15.8217   21.8134 H   0  0  0  0  0  0  0  0  0  0  0  0
   18.7391   14.8552   22.5209 H   0  0  0  0  0  0  0  0  0  0  0  0
   19.2494   16.6065   21.4512 C   0  0  0  0  0  0  0  0  0  0  0  0
   20.3214   16.4797   21.6000 H   0  0  0  0  0  0  0  0  0  0  0  0
   18.8380   17.8215   20.6474 C   0  0  0  0  0  0  0  0  0  0  0  0
   17.8227   17.6783   20.2532 H   0  0  0  0  0  0  0  0  0  0  0  0
   19.4940   17.9318   19.7736 H   0  0  0  0  0  0  0  0  0  0  0  0
   18.8647   19.1187   21.4868 C   0  0  0  0  0  0  0  0  0  0  0  0
   18.4329   19.9344   20.8909 H   0  0  0  0  0  0  0  0  0  0  0  0
   18.2191   18.9967   22.3675 H   0  0  0  0  0  0  0  0  0  0  0  0
   20.2903   19.5165   21.9333 C   0  0  0  0  0  0  0  0  0  0  0  0
   20.9411   19.6127   21.0533 H   0  0  0  0  0  0  0  0  0  0  0  0
   20.7202   18.7260   22.5635 H   0  0  0  0  0  0  0  0  0  0  0  0
   20.2954   20.8495   22.7214 C   0  0  0  0  0  0  0  0  0  0  0  0
   19.8848   21.6569   22.1034 H   0  0  0  0  0  0  0  0  0  0  0  0
   19.6590   20.7657   23.6106 H   0  0  0  0  0  0  0  0  0  0  0  0
   21.6908   21.2635   23.1748 C   0  0  0  0  0  0  0  0  0  0  0  0
   22.0792   20.8788   24.2600 O   0  5  0  0  0  0  0  0  0  0  0  0
   22.3592   21.9453   22.4231 O   0  0  0  0  0  0  0  0  0  0  0  0
  1  2  1  0  0  0  0
  1  3  1  0  0  0  0
  1  4  2  0  0  0  0
  4  5  1  0  0  0  0
  4  6  1  0  0  0  0
  6  7  1  0  0  0  0
  6  8  1  0  0  0  0
  6  9  1  0  0  0  0
  9 10  1  0  0  0  0
  9 11  1  0  0  0  0
  9 12  1  0  0  0  0
 12 13  1  0  0  0  0
 12 14  1  0  0  0  0
 12 15  1  0  0  0  0
 15 16  1  0  0  0  0
 15 17  1  0  0  0  0
 15 18  1  0  0  0  0
 18 19  1  0  0  0  0
 18 20  2  0  0  0  0
M  END
> <VConfSearch Rank>
368

> <Conf_Id>
41

> <Delta U+W>
-0.634

> <U+W>
-52.379

> <U>
7.828

> <W>
-60.207

> <W(PB)>
-62.449

> <W(SA)>
2.242

> <Valence>
9.300

> <Coulomb>
-2.080

> <VdW>
0.608

> <VdW6>
-6.341

> <VdW12>
6.949

> <Bond>
0.103

> <Angle>
2.334

> <Pdih>
6.862

> <Idih>
0.001

> <Tether>
0.000

$$$$
VeraChem MOL file


 20 19  0  0  0  0  0  0  0  0999 V2000     
   23.1406   18.6364   23.5319 C   0  0  0  0  0  0  0  0  0  0  0  0
   23.8663   18.0012   24.0370 H   0  0  0  0  0  0  0  0  0  0  0  0
   23.5144   19.5375   23.0482 H   0  0  0  0  0  0  0  0  0  0  0  0
   21.8438   18.3181   23.5072 C   0  0  0  0  0  0  0  0  0  0  0  0
   21.4898   17.4112   23.9970 H   0  0  0  0  0  0  0  0  0  0  0  0
   20.7791   19.1502   22.8278 C   0  0  0  0  0  0  0  0  0  0  0  0
   21.1697   20.1495   22.5929 H   0  0  0  0  0  0  0  0  0  0  0  0
   19.9374   19.2905   23.5184 H   0  0  0  0  0  0  0  0  0  0  0  0
   20.2873   18.4701   21.5305 C   0  0  0  0  0  0  0  0  0  0  0  0
   21.1560   18.2474   20.8958 H   0  0  0  0  0  0  0  0  0  0  0  0
   19.8277   17.5024   21.7746 H   0  0  0  0  0  0  0  0  0  0  0  0
   19.2918   19.3342   20.7179 C   0  0  0  0  0  0  0  0  0  0  0  0
   19.0549   18.8130   19.7800 H   0  0  0  0  0  0  0  0  0  0  0  0
   19.7799   20.2756   20.4316 H   0  0  0  0  0  0  0  0  0  0  0  0
   17.9649   19.6538   21.4593 C   0  0  0  0  0  0  0  0  0  0  0  0
   18.1586   20.2404   22.3645 H   0  0  0  0  0  0  0  0  0  0  0  0
   17.3310   20.2759   20.8167 H   0  0  0  0  0  0  0  0  0  0  0  0
   17.1518   18.4202   21.8410 C   0  0  0  0  0  0  0  0  0  0  0  0
   16.5886   17.8089   20.9541 O   0  5  0  0  0  0  0  0  0  0  0  0
   17.0878   18.1131   23.0151 O   0  0  0  0  0  0  0  0  0  0  0  0
  1  2  1  0  0  0  0
  1  3  1  0  0  0  0
  1  4  2  0  0  0  0
  4  5  1  0  0  0  0
  4  6  1  0  0  0  0
  6  7  1  0  0  0  0
  6  8  1  0  0  0  0
  6  9  1  0  0  0  0
  9 10  1  0  0  0  0
  9 11  1  0  0  0  0
  9 12  1  0  0  0  0
 12 13  1  0  0  0  0
 12 14  1  0  0  0  0
 12 15  1  0  0  0  0
 15 16  1  0  0  0  0
 15 17  1  0  0  0  0
 15 18  1  0  0  0  0
 18 19  1  0  0  0  0
 18 20  2  0  0  0  0
M  END
> <VConfSearch Rank>
369

> <Conf_Id>
84

> <Delta U+W>
0.942

> <U+W>
-50.803

> <U>
10.196

> <W>
-60.999

> <W(PB)>
-63.182

> <W(SA)>
2.182

> <Valence>
9.837

> <Coulomb>
0.032

> <VdW>
0.328

> <VdW6>
-7.642

> <VdW12>
7.969

> <Bond>
0.151

> <Angle>
2.748

> <Pdih>
6.937

> <Idih>
0.001

> <Tether>
0.000

$$$$
VeraChem MOL file


 20 19  0  0  0  0  0  0  0  0999 V2000     
   18.2497   22.4117   22.2637 C   0  0  0  0  0  0  0  0  0  0  0  0
   18.3675   23.4252   22.6436 H   0  0  0  0  0  0  0  0  0  0  0  0
   17.9514   22.2985   21.2226 H   0  0  0  0  0  0  0  0  0  0  0  0
   18.4663   21.3517   23.0466 C   0  0  0  0  0  0  0  0  0  0  0  0
   18.7652   21.4869   24.0859 H   0  0  0  0  0  0  0  0  0  0  0  0
   18.3220   19.9170   22.5901 C   0  0  0  0  0  0  0  0  0  0  0  0
   17.7800   19.8743   21.6355 H   0  0  0  0  0  0  0  0  0  0  0  0
   17.7213   19.3580   23.3200 H   0  0  0  0  0  0  0  0  0  0  0  0
   19.7003   19.2422   22.4285 C   0  0  0  0  0  0  0  0  0  0  0  0
   20.2981   19.8101   21.7019 H   0  0  0  0  0  0  0  0  0  0  0  0
   20.2413   19.2809   23.3839 H   0  0  0  0  0  0  0  0  0  0  0  0
   19.5702   17.7736   21.9654 C   0  0  0  0  0  0  0  0  0  0  0  0
   19.0418   17.7322   21.0028 H   0  0  0  0  0  0  0  0  0  0  0  0
   18.9556   17.2191   22.6875 H   0  0  0  0  0  0  0  0  0  0  0  0
   20.9442   17.0678   21.8276 C   0  0  0  0  0  0  0  0  0  0  0  0
   21.4959   17.1243   22.7738 H   0  0  0  0  0  0  0  0  0  0  0  0
   20.7897   16.0037   21.6133 H   0  0  0  0  0  0  0  0  0  0  0  0
   21.8236   17.6340   20.7164 C   0  0  0  0  0  0  0  0  0  0  0  0
   22.7670   18.3336   21.0286 O   0  5  0  0  0  0  0  0  0  0  0  0
   21.5486   17.3487   19.5674 O   0  0  0  0  0  0  0  0  0  0  0  0
  1  2  1  0  0  0  0
  1  3  1  0  0  0  0
  1  4  2  0  0  0  0
  4  5  1  0  0  0  0
  4  6  1  0  0  0  0
  6  7  1  0  0  0  0
  6  8  1  0  0  0  0
  6  9  1  0  0  0  0
  9 10  1  0  0  0  0
  9 11  1  0  0  0  0
  9 12  1  0  0  0  0
 12 13  1  0  0  0  0
 12 14  1  0  0  0  0
 12 15  1  0  0  0  0
 15 16  1  0  0  0  0
 15 17  1  0  0  0  0
 15 18  1  0  0  0  0
 18 19  1  0  0  0  0
 18 20  2  0  0  0  0
M  END
> <VConfSearch Rank>
370

> <Conf_Id>
81

> <Delta U+W>
-0.051

> <U+W>
-51.796

> <U>
9.412

> <W>
-61.209

> <W(PB)>
-63.452

> <W(SA)>
2.243

> <Valence>
9.329

> <Coulomb>
-0.323

> <VdW>
0.406

> <VdW6>
-6.640

> <VdW12>
7.046

> <Bond>
0.105

> <Angle>
2.401

> <Pdih>
6.823

> <Idih>
0.000

> <Tether>
0.000

$$$$
VeraChem MOL file


 20 19  0  0  0  0  0  0  0  0999 V2000     
   22.6502   18.3561   23.0125 C   0  0  0  0  0  0  0  0  0  0  0  0
   23.1121   19.2783   23.3614 H   0  0  0  0  0  0  0  0  0  0  0  0
   23.1294   17.4191   23.2908 H   0  0  0  0  0  0  0  0  0  0  0  0
   21.5374   18.3696   22.2742 C   0  0  0  0  0  0  0  0  0  0  0  0
   21.0924   17.4353   21.9331 H   0  0  0  0  0  0  0  0  0  0  0  0
   20.8197   19.6313   21.8447 C   0  0  0  0  0  0  0  0  0  0  0  0
   20.5439   19.5653   20.7843 H   0  0  0  0  0  0  0  0  0  0  0  0
   21.5004   20.4896   21.9237 H   0  0  0  0  0  0  0  0  0  0  0  0
   19.5650   19.9192   22.7035 C   0  0  0  0  0  0  0  0  0  0  0  0
   19.8768   20.0672   23.7464 H   0  0  0  0  0  0  0  0  0  0  0  0
   19.1231   20.8716   22.3800 H   0  0  0  0  0  0  0  0  0  0  0  0
   18.4809   18.8116   22.6590 C   0  0  0  0  0  0  0  0  0  0  0  0
   17.6529   19.1030   23.3198 H   0  0  0  0  0  0  0  0  0  0  0  0
   18.8895   17.8819   23.0767 H   0  0  0  0  0  0  0  0  0  0  0  0
   17.9107   18.5268   21.2426 C   0  0  0  0  0  0  0  0  0  0  0  0
   18.6991   18.1601   20.5755 H   0  0  0  0  0  0  0  0  0  0  0  0
   17.1623   17.7284   21.3064 H   0  0  0  0  0  0  0  0  0  0  0  0
   17.2372   19.7300   20.5888 C   0  0  0  0  0  0  0  0  0  0  0  0
   17.7992   20.2684   19.6554 O   0  5  0  0  0  0  0  0  0  0  0  0
   16.1582   20.0863   21.0203 O   0  0  0  0  0  0  0  0  0  0  0  0
  1  2  1  0  0  0  0
  1  3  1  0  0  0  0
  1  4  2  0  0  0  0
  4  5  1  0  0  0  0
  4  6  1  0  0  0  0
  6  7  1  0  0  0  0
  6  8  1  0  0  0  0
  6  9  1  0  0  0  0
  9 10  1  0  0  0  0
  9 11  1  0  0  0  0
  9 12  1  0  0  0  0
 12 13  1  0  0  0  0
 12 14  1  0  0  0  0
 12 15  1  0  0  0  0
 15 16  1  0  0  0  0
 15 17  1  0  0  0  0
 15 18  1  0  0  0  0
 18 19  1  0  0  0  0
 18 20  2  0  0  0  0
M  END
> <VConfSearch Rank>
371

> <Conf_Id>
86

> <Delta U+W>
1.248

> <U+W>
-50.498

> <U>
10.404

> <W>
-60.901

> <W(PB)>
-63.061

> <W(SA)>
2.159

> <Valence>
10.021

> <Coulomb>
0.094

> <VdW>
0.289

> <VdW6>
-8.409

> <VdW12>
8.698

> <Bond>
0.179

> <Angle>
2.939

> <Pdih>
6.902

> <Idih>
0.001

> <Tether>
0.000

$$$$
VeraChem MOL file


 20 19  0  0  0  0  0  0  0  0999 V2000     
   17.7922   20.1042   19.8676 C   0  0  0  0  0  0  0  0  0  0  0  0
   16.8932   19.7616   19.3581 H   0  0  0  0  0  0  0  0  0  0  0  0
   17.7262   21.0344   20.4296 H   0  0  0  0  0  0  0  0  0  0  0  0
   18.9291   19.4058   19.8061 C   0  0  0  0  0  0  0  0  0  0  0  0
   18.9734   18.4759   19.2398 H   0  0  0  0  0  0  0  0  0  0  0  0
   20.2169   19.8177   20.4872 C   0  0  0  0  0  0  0  0  0  0  0  0
   20.1455   20.8489   20.8589 H   0  0  0  0  0  0  0  0  0  0  0  0
   21.0307   19.8101   19.7499 H   0  0  0  0  0  0  0  0  0  0  0  0
   20.5919   18.8745   21.6524 C   0  0  0  0  0  0  0  0  0  0  0  0
   20.6597   17.8423   21.2822 H   0  0  0  0  0  0  0  0  0  0  0  0
   21.5936   19.1432   22.0150 H   0  0  0  0  0  0  0  0  0  0  0  0
   19.5855   18.9454   22.8253 C   0  0  0  0  0  0  0  0  0  0  0  0
   18.5849   18.6704   22.4657 H   0  0  0  0  0  0  0  0  0  0  0  0
   19.5151   19.9785   23.1928 H   0  0  0  0  0  0  0  0  0  0  0  0
   19.9697   18.0070   23.9987 C   0  0  0  0  0  0  0  0  0  0  0  0
   19.1653   18.0039   24.7435 H   0  0  0  0  0  0  0  0  0  0  0  0
   20.0745   16.9758   23.6401 H   0  0  0  0  0  0  0  0  0  0  0  0
   21.2554   18.4063   24.7173 C   0  0  0  0  0  0  0  0  0  0  0  0
   21.2141   19.3491   25.4831 O   0  5  0  0  0  0  0  0  0  0  0  0
   22.2607   17.7582   24.5019 O   0  0  0  0  0  0  0  0  0  0  0  0
  1  2  1  0  0  0  0
  1  3  1  0  0  0  0
  1  4  2  0  0  0  0
  4  5  1  0  0  0  0
  4  6  1  0  0  0  0
  6  7  1  0  0  0  0
  6  8  1  0  0  0  0
  6  9  1  0  0  0  0
  9 10  1  0  0  0  0
  9 11  1  0  0  0  0
  9 12  1  0  0  0  0
 12 13  1  0  0  0  0
 12 14  1  0  0  0  0
 12 15  1  0  0  0  0
 15 16  1  0  0  0  0
 15 17  1  0  0  0  0
 15 18  1  0  0  0  0
 18 19  1  0  0  0  0
 18 20  2  0  0  0  0
M  END
> <VConfSearch Rank>
372

> <Conf_Id>
28

> <Delta U+W>
0.446

> <U+W>
-51.299

> <U>
9.295

> <W>
-60.594

> <W(PB)>
-62.806

> <W(SA)>
2.212

> <Valence>
9.495

> <Coulomb>
-0.610

> <VdW>
0.409

> <VdW6>
-7.332

> <VdW12>
7.741

> <Bond>
0.126

> <Angle>
2.497

> <Pdih>
6.872

> <Idih>
0.000

> <Tether>
0.000

$$$$
VeraChem MOL file


 20 19  0  0  0  0  0  0  0  0999 V2000     
   17.4882   20.7324   23.6569 C   0  0  0  0  0  0  0  0  0  0  0  0
   17.9139   21.4327   22.9416 H   0  0  0  0  0  0  0  0  0  0  0  0
   16.5784   21.0437   24.1674 H   0  0  0  0  0  0  0  0  0  0  0  0
   18.0387   19.5392   23.9085 C   0  0  0  0  0  0  0  0  0  0  0  0
   17.5643   18.8795   24.6346 H   0  0  0  0  0  0  0  0  0  0  0  0
   19.2997   18.9693   23.2805 C   0  0  0  0  0  0  0  0  0  0  0  0
   19.0321   18.0550   22.7353 H   0  0  0  0  0  0  0  0  0  0  0  0
   19.9789   18.6517   24.0828 H   0  0  0  0  0  0  0  0  0  0  0  0
   20.0541   19.9374   22.3359 C   0  0  0  0  0  0  0  0  0  0  0  0
   19.4135   20.1924   21.4805 H   0  0  0  0  0  0  0  0  0  0  0  0
   20.2533   20.8761   22.8706 H   0  0  0  0  0  0  0  0  0  0  0  0
   21.4043   19.3754   21.8257 C   0  0  0  0  0  0  0  0  0  0  0  0
   22.0582   19.1698   22.6840 H   0  0  0  0  0  0  0  0  0  0  0  0
   21.9089   20.1520   21.2345 H   0  0  0  0  0  0  0  0  0  0  0  0
   21.2822   18.0918   20.9597 C   0  0  0  0  0  0  0  0  0  0  0  0
   22.2829   17.7634   20.6555 H   0  0  0  0  0  0  0  0  0  0  0  0
   20.8510   17.2704   21.5429 H   0  0  0  0  0  0  0  0  0  0  0  0
   20.4592   18.2733   19.6875 C   0  0  0  0  0  0  0  0  0  0  0  0
   20.9321   18.9434   18.7903 O   0  5  0  0  0  0  0  0  0  0  0  0
   19.3775   17.7238   19.6181 O   0  0  0  0  0  0  0  0  0  0  0  0
  1  2  1  0  0  0  0
  1  3  1  0  0  0  0
  1  4  2  0  0  0  0
  4  5  1  0  0  0  0
  4  6  1  0  0  0  0
  6  7  1  0  0  0  0
  6  8  1  0  0  0  0
  6  9  1  0  0  0  0
  9 10  1  0  0  0  0
  9 11  1  0  0  0  0
  9 12  1  0  0  0  0
 12 13  1  0  0  0  0
 12 14  1  0  0  0  0
 12 15  1  0  0  0  0
 15 16  1  0  0  0  0
 15 17  1  0  0  0  0
 15 18  1  0  0  0  0
 18 19  1  0  0  0  0
 18 20  2  0  0  0  0
M  END
> <VConfSearch Rank>
373

> <Conf_Id>
53

> <Delta U+W>
0.549

> <U+W>
-51.197

> <U>
10.870

> <W>
-62.067

> <W(PB)>
-64.228

> <W(SA)>
2.161

> <Valence>
8.803

> <Coulomb>
1.020

> <VdW>
1.048

> <VdW6>
-8.312

> <VdW12>
9.360

> <Bond>
0.212

> <Angle>
3.379

> <Pdih>
5.211

> <Idih>
0.001

> <Tether>
0.000

$$$$
VeraChem MOL file


 20 19  0  0  0  0  0  0  0  0999 V2000     
   21.0347   20.8567   23.5290 C   0  0  0  0  0  0  0  0  0  0  0  0
   21.8614   20.1817   23.3187 H   0  0  0  0  0  0  0  0  0  0  0  0
   21.1002   21.4496   24.4395 H   0  0  0  0  0  0  0  0  0  0  0  0
   19.9816   20.9688   22.7123 C   0  0  0  0  0  0  0  0  0  0  0  0
   19.1813   21.6626   22.9683 H   0  0  0  0  0  0  0  0  0  0  0  0
   19.7577   20.2028   21.4188 C   0  0  0  0  0  0  0  0  0  0  0  0
   20.0515   20.8420   20.5760 H   0  0  0  0  0  0  0  0  0  0  0  0
   18.6810   20.0389   21.2827 H   0  0  0  0  0  0  0  0  0  0  0  0
   20.4886   18.8396   21.3039 C   0  0  0  0  0  0  0  0  0  0  0  0
   20.3045   18.4278   20.3022 H   0  0  0  0  0  0  0  0  0  0  0  0
   21.5731   19.0009   21.3611 H   0  0  0  0  0  0  0  0  0  0  0  0
   20.0704   17.7864   22.3634 C   0  0  0  0  0  0  0  0  0  0  0  0
   20.3164   18.1547   23.3676 H   0  0  0  0  0  0  0  0  0  0  0  0
   20.6736   16.8802   22.2154 H   0  0  0  0  0  0  0  0  0  0  0  0
   18.5678   17.3949   22.3246 C   0  0  0  0  0  0  0  0  0  0  0  0
   18.3660   16.6541   23.1069 H   0  0  0  0  0  0  0  0  0  0  0  0
   17.9374   18.2624   22.5503 H   0  0  0  0  0  0  0  0  0  0  0  0
   18.1141   16.7908   20.9989 C   0  0  0  0  0  0  0  0  0  0  0  0
   17.3959   17.4557   20.2782 O   0  5  0  0  0  0  0  0  0  0  0  0
   18.4770   15.6623   20.7301 O   0  0  0  0  0  0  0  0  0  0  0  0
  1  2  1  0  0  0  0
  1  3  1  0  0  0  0
  1  4  2  0  0  0  0
  4  5  1  0  0  0  0
  4  6  1  0  0  0  0
  6  7  1  0  0  0  0
  6  8  1  0  0  0  0
  6  9  1  0  0  0  0
  9 10  1  0  0  0  0
  9 11  1  0  0  0  0
  9 12  1  0  0  0  0
 12 13  1  0  0  0  0
 12 14  1  0  0  0  0
 12 15  1  0  0  0  0
 15 16  1  0  0  0  0
 15 17  1  0  0  0  0
 15 18  1  0  0  0  0
 18 19  1  0  0  0  0
 18 20  2  0  0  0  0
M  END
> <VConfSearch Rank>
374

> <Conf_Id>
66

> <Delta U+W>
1.737

> <U+W>
-50.008

> <U>
11.091

> <W>
-61.099

> <W(PB)>
-63.213

> <W(SA)>
2.114

> <Valence>
9.664

> <Coulomb>
0.658

> <VdW>
0.769

> <VdW6>
-9.171

> <VdW12>
9.940

> <Bond>
0.244

> <Angle>
3.658

> <Pdih>
5.762

> <Idih>
0.001

> <Tether>
0.000

$$$$
VeraChem MOL file


 20 19  0  0  0  0  0  0  0  0999 V2000     
   19.2998   18.9692   24.6707 C   0  0  0  0  0  0  0  0  0  0  0  0
   19.3476   20.0403   24.4871 H   0  0  0  0  0  0  0  0  0  0  0  0
   18.6566   18.6359   25.4832 H   0  0  0  0  0  0  0  0  0  0  0  0
   19.9976   18.0892   23.9443 C   0  0  0  0  0  0  0  0  0  0  0  0
   19.9143   17.0272   24.1732 H   0  0  0  0  0  0  0  0  0  0  0  0
   20.9254   18.4084   22.7833 C   0  0  0  0  0  0  0  0  0  0  0  0
   20.8634   17.5983   22.0461 H   0  0  0  0  0  0  0  0  0  0  0  0
   21.9617   18.3794   23.1452 H   0  0  0  0  0  0  0  0  0  0  0  0
   20.6749   19.7614   22.0670 C   0  0  0  0  0  0  0  0  0  0  0  0
   20.7926   20.5822   22.7867 H   0  0  0  0  0  0  0  0  0  0  0  0
   21.4614   19.9121   21.3151 H   0  0  0  0  0  0  0  0  0  0  0  0
   19.2945   19.8807   21.3721 C   0  0  0  0  0  0  0  0  0  0  0  0
   19.1901   20.8996   20.9744 H   0  0  0  0  0  0  0  0  0  0  0  0
   18.4876   19.7535   22.1058 H   0  0  0  0  0  0  0  0  0  0  0  0
   19.0956   18.8718   20.2113 C   0  0  0  0  0  0  0  0  0  0  0  0
   19.9213   18.9510   19.4943 H   0  0  0  0  0  0  0  0  0  0  0  0
   19.0904   17.8441   20.5917 H   0  0  0  0  0  0  0  0  0  0  0  0
   17.7908   19.0933   19.4546 C   0  0  0  0  0  0  0  0  0  0  0  0
   16.8032   18.4877   19.8215 O   0  5  0  0  0  0  0  0  0  0  0  0
   17.7929   19.8774   18.5260 O   0  0  0  0  0  0  0  0  0  0  0  0
  1  2  1  0  0  0  0
  1  3  1  0  0  0  0
  1  4  2  0  0  0  0
  4  5  1  0  0  0  0
  4  6  1  0  0  0  0
  6  7  1  0  0  0  0
  6  8  1  0  0  0  0
  6  9  1  0  0  0  0
  9 10  1  0  0  0  0
  9 11  1  0  0  0  0
  9 12  1  0  0  0  0
 12 13  1  0  0  0  0
 12 14  1  0  0  0  0
 12 15  1  0  0  0  0
 15 16  1  0  0  0  0
 15 17  1  0  0  0  0
 15 18  1  0  0  0  0
 18 19  1  0  0  0  0
 18 20  2  0  0  0  0
M  END
> <VConfSearch Rank>
375

> <Conf_Id>
64

> <Delta U+W>
0.366

> <U+W>
-51.379

> <U>
10.000

> <W>
-61.379

> <W(PB)>
-63.541

> <W(SA)>
2.162

> <Valence>
9.398

> <Coulomb>
-0.504

> <VdW>
1.105

> <VdW6>
-7.975

> <VdW12>
9.080

> <Bond>
0.216

> <Angle>
3.417

> <Pdih>
5.765

> <Idih>
0.001

> <Tether>
0.000

$$$$
VeraChem MOL file


 20 19  0  0  0  0  0  0  0  0999 V2000     
   20.1481   22.0533   22.3798 C   0  0  0  0  0  0  0  0  0  0  0  0
   19.8193   21.9078   23.4075 H   0  0  0  0  0  0  0  0  0  0  0  0
   19.7567   22.9175   21.8460 H   0  0  0  0  0  0  0  0  0  0  0  0
   20.9954   21.2045   21.7919 C   0  0  0  0  0  0  0  0  0  0  0  0
   21.3102   21.3669   20.7614 H   0  0  0  0  0  0  0  0  0  0  0  0
   21.5801   19.9829   22.4686 C   0  0  0  0  0  0  0  0  0  0  0  0
   21.3789   20.0055   23.5483 H   0  0  0  0  0  0  0  0  0  0  0  0
   22.6724   19.9993   22.3569 H   0  0  0  0  0  0  0  0  0  0  0  0
   21.0376   18.6656   21.8701 C   0  0  0  0  0  0  0  0  0  0  0  0
   21.2383   18.6434   20.7902 H   0  0  0  0  0  0  0  0  0  0  0  0
   21.5884   17.8229   22.3099 H   0  0  0  0  0  0  0  0  0  0  0  0
   19.5253   18.4727   22.1258 C   0  0  0  0  0  0  0  0  0  0  0  0
   18.9604   19.2961   21.6673 H   0  0  0  0  0  0  0  0  0  0  0  0
   19.3245   18.5123   23.2053 H   0  0  0  0  0  0  0  0  0  0  0  0
   19.0119   17.1265   21.5581 C   0  0  0  0  0  0  0  0  0  0  0  0
   19.1942   17.0774   20.4779 H   0  0  0  0  0  0  0  0  0  0  0  0
   19.5533   16.2906   22.0170 H   0  0  0  0  0  0  0  0  0  0  0  0
   17.5215   16.9131   21.7977 C   0  0  0  0  0  0  0  0  0  0  0  0
   17.1777   16.3833   22.8358 O   0  5  0  0  0  0  0  0  0  0  0  0
   16.7429   17.2949   20.9464 O   0  0  0  0  0  0  0  0  0  0  0  0
  1  2  1  0  0  0  0
  1  3  1  0  0  0  0
  1  4  2  0  0  0  0
  4  5  1  0  0  0  0
  4  6  1  0  0  0  0
  6  7  1  0  0  0  0
  6  8  1  0  0  0  0
  6  9  1  0  0  0  0
  9 10  1  0  0  0  0
  9 11  1  0  0  0  0
  9 12  1  0  0  0  0
 12 13  1  0  0  0  0
 12 14  1  0  0  0  0
 12 15  1  0  0  0  0
 15 16  1  0  0  0  0
 15 17  1  0  0  0  0
 15 18  1  0  0  0  0
 18 19  1  0  0  0  0
 18 20  2  0  0  0  0
M  END
> <VConfSearch Rank>
376

> <Conf_Id>
42

> <Delta U+W>
-0.601

> <U+W>
-52.347

> <U>
8.428

> <W>
-60.774

> <W(PB)>
-62.982

> <W(SA)>
2.208

> <Valence>
9.231

> <Coulomb>
-1.304

> <VdW>
0.501

> <VdW6>
-6.515

> <VdW12>
7.016

> <Bond>
0.103

> <Angle>
2.328

> <Pdih>
6.799

> <Idih>
0.000

> <Tether>
0.000

$$$$
VeraChem MOL file


 20 19  0  0  0  0  0  0  0  0999 V2000     
   18.8211   16.8832   23.7525 C   0  0  0  0  0  0  0  0  0  0  0  0
   18.2981   17.4984   24.4828 H   0  0  0  0  0  0  0  0  0  0  0  0
   19.3597   16.0132   24.1241 H   0  0  0  0  0  0  0  0  0  0  0  0
   18.8081   17.1830   22.4510 C   0  0  0  0  0  0  0  0  0  0  0  0
   19.3406   16.5555   21.7367 H   0  0  0  0  0  0  0  0  0  0  0  0
   18.0842   18.3744   21.8610 C   0  0  0  0  0  0  0  0  0  0  0  0
   17.4219   18.8332   22.6076 H   0  0  0  0  0  0  0  0  0  0  0  0
   17.4375   18.0320   21.0422 H   0  0  0  0  0  0  0  0  0  0  0  0
   19.0602   19.4396   21.3126 C   0  0  0  0  0  0  0  0  0  0  0  0
   19.7171   18.9802   20.5611 H   0  0  0  0  0  0  0  0  0  0  0  0
   18.4833   20.2156   20.7913 H   0  0  0  0  0  0  0  0  0  0  0  0
   19.9102   20.0988   22.4245 C   0  0  0  0  0  0  0  0  0  0  0  0
   20.5247   19.3393   22.9273 H   0  0  0  0  0  0  0  0  0  0  0  0
   19.2428   20.5202   23.1882 H   0  0  0  0  0  0  0  0  0  0  0  0
   20.8309   21.2232   21.8832 C   0  0  0  0  0  0  0  0  0  0  0  0
   20.2364   21.9796   21.3566 H   0  0  0  0  0  0  0  0  0  0  0  0
   21.3202   21.7316   22.7223 H   0  0  0  0  0  0  0  0  0  0  0  0
   21.9285   20.7278   20.9459 C   0  0  0  0  0  0  0  0  0  0  0  0
   21.7862   20.8992   19.7511 O   0  5  0  0  0  0  0  0  0  0  0  0
   22.9062   20.1994   21.4380 O   0  0  0  0  0  0  0  0  0  0  0  0
  1  2  1  0  0  0  0
  1  3  1  0  0  0  0
  1  4  2  0  0  0  0
  4  5  1  0  0  0  0
  4  6  1  0  0  0  0
  6  7  1  0  0  0  0
  6  8  1  0  0  0  0
  6  9  1  0  0  0  0
  9 10  1  0  0  0  0
  9 11  1  0  0  0  0
  9 12  1  0  0  0  0
 12 13  1  0  0  0  0
 12 14  1  0  0  0  0
 12 15  1  0  0  0  0
 15 16  1  0  0  0  0
 15 17  1  0  0  0  0
 15 18  1  0  0  0  0
 18 19  1  0  0  0  0
 18 20  2  0  0  0  0
M  END
> <VConfSearch Rank>
377

> <Conf_Id>
68

> <Delta U+W>
0.492

> <U+W>
-51.253

> <U>
10.179

> <W>
-61.432

> <W(PB)>
-63.627

> <W(SA)>
2.195

> <Valence>
9.483

> <Coulomb>
0.361

> <VdW>
0.335

> <VdW6>
-7.385

> <VdW12>
7.720

> <Bond>
0.125

> <Angle>
2.487

> <Pdih>
6.870

> <Idih>
0.001

> <Tether>
0.000

$$$$
VeraChem MOL file


 20 19  0  0  0  0  0  0  0  0999 V2000     
   17.5612   20.3333   24.2419 C   0  0  0  0  0  0  0  0  0  0  0  0
   16.6347   20.3740   23.6714 H   0  0  0  0  0  0  0  0  0  0  0  0
   17.6979   21.0729   25.0290 H   0  0  0  0  0  0  0  0  0  0  0  0
   18.4975   19.4157   23.9869 C   0  0  0  0  0  0  0  0  0  0  0  0
   19.4164   19.3912   24.5719 H   0  0  0  0  0  0  0  0  0  0  0  0
   18.3743   18.3545   22.9144 C   0  0  0  0  0  0  0  0  0  0  0  0
   17.3199   18.2351   22.6305 H   0  0  0  0  0  0  0  0  0  0  0  0
   18.6977   17.3827   23.3107 H   0  0  0  0  0  0  0  0  0  0  0  0
   19.1914   18.6998   21.6490 C   0  0  0  0  0  0  0  0  0  0  0  0
   18.9592   17.9652   20.8659 H   0  0  0  0  0  0  0  0  0  0  0  0
   18.8705   19.6781   21.2650 H   0  0  0  0  0  0  0  0  0  0  0  0
   20.7178   18.7067   21.9019 C   0  0  0  0  0  0  0  0  0  0  0  0
   21.0183   17.7415   22.3314 H   0  0  0  0  0  0  0  0  0  0  0  0
   20.9730   19.4766   22.6428 H   0  0  0  0  0  0  0  0  0  0  0  0
   21.5340   18.9575   20.6074 C   0  0  0  0  0  0  0  0  0  0  0  0
   22.6030   18.8370   20.8194 H   0  0  0  0  0  0  0  0  0  0  0  0
   21.2756   18.2122   19.8455 H   0  0  0  0  0  0  0  0  0  0  0  0
   21.3401   20.3493   20.0124 C   0  0  0  0  0  0  0  0  0  0  0  0
   21.9203   21.2808   20.5346 O   0  5  0  0  0  0  0  0  0  0  0  0
   20.6307   20.4627   19.0321 O   0  0  0  0  0  0  0  0  0  0  0  0
  1  2  1  0  0  0  0
  1  3  1  0  0  0  0
  1  4  2  0  0  0  0
  4  5  1  0  0  0  0
  4  6  1  0  0  0  0
  6  7  1  0  0  0  0
  6  8  1  0  0  0  0
  6  9  1  0  0  0  0
  9 10  1  0  0  0  0
  9 11  1  0  0  0  0
  9 12  1  0  0  0  0
 12 13  1  0  0  0  0
 12 14  1  0  0  0  0
 12 15  1  0  0  0  0
 15 16  1  0  0  0  0
 15 17  1  0  0  0  0
 15 18  1  0  0  0  0
 18 19  1  0  0  0  0
 18 20  2  0  0  0  0
M  END
> <VConfSearch Rank>
378

> <Conf_Id>
87

> <Delta U+W>
0.339

> <U+W>
-51.407

> <U>
10.461

> <W>
-61.867

> <W(PB)>
-64.045

> <W(SA)>
2.178

> <Valence>
9.555

> <Coulomb>
0.483

> <VdW>
0.423

> <VdW6>
-7.223

> <VdW12>
7.646

> <Bond>
0.126

> <Angle>
2.492

> <Pdih>
6.936

> <Idih>
0.001

> <Tether>
0.000

$$$$
VeraChem MOL file


 20 19  0  0  0  0  0  0  0  0999 V2000     
   21.9319   18.6793   20.3934 C   0  0  0  0  0  0  0  0  0  0  0  0
   22.7273   18.7299   21.1351 H   0  0  0  0  0  0  0  0  0  0  0  0
   22.0807   18.0178   19.5418 H   0  0  0  0  0  0  0  0  0  0  0  0
   20.8141   19.3988   20.5226 C   0  0  0  0  0  0  0  0  0  0  0  0
   20.0333   19.3414   19.7651 H   0  0  0  0  0  0  0  0  0  0  0  0
   20.5464   20.3466   21.6722 C   0  0  0  0  0  0  0  0  0  0  0  0
   19.7610   21.0638   21.3989 H   0  0  0  0  0  0  0  0  0  0  0  0
   21.4500   20.9464   21.8460 H   0  0  0  0  0  0  0  0  0  0  0  0
   20.1726   19.6287   22.9928 C   0  0  0  0  0  0  0  0  0  0  0  0
   20.8555   18.7863   23.1688 H   0  0  0  0  0  0  0  0  0  0  0  0
   20.3436   20.3323   23.8189 H   0  0  0  0  0  0  0  0  0  0  0  0
   18.7019   19.1491   23.0811 C   0  0  0  0  0  0  0  0  0  0  0  0
   18.0223   19.9911   22.8908 H   0  0  0  0  0  0  0  0  0  0  0  0
   18.5070   18.8240   24.1125 H   0  0  0  0  0  0  0  0  0  0  0  0
   18.3555   17.9774   22.1268 C   0  0  0  0  0  0  0  0  0  0  0  0
   18.3937   18.3066   21.0836 H   0  0  0  0  0  0  0  0  0  0  0  0
   19.0843   17.1663   22.2413 H   0  0  0  0  0  0  0  0  0  0  0  0
   16.9651   17.4047   22.3764 C   0  0  0  0  0  0  0  0  0  0  0  0
   16.0250   17.9026   21.7888 O   0  5  0  0  0  0  0  0  0  0  0  0
   16.8552   16.4891   23.1679 O   0  0  0  0  0  0  0  0  0  0  0  0
  1  2  1  0  0  0  0
  1  3  1  0  0  0  0
  1  4  2  0  0  0  0
  4  5  1  0  0  0  0
  4  6  1  0  0  0  0
  6  7  1  0  0  0  0
  6  8  1  0  0  0  0
  6  9  1  0  0  0  0
  9 10  1  0  0  0  0
  9 11  1  0  0  0  0
  9 12  1  0  0  0  0
 12 13  1  0  0  0  0
 12 14  1  0  0  0  0
 12 15  1  0  0  0  0
 15 16  1  0  0  0  0
 15 17  1  0  0  0  0
 15 18  1  0  0  0  0
 18 19  1  0  0  0  0
 18 20  2  0  0  0  0
M  END
> <VConfSearch Rank>
379

> <Conf_Id>
51

> <Delta U+W>
1.709

> <U+W>
-50.036

> <U>
10.643

> <W>
-60.679

> <W(PB)>
-62.882

> <W(SA)>
2.203

> <Valence>
11.231

> <Coulomb>
-1.077

> <VdW>
0.489

> <VdW6>
-7.546

> <VdW12>
8.035

> <Bond>
0.159

> <Angle>
3.005

> <Pdih>
8.065

> <Idih>
0.002

> <Tether>
0.000

$$$$
VeraChem MOL file


 20 19  0  0  0  0  0  0  0  0999 V2000     
   20.4092   16.4017   21.7320 C   0  0  0  0  0  0  0  0  0  0  0  0
   21.3088   16.4605   21.1215 H   0  0  0  0  0  0  0  0  0  0  0  0
   19.7579   15.5419   21.5851 H   0  0  0  0  0  0  0  0  0  0  0  0
   20.1126   17.3485   22.6260 C   0  0  0  0  0  0  0  0  0  0  0  0
   19.2122   17.2674   23.2340 H   0  0  0  0  0  0  0  0  0  0  0  0
   20.9774   18.5624   22.8910 C   0  0  0  0  0  0  0  0  0  0  0  0
   22.0233   18.2349   22.9638 H   0  0  0  0  0  0  0  0  0  0  0  0
   20.7330   18.9974   23.8692 H   0  0  0  0  0  0  0  0  0  0  0  0
   20.8782   19.6463   21.7890 C   0  0  0  0  0  0  0  0  0  0  0  0
   21.7628   20.2925   21.8713 H   0  0  0  0  0  0  0  0  0  0  0  0
   20.9378   19.1794   20.7963 H   0  0  0  0  0  0  0  0  0  0  0  0
   19.6245   20.5528   21.8764 C   0  0  0  0  0  0  0  0  0  0  0  0
   19.7505   21.3838   21.1686 H   0  0  0  0  0  0  0  0  0  0  0  0
   19.5606   21.0068   22.8749 H   0  0  0  0  0  0  0  0  0  0  0  0
   18.2923   19.8310   21.5489 C   0  0  0  0  0  0  0  0  0  0  0  0
   18.3751   19.2950   20.5958 H   0  0  0  0  0  0  0  0  0  0  0  0
   18.0554   19.0915   22.3203 H   0  0  0  0  0  0  0  0  0  0  0  0
   17.1104   20.7888   21.4533 C   0  0  0  0  0  0  0  0  0  0  0  0
   16.4944   21.0439   22.4694 O   0  5  0  0  0  0  0  0  0  0  0  0
   16.8489   21.2712   20.3690 O   0  0  0  0  0  0  0  0  0  0  0  0
  1  2  1  0  0  0  0
  1  3  1  0  0  0  0
  1  4  2  0  0  0  0
  4  5  1  0  0  0  0
  4  6  1  0  0  0  0
  6  7  1  0  0  0  0
  6  8  1  0  0  0  0
  6  9  1  0  0  0  0
  9 10  1  0  0  0  0
  9 11  1  0  0  0  0
  9 12  1  0  0  0  0
 12 13  1  0  0  0  0
 12 14  1  0  0  0  0
 12 15  1  0  0  0  0
 15 16  1  0  0  0  0
 15 17  1  0  0  0  0
 15 18  1  0  0  0  0
 18 19  1  0  0  0  0
 18 20  2  0  0  0  0
M  END
> <VConfSearch Rank>
380

> <Conf_Id>
91

> <Delta U+W>
1.604

> <U+W>
-50.141

> <U>
10.644

> <W>
-60.786

> <W(PB)>
-62.965

> <W(SA)>
2.179

> <Valence>
11.230

> <Coulomb>
-1.075

> <VdW>
0.489

> <VdW6>
-7.547

> <VdW12>
8.036

> <Bond>
0.159

> <Angle>
3.006

> <Pdih>
8.064

> <Idih>
0.002

> <Tether>
0.000

$$$$
VeraChem MOL file


 20 19  0  0  0  0  0  0  0  0999 V2000     
   23.0985   20.6516   21.5862 C   0  0  0  0  0  0  0  0  0  0  0  0
   22.6585   21.3291   20.8562 H   0  0  0  0  0  0  0  0  0  0  0  0
   24.1825   20.5502   21.5859 H   0  0  0  0  0  0  0  0  0  0  0  0
   22.3417   19.9677   22.4484 C   0  0  0  0  0  0  0  0  0  0  0  0
   22.8021   19.2940   23.1708 H   0  0  0  0  0  0  0  0  0  0  0  0
   20.8331   20.0577   22.5087 C   0  0  0  0  0  0  0  0  0  0  0  0
   20.4813   20.9316   21.9436 H   0  0  0  0  0  0  0  0  0  0  0  0
   20.5151   20.2056   23.5494 H   0  0  0  0  0  0  0  0  0  0  0  0
   20.1759   18.7814   21.9430 C   0  0  0  0  0  0  0  0  0  0  0  0
   20.5005   18.6358   20.9034 H   0  0  0  0  0  0  0  0  0  0  0  0
   20.5244   17.9082   22.5114 H   0  0  0  0  0  0  0  0  0  0  0  0
   18.6343   18.8553   21.9997 C   0  0  0  0  0  0  0  0  0  0  0  0
   18.2848   19.7282   21.4309 H   0  0  0  0  0  0  0  0  0  0  0  0
   18.3090   19.0022   23.0390 H   0  0  0  0  0  0  0  0  0  0  0  0
   17.9736   17.5718   21.4300 C   0  0  0  0  0  0  0  0  0  0  0  0
   18.2889   17.4226   20.3906 H   0  0  0  0  0  0  0  0  0  0  0  0
   18.3130   16.6971   21.9971 H   0  0  0  0  0  0  0  0  0  0  0  0
   16.4443   17.5620   21.4484 C   0  0  0  0  0  0  0  0  0  0  0  0
   15.8909   16.5726   21.0114 O   0  5  0  0  0  0  0  0  0  0  0  0
   15.8405   18.5211   21.8891 O   0  0  0  0  0  0  0  0  0  0  0  0
  1  2  1  0  0  0  0
  1  3  1  0  0  0  0
  1  4  2  0  0  0  0
  4  5  1  0  0  0  0
  4  6  1  0  0  0  0
  6  7  1  0  0  0  0
  6  8  1  0  0  0  0
  6  9  1  0  0  0  0
  9 10  1  0  0  0  0
  9 11  1  0  0  0  0
  9 12  1  0  0  0  0
 12 13  1  0  0  0  0
 12 14  1  0  0  0  0
 12 15  1  0  0  0  0
 15 16  1  0  0  0  0
 15 17  1  0  0  0  0
 15 18  1  0  0  0  0
 18 19  1  0  0  0  0
 18 20  2  0  0  0  0
M  END
> <VConfSearch Rank>
381

> <Conf_Id>
33

> <Delta U+W>
0.000

> <U+W>
-51.745

> <U>
7.593

> <W>
-59.338

> <W(PB)>
-61.574

> <W(SA)>
2.236

> <Valence>
9.570

> <Coulomb>
-3.091

> <VdW>
1.114

> <VdW6>
-6.064

> <VdW12>
7.178

> <Bond>
0.117

> <Angle>
2.692

> <Pdih>
6.761

> <Idih>
0.000

> <Tether>
0.000

$$$$
VeraChem MOL file


 20 19  0  0  0  0  0  0  0  0999 V2000     
   16.6595   19.0956   23.8433 C   0  0  0  0  0  0  0  0  0  0  0  0
   16.3445   19.9840   23.2983 H   0  0  0  0  0  0  0  0  0  0  0  0
   16.0753   18.8103   24.7165 H   0  0  0  0  0  0  0  0  0  0  0  0
   17.7218   18.3824   23.4605 C   0  0  0  0  0  0  0  0  0  0  0  0
   18.0209   17.4967   24.0205 H   0  0  0  0  0  0  0  0  0  0  0  0
   18.5794   18.7163   22.2603 C   0  0  0  0  0  0  0  0  0  0  0  0
   18.0684   19.4484   21.6204 H   0  0  0  0  0  0  0  0  0  0  0  0
   18.7213   17.8112   21.6564 H   0  0  0  0  0  0  0  0  0  0  0  0
   19.9491   19.2825   22.6974 C   0  0  0  0  0  0  0  0  0  0  0  0
   19.7808   20.1358   23.3689 H   0  0  0  0  0  0  0  0  0  0  0  0
   20.4906   18.5281   23.2845 H   0  0  0  0  0  0  0  0  0  0  0  0
   20.8291   19.7518   21.5144 C   0  0  0  0  0  0  0  0  0  0  0  0
   21.7277   20.2404   21.9160 H   0  0  0  0  0  0  0  0  0  0  0  0
   20.2941   20.5161   20.9339 H   0  0  0  0  0  0  0  0  0  0  0  0
   21.2672   18.5995   20.5736 C   0  0  0  0  0  0  0  0  0  0  0  0
   21.7652   17.8098   21.1487 H   0  0  0  0  0  0  0  0  0  0  0  0
   20.3969   18.1472   20.0849 H   0  0  0  0  0  0  0  0  0  0  0  0
   22.2235   19.0628   19.4805 C   0  0  0  0  0  0  0  0  0  0  0  0
   21.7498   19.4612   18.4347 O   0  5  0  0  0  0  0  0  0  0  0  0
   23.4162   19.0318   19.7109 O   0  0  0  0  0  0  0  0  0  0  0  0
  1  2  1  0  0  0  0
  1  3  1  0  0  0  0
  1  4  2  0  0  0  0
  4  5  1  0  0  0  0
  4  6  1  0  0  0  0
  6  7  1  0  0  0  0
  6  8  1  0  0  0  0
  6  9  1  0  0  0  0
  9 10  1  0  0  0  0
  9 11  1  0  0  0  0
  9 12  1  0  0  0  0
 12 13  1  0  0  0  0
 12 14  1  0  0  0  0
 12 15  1  0  0  0  0
 15 16  1  0  0  0  0
 15 17  1  0  0  0  0
 15 18  1  0  0  0  0
 18 19  1  0  0  0  0
 18 20  2  0  0  0  0
M  END
> <VConfSearch Rank>
382

> <Conf_Id>
37

> <Delta U+W>
-0.384

> <U+W>
-52.130

> <U>
7.491

> <W>
-59.621

> <W(PB)>
-61.853

> <W(SA)>
2.232

> <Valence>
9.604

> <Coulomb>
-2.799

> <VdW>
0.686

> <VdW6>
-6.435

> <VdW12>
7.121

> <Bond>
0.124

> <Angle>
2.493

> <Pdih>
6.986

> <Idih>
0.001

> <Tether>
0.000

$$$$
VeraChem MOL file


 20 19  0  0  0  0  0  0  0  0999 V2000     
   19.0190   17.2523   24.6435 C   0  0  0  0  0  0  0  0  0  0  0  0
   18.7703   16.6952   25.5451 H   0  0  0  0  0  0  0  0  0  0  0  0
   19.0889   16.6836   23.7187 H   0  0  0  0  0  0  0  0  0  0  0  0
   19.2253   18.5733   24.6917 C   0  0  0  0  0  0  0  0  0  0  0  0
   19.1412   19.0882   25.6485 H   0  0  0  0  0  0  0  0  0  0  0  0
   19.5777   19.4810   23.5251 C   0  0  0  0  0  0  0  0  0  0  0  0
   20.5214   19.9954   23.7508 H   0  0  0  0  0  0  0  0  0  0  0  0
   18.8194   20.2721   23.4520 H   0  0  0  0  0  0  0  0  0  0  0  0
   19.7022   18.7700   22.1573 C   0  0  0  0  0  0  0  0  0  0  0  0
   20.4744   17.9908   22.2176 H   0  0  0  0  0  0  0  0  0  0  0  0
   18.7540   18.2705   21.9156 H   0  0  0  0  0  0  0  0  0  0  0  0
   20.0615   19.7605   21.0281 C   0  0  0  0  0  0  0  0  0  0  0  0
   21.0095   20.2637   21.2639 H   0  0  0  0  0  0  0  0  0  0  0  0
   19.2926   20.5428   20.9626 H   0  0  0  0  0  0  0  0  0  0  0  0
   20.1867   19.0509   19.6573 C   0  0  0  0  0  0  0  0  0  0  0  0
   20.9604   18.2750   19.7017 H   0  0  0  0  0  0  0  0  0  0  0  0
   19.2435   18.5541   19.4004 H   0  0  0  0  0  0  0  0  0  0  0  0
   20.5410   20.0086   18.5254 C   0  0  0  0  0  0  0  0  0  0  0  0
   21.7163   20.2074   18.2890 O   0  5  0  0  0  0  0  0  0  0  0  0
   19.6326   20.5457   17.9230 O   0  0  0  0  0  0  0  0  0  0  0  0
  1  2  1  0  0  0  0
  1  3  1  0  0  0  0
  1  4  2  0  0  0  0
  4  5  1  0  0  0  0
  4  6  1  0  0  0  0
  6  7  1  0  0  0  0
  6  8  1  0  0  0  0
  6  9  1  0  0  0  0
  9 10  1  0  0  0  0
  9 11  1  0  0  0  0
  9 12  1  0  0  0  0
 12 13  1  0  0  0  0
 12 14  1  0  0  0  0
 12 15  1  0  0  0  0
 15 16  1  0  0  0  0
 15 17  1  0  0  0  0
 15 18  1  0  0  0  0
 18 19  1  0  0  0  0
 18 20  2  0  0  0  0
M  END
> <VConfSearch Rank>
383

> <Conf_Id>
44

> <Delta U+W>
-1.440

> <U+W>
-53.185

> <U>
6.572

> <W>
-59.757

> <W(PB)>
-62.007

> <W(SA)>
2.249

> <Valence>
7.989

> <Coulomb>
-2.697

> <VdW>
1.281

> <VdW6>
-6.467

> <VdW12>
7.748

> <Bond>
0.136

> <Angle>
2.854

> <Pdih>
4.997

> <Idih>
0.001

> <Tether>
0.000

$$$$
VeraChem MOL file


 20 19  0  0  0  0  0  0  0  0999 V2000     
   21.5930   16.4052   23.2230 C   0  0  0  0  0  0  0  0  0  0  0  0
   20.5866   16.0050   23.3358 H   0  0  0  0  0  0  0  0  0  0  0  0
   22.3972   15.8939   23.7494 H   0  0  0  0  0  0  0  0  0  0  0  0
   21.8353   17.4824   22.4717 C   0  0  0  0  0  0  0  0  0  0  0  0
   22.8501   17.8672   22.3726 H   0  0  0  0  0  0  0  0  0  0  0  0
   20.7714   18.2428   21.7116 C   0  0  0  0  0  0  0  0  0  0  0  0
   19.8563   17.6402   21.6480 H   0  0  0  0  0  0  0  0  0  0  0  0
   21.1098   18.4156   20.6813 H   0  0  0  0  0  0  0  0  0  0  0  0
   20.4649   19.5968   22.3905 C   0  0  0  0  0  0  0  0  0  0  0  0
   20.0746   19.4206   23.4023 H   0  0  0  0  0  0  0  0  0  0  0  0
   21.4041   20.1535   22.5133 H   0  0  0  0  0  0  0  0  0  0  0  0
   19.4713   20.4761   21.5943 C   0  0  0  0  0  0  0  0  0  0  0  0
   19.8649   20.6612   20.5853 H   0  0  0  0  0  0  0  0  0  0  0  0
   19.3993   21.4573   22.0838 H   0  0  0  0  0  0  0  0  0  0  0  0
   18.0493   19.8658   21.4917 C   0  0  0  0  0  0  0  0  0  0  0  0
   18.0711   18.9270   20.9270 H   0  0  0  0  0  0  0  0  0  0  0  0
   17.6631   19.6357   22.4919 H   0  0  0  0  0  0  0  0  0  0  0  0
   17.0570   20.7968   20.8044 C   0  0  0  0  0  0  0  0  0  0  0  0
   16.4313   21.5780   21.4936 O   0  5  0  0  0  0  0  0  0  0  0  0
   16.9502   20.7303   19.5957 O   0  0  0  0  0  0  0  0  0  0  0  0
  1  2  1  0  0  0  0
  1  3  1  0  0  0  0
  1  4  2  0  0  0  0
  4  5  1  0  0  0  0
  4  6  1  0  0  0  0
  6  7  1  0  0  0  0
  6  8  1  0  0  0  0
  6  9  1  0  0  0  0
  9 10  1  0  0  0  0
  9 11  1  0  0  0  0
  9 12  1  0  0  0  0
 12 13  1  0  0  0  0
 12 14  1  0  0  0  0
 12 15  1  0  0  0  0
 15 16  1  0  0  0  0
 15 17  1  0  0  0  0
 15 18  1  0  0  0  0
 18 19  1  0  0  0  0
 18 20  2  0  0  0  0
M  END
> <VConfSearch Rank>
384

> <Conf_Id>
38

> <Delta U+W>
-0.381

> <U+W>
-52.126

> <U>
7.601

> <W>
-59.727

> <W(PB)>
-61.964

> <W(SA)>
2.236

> <Valence>
9.602

> <Coulomb>
-2.686

> <VdW>
0.685

> <VdW6>
-6.453

> <VdW12>
7.139

> <Bond>
0.125

> <Angle>
2.485

> <Pdih>
6.991

> <Idih>
0.001

> <Tether>
0.000

$$$$
VeraChem MOL file


 20 19  0  0  0  0  0  0  0  0999 V2000     
   23.1829   18.6297   22.6021 C   0  0  0  0  0  0  0  0  0  0  0  0
   23.3011   19.5345   23.1961 H   0  0  0  0  0  0  0  0  0  0  0  0
   23.9190   17.8396   22.7407 H   0  0  0  0  0  0  0  0  0  0  0  0
   22.1744   18.4893   21.7379 C   0  0  0  0  0  0  0  0  0  0  0  0
   22.0735   17.5750   21.1535 H   0  0  0  0  0  0  0  0  0  0  0  0
   21.1161   19.5415   21.4917 C   0  0  0  0  0  0  0  0  0  0  0  0
   20.9964   19.6963   20.4110 H   0  0  0  0  0  0  0  0  0  0  0  0
   21.4314   20.5045   21.9160 H   0  0  0  0  0  0  0  0  0  0  0  0
   19.7636   19.1261   22.1073 C   0  0  0  0  0  0  0  0  0  0  0  0
   19.4494   18.1640   21.6795 H   0  0  0  0  0  0  0  0  0  0  0  0
   19.8884   18.9676   23.1874 H   0  0  0  0  0  0  0  0  0  0  0  0
   18.6696   20.1898   21.8621 C   0  0  0  0  0  0  0  0  0  0  0  0
   18.5347   20.3432   20.7823 H   0  0  0  0  0  0  0  0  0  0  0  0
   18.9991   21.1511   22.2792 H   0  0  0  0  0  0  0  0  0  0  0  0
   17.3096   19.8044   22.4998 C   0  0  0  0  0  0  0  0  0  0  0  0
   17.4332   19.6206   23.5740 H   0  0  0  0  0  0  0  0  0  0  0  0
   16.6076   20.6406   22.3995 H   0  0  0  0  0  0  0  0  0  0  0  0
   16.6535   18.5798   21.8684 C   0  0  0  0  0  0  0  0  0  0  0  0
   16.6833   17.5304   22.4806 O   0  5  0  0  0  0  0  0  0  0  0  0
   16.1199   18.7114   20.7844 O   0  0  0  0  0  0  0  0  0  0  0  0
  1  2  1  0  0  0  0
  1  3  1  0  0  0  0
  1  4  2  0  0  0  0
  4  5  1  0  0  0  0
  4  6  1  0  0  0  0
  6  7  1  0  0  0  0
  6  8  1  0  0  0  0
  6  9  1  0  0  0  0
  9 10  1  0  0  0  0
  9 11  1  0  0  0  0
  9 12  1  0  0  0  0
 12 13  1  0  0  0  0
 12 14  1  0  0  0  0
 12 15  1  0  0  0  0
 15 16  1  0  0  0  0
 15 17  1  0  0  0  0
 15 18  1  0  0  0  0
 18 19  1  0  0  0  0
 18 20  2  0  0  0  0
M  END
> <VConfSearch Rank>
385

> <Conf_Id>
58

> <Delta U+W>
0.019

> <U+W>
-51.727

> <U>
8.963

> <W>
-60.690

> <W(PB)>
-62.934

> <W(SA)>
2.244

> <Valence>
9.327

> <Coulomb>
-0.780

> <VdW>
0.417

> <VdW6>
-6.635

> <VdW12>
7.052

> <Bond>
0.105

> <Angle>
2.399

> <Pdih>
6.822

> <Idih>
0.000

> <Tether>
0.000

$$$$
VeraChem MOL file


 20 19  0  0  0  0  0  0  0  0999 V2000     
   18.2191   20.2874   25.0864 C   0  0  0  0  0  0  0  0  0  0  0  0
   17.2193   20.0344   24.7374 H   0  0  0  0  0  0  0  0  0  0  0  0
   18.2988   21.0087   25.8980 H   0  0  0  0  0  0  0  0  0  0  0  0
   19.3080   19.7388   24.5413 C   0  0  0  0  0  0  0  0  0  0  0  0
   20.2999   20.0065   24.9048 H   0  0  0  0  0  0  0  0  0  0  0  0
   19.2758   18.7313   23.4137 C   0  0  0  0  0  0  0  0  0  0  0  0
   18.2595   18.3336   23.2881 H   0  0  0  0  0  0  0  0  0  0  0  0
   19.9204   17.8784   23.6647 H   0  0  0  0  0  0  0  0  0  0  0  0
   19.7482   19.3638   22.0879 C   0  0  0  0  0  0  0  0  0  0  0  0
   19.1040   20.2194   21.8426 H   0  0  0  0  0  0  0  0  0  0  0  0
   20.7656   19.7588   22.2155 H   0  0  0  0  0  0  0  0  0  0  0  0
   19.7242   18.3462   20.9250 C   0  0  0  0  0  0  0  0  0  0  0  0
   18.7073   17.9455   20.8153 H   0  0  0  0  0  0  0  0  0  0  0  0
   20.3760   17.4939   21.1625 H   0  0  0  0  0  0  0  0  0  0  0  0
   20.1669   18.9711   19.5766 C   0  0  0  0  0  0  0  0  0  0  0  0
   20.0186   18.2441   18.7694 H   0  0  0  0  0  0  0  0  0  0  0  0
   19.5428   19.8411   19.3390 H   0  0  0  0  0  0  0  0  0  0  0  0
   21.6315   19.3983   19.5424 C   0  0  0  0  0  0  0  0  0  0  0  0
   22.4776   18.5330   19.4311 O   0  5  0  0  0  0  0  0  0  0  0  0
   21.8875   20.5840   19.6165 O   0  0  0  0  0  0  0  0  0  0  0  0
  1  2  1  0  0  0  0
  1  3  1  0  0  0  0
  1  4  2  0  0  0  0
  4  5  1  0  0  0  0
  4  6  1  0  0  0  0
  6  7  1  0  0  0  0
  6  8  1  0  0  0  0
  6  9  1  0  0  0  0
  9 10  1  0  0  0  0
  9 11  1  0  0  0  0
  9 12  1  0  0  0  0
 12 13  1  0  0  0  0
 12 14  1  0  0  0  0
 12 15  1  0  0  0  0
 15 16  1  0  0  0  0
 15 17  1  0  0  0  0
 15 18  1  0  0  0  0
 18 19  1  0  0  0  0
 18 20  2  0  0  0  0
M  END
> <VConfSearch Rank>
386

> <Conf_Id>
54

> <Delta U+W>
-0.048

> <U+W>
-51.793

> <U>
8.964

> <W>
-60.756

> <W(PB)>
-63.007

> <W(SA)>
2.251

> <Valence>
9.327

> <Coulomb>
-0.780

> <VdW>
0.417

> <VdW6>
-6.635

> <VdW12>
7.052

> <Bond>
0.105

> <Angle>
2.399

> <Pdih>
6.822

> <Idih>
0.000

> <Tether>
0.000

$$$$
VeraChem MOL file


 20 19  0  0  0  0  0  0  0  0999 V2000     
   21.9735   16.7633   23.0815 C   0  0  0  0  0  0  0  0  0  0  0  0
   22.1276   16.2697   24.0396 H   0  0  0  0  0  0  0  0  0  0  0  0
   22.1161   16.1670   22.1818 H   0  0  0  0  0  0  0  0  0  0  0  0
   21.6205   18.0497   23.0168 C   0  0  0  0  0  0  0  0  0  0  0  0
   21.4865   18.6293   23.9297 H   0  0  0  0  0  0  0  0  0  0  0  0
   21.3961   18.8028   21.7229 C   0  0  0  0  0  0  0  0  0  0  0  0
   21.8926   18.2755   20.8971 H   0  0  0  0  0  0  0  0  0  0  0  0
   21.8653   19.7941   21.7804 H   0  0  0  0  0  0  0  0  0  0  0  0
   19.8965   18.9548   21.3820 C   0  0  0  0  0  0  0  0  0  0  0  0
   19.8070   19.3822   20.3739 H   0  0  0  0  0  0  0  0  0  0  0  0
   19.4282   17.9616   21.3432 H   0  0  0  0  0  0  0  0  0  0  0  0
   19.1385   19.8527   22.3886 C   0  0  0  0  0  0  0  0  0  0  0  0
   19.6155   20.8414   22.4384 H   0  0  0  0  0  0  0  0  0  0  0  0
   19.2083   19.4166   23.3938 H   0  0  0  0  0  0  0  0  0  0  0  0
   17.6406   20.0229   22.0243 C   0  0  0  0  0  0  0  0  0  0  0  0
   17.1582   19.0417   21.9376 H   0  0  0  0  0  0  0  0  0  0  0  0
   17.1263   20.5594   22.8302 H   0  0  0  0  0  0  0  0  0  0  0  0
   17.4000   20.8001   20.7332 C   0  0  0  0  0  0  0  0  0  0  0  0
   17.0708   20.1807   19.7408 O   0  5  0  0  0  0  0  0  0  0  0  0
   17.5380   22.0074   20.7577 O   0  0  0  0  0  0  0  0  0  0  0  0
  1  2  1  0  0  0  0
  1  3  1  0  0  0  0
  1  4  2  0  0  0  0
  4  5  1  0  0  0  0
  4  6  1  0  0  0  0
  6  7  1  0  0  0  0
  6  8  1  0  0  0  0
  6  9  1  0  0  0  0
  9 10  1  0  0  0  0
  9 11  1  0  0  0  0
  9 12  1  0  0  0  0
 12 13  1  0  0  0  0
 12 14  1  0  0  0  0
 12 15  1  0  0  0  0
 15 16  1  0  0  0  0
 15 17  1  0  0  0  0
 15 18  1  0  0  0  0
 18 19  1  0  0  0  0
 18 20  2  0  0  0  0
M  END
> <VConfSearch Rank>
387

> <Conf_Id>
27

> <Delta U+W>
0.478

> <U+W>
-51.267

> <U>
9.192

> <W>
-60.459

> <W(PB)>
-62.649

> <W(SA)>
2.190

> <Valence>
9.572

> <Coulomb>
-0.884

> <VdW>
0.504

> <VdW6>
-7.168

> <VdW12>
7.672

> <Bond>
0.127

> <Angle>
2.504

> <Pdih>
6.941

> <Idih>
0.001

> <Tether>
0.000

$$$$
VeraChem MOL file


 20 19  0  0  0  0  0  0  0  0999 V2000     
   18.0062   21.4312   20.6842 C   0  0  0  0  0  0  0  0  0  0  0  0
   18.3499   22.3108   21.2262 H   0  0  0  0  0  0  0  0  0  0  0  0
   16.9883   21.4462   20.2985 H   0  0  0  0  0  0  0  0  0  0  0  0
   18.7983   20.3717   20.5003 C   0  0  0  0  0  0  0  0  0  0  0  0
   18.4353   19.5028   19.9521 H   0  0  0  0  0  0  0  0  0  0  0  0
   20.2240   20.2824   21.0014 C   0  0  0  0  0  0  0  0  0  0  0  0
   20.6077   21.2906   21.2083 H   0  0  0  0  0  0  0  0  0  0  0  0
   20.8700   19.8625   20.2188 H   0  0  0  0  0  0  0  0  0  0  0  0
   20.3434   19.4337   22.2873 C   0  0  0  0  0  0  0  0  0  0  0  0
   21.3693   19.5164   22.6716 H   0  0  0  0  0  0  0  0  0  0  0  0
   19.6833   19.8492   23.0612 H   0  0  0  0  0  0  0  0  0  0  0  0
   20.0067   17.9425   22.0568 C   0  0  0  0  0  0  0  0  0  0  0  0
   20.6501   17.5354   21.2645 H   0  0  0  0  0  0  0  0  0  0  0  0
   18.9695   17.8416   21.7094 H   0  0  0  0  0  0  0  0  0  0  0  0
   20.1913   17.1051   23.3463 C   0  0  0  0  0  0  0  0  0  0  0  0
   21.2261   17.1788   23.7014 H   0  0  0  0  0  0  0  0  0  0  0  0
   19.5460   17.4920   24.1442 H   0  0  0  0  0  0  0  0  0  0  0  0
   19.8639   15.6298   23.1456 C   0  0  0  0  0  0  0  0  0  0  0  0
   18.7212   15.2642   23.3388 O   0  5  0  0  0  0  0  0  0  0  0  0
   20.7563   14.8883   22.7843 O   0  0  0  0  0  0  0  0  0  0  0  0
  1  2  1  0  0  0  0
  1  3  1  0  0  0  0
  1  4  2  0  0  0  0
  4  5  1  0  0  0  0
  4  6  1  0  0  0  0
  6  7  1  0  0  0  0
  6  8  1  0  0  0  0
  6  9  1  0  0  0  0
  9 10  1  0  0  0  0
  9 11  1  0  0  0  0
  9 12  1  0  0  0  0
 12 13  1  0  0  0  0
 12 14  1  0  0  0  0
 12 15  1  0  0  0  0
 15 16  1  0  0  0  0
 15 17  1  0  0  0  0
 15 18  1  0  0  0  0
 18 19  1  0  0  0  0
 18 20  2  0  0  0  0
M  END
> <VConfSearch Rank>
388

> <Conf_Id>
41

> <Delta U+W>
-0.634

> <U+W>
-52.379

> <U>
7.828

> <W>
-60.207

> <W(PB)>
-62.449

> <W(SA)>
2.242

> <Valence>
9.300

> <Coulomb>
-2.080

> <VdW>
0.608

> <VdW6>
-6.341

> <VdW12>
6.949

> <Bond>
0.103

> <Angle>
2.334

> <Pdih>
6.862

> <Idih>
0.001

> <Tether>
0.000

$$$$
VeraChem MOL file


 20 19  0  0  0  0  0  0  0  0999 V2000     
   20.3009   21.2061   24.6929 C   0  0  0  0  0  0  0  0  0  0  0  0
   19.9284   21.5644   25.6511 H   0  0  0  0  0  0  0  0  0  0  0  0
   21.3059   21.5074   24.4017 H   0  0  0  0  0  0  0  0  0  0  0  0
   19.5520   20.4259   23.9093 C   0  0  0  0  0  0  0  0  0  0  0  0
   18.5485   20.1350   24.2193 H   0  0  0  0  0  0  0  0  0  0  0  0
   20.0003   19.8915   22.5673 C   0  0  0  0  0  0  0  0  0  0  0  0
   20.8932   20.4303   22.2225 H   0  0  0  0  0  0  0  0  0  0  0  0
   19.2114   20.0736   21.8261 H   0  0  0  0  0  0  0  0  0  0  0  0
   20.3085   18.3796   22.6471 C   0  0  0  0  0  0  0  0  0  0  0  0
   21.0253   18.2064   23.4615 H   0  0  0  0  0  0  0  0  0  0  0  0
   19.3952   17.8325   22.9187 H   0  0  0  0  0  0  0  0  0  0  0  0
   20.8992   17.7987   21.3387 C   0  0  0  0  0  0  0  0  0  0  0  0
   21.1597   16.7444   21.5060 H   0  0  0  0  0  0  0  0  0  0  0  0
   21.8405   18.3148   21.1064 H   0  0  0  0  0  0  0  0  0  0  0  0
   19.9524   17.8892   20.1108 C   0  0  0  0  0  0  0  0  0  0  0  0
   19.7310   18.9349   19.8687 H   0  0  0  0  0  0  0  0  0  0  0  0
   20.4556   17.4678   19.2328 H   0  0  0  0  0  0  0  0  0  0  0  0
   18.6353   17.1380   20.2829 C   0  0  0  0  0  0  0  0  0  0  0  0
   18.6619   15.9231   20.2588 O   0  5  0  0  0  0  0  0  0  0  0  0
   17.6160   17.7859   20.4184 O   0  0  0  0  0  0  0  0  0  0  0  0
  1  2  1  0  0  0  0
  1  3  1  0  0  0  0
  1  4  2  0  0  0  0
  4  5  1  0  0  0  0
  4  6  1  0  0  0  0
  6  7  1  0  0  0  0
  6  8  1  0  0  0  0
  6  9  1  0  0  0  0
  9 10  1  0  0  0  0
  9 11  1  0  0  0  0
  9 12  1  0  0  0  0
 12 13  1  0  0  0  0
 12 14  1  0  0  0  0
 12 15  1  0  0  0  0
 15 16  1  0  0  0  0
 15 17  1  0  0  0  0
 15 18  1  0  0  0  0
 18 19  1  0  0  0  0
 18 20  2  0  0  0  0
M  END
> <VConfSearch Rank>
389

> <Conf_Id>
84

> <Delta U+W>
0.942

> <U+W>
-50.803

> <U>
10.196

> <W>
-60.999

> <W(PB)>
-63.182

> <W(SA)>
2.182

> <Valence>
9.837

> <Coulomb>
0.032

> <VdW>
0.328

> <VdW6>
-7.642

> <VdW12>
7.969

> <Bond>
0.151

> <Angle>
2.748

> <Pdih>
6.937

> <Idih>
0.001

> <Tether>
0.000

$$$$
VeraChem MOL file


 20 19  0  0  0  0  0  0  0  0999 V2000     
   17.9692   16.5690   23.5467 C   0  0  0  0  0  0  0  0  0  0  0  0
   17.8374   15.9776   24.4512 H   0  0  0  0  0  0  0  0  0  0  0  0
   17.0703   16.8995   23.0287 H   0  0  0  0  0  0  0  0  0  0  0  0
   19.1877   16.8770   23.0950 C   0  0  0  0  0  0  0  0  0  0  0  0
   20.0748   16.5370   23.6289 H   0  0  0  0  0  0  0  0  0  0  0  0
   19.4486   17.6922   21.8479 C   0  0  0  0  0  0  0  0  0  0  0  0
   18.5333   17.7689   21.2454 H   0  0  0  0  0  0  0  0  0  0  0  0
   20.1953   17.1816   21.2251 H   0  0  0  0  0  0  0  0  0  0  0  0
   19.9502   19.1078   22.2022 C   0  0  0  0  0  0  0  0  0  0  0  0
   19.2015   19.6101   22.8304 H   0  0  0  0  0  0  0  0  0  0  0  0
   20.8679   19.0319   22.8014 H   0  0  0  0  0  0  0  0  0  0  0  0
   20.2250   19.9531   20.9379 C   0  0  0  0  0  0  0  0  0  0  0  0
   19.3053   20.0429   20.3432 H   0  0  0  0  0  0  0  0  0  0  0  0
   20.9596   19.4339   20.3076 H   0  0  0  0  0  0  0  0  0  0  0  0
   20.7606   21.3695   21.2723 C   0  0  0  0  0  0  0  0  0  0  0  0
   21.6644   21.2970   21.8893 H   0  0  0  0  0  0  0  0  0  0  0  0
   21.0485   21.8805   20.3461 H   0  0  0  0  0  0  0  0  0  0  0  0
   19.7510   22.2608   21.9901 C   0  0  0  0  0  0  0  0  0  0  0  0
   19.9015   22.4592   23.1797 O   0  5  0  0  0  0  0  0  0  0  0  0
   18.8475   22.7439   21.3363 O   0  0  0  0  0  0  0  0  0  0  0  0
  1  2  1  0  0  0  0
  1  3  1  0  0  0  0
  1  4  2  0  0  0  0
  4  5  1  0  0  0  0
  4  6  1  0  0  0  0
  6  7  1  0  0  0  0
  6  8  1  0  0  0  0
  6  9  1  0  0  0  0
  9 10  1  0  0  0  0
  9 11  1  0  0  0  0
  9 12  1  0  0  0  0
 12 13  1  0  0  0  0
 12 14  1  0  0  0  0
 12 15  1  0  0  0  0
 15 16  1  0  0  0  0
 15 17  1  0  0  0  0
 15 18  1  0  0  0  0
 18 19  1  0  0  0  0
 18 20  2  0  0  0  0
M  END
> <VConfSearch Rank>
390

> <Conf_Id>
81

> <Delta U+W>
-0.051

> <U+W>
-51.796

> <U>
9.412

> <W>
-61.209

> <W(PB)>
-63.452

> <W(SA)>
2.243

> <Valence>
9.329

> <Coulomb>
-0.323

> <VdW>
0.406

> <VdW6>
-6.640

> <VdW12>
7.046

> <Bond>
0.105

> <Angle>
2.401

> <Pdih>
6.823

> <Idih>
0.000

> <Tether>
0.000

$$$$
VeraChem MOL file


 20 19  0  0  0  0  0  0  0  0999 V2000     
   20.9178   16.1032   22.0305 C   0  0  0  0  0  0  0  0  0  0  0  0
   20.5121   15.5774   21.1678 H   0  0  0  0  0  0  0  0  0  0  0  0
   21.7932   15.6726   22.5138 H   0  0  0  0  0  0  0  0  0  0  0  0
   20.3678   17.2342   22.4798 C   0  0  0  0  0  0  0  0  0  0  0  0
   20.7881   17.7437   23.3464 H   0  0  0  0  0  0  0  0  0  0  0  0
   19.1493   17.8879   21.8637 C   0  0  0  0  0  0  0  0  0  0  0  0
   18.4498   18.1980   22.6508 H   0  0  0  0  0  0  0  0  0  0  0  0
   18.6057   17.1554   21.2521 H   0  0  0  0  0  0  0  0  0  0  0  0
   19.5153   19.0978   20.9710 C   0  0  0  0  0  0  0  0  0  0  0  0
   20.1447   18.7475   20.1415 H   0  0  0  0  0  0  0  0  0  0  0  0
   18.5983   19.4915   20.5116 H   0  0  0  0  0  0  0  0  0  0  0  0
   20.2525   20.2466   21.7064 C   0  0  0  0  0  0  0  0  0  0  0  0
   20.4871   21.0362   20.9793 H   0  0  0  0  0  0  0  0  0  0  0  0
   21.2183   19.8820   22.0804 H   0  0  0  0  0  0  0  0  0  0  0  0
   19.4543   20.8737   22.8819 C   0  0  0  0  0  0  0  0  0  0  0  0
   19.2682   20.1283   23.6634 H   0  0  0  0  0  0  0  0  0  0  0  0
   20.0534   21.6660   23.3455 H   0  0  0  0  0  0  0  0  0  0  0  0
   18.1221   21.4933   22.4698 C   0  0  0  0  0  0  0  0  0  0  0  0
   17.0975   20.9277   22.7975 O   0  5  0  0  0  0  0  0  0  0  0  0
   18.1446   22.5362   21.8459 O   0  0  0  0  0  0  0  0  0  0  0  0
  1  2  1  0  0  0  0
  1  3  1  0  0  0  0
  1  4  2  0  0  0  0
  4  5  1  0  0  0  0
  4  6  1  0  0  0  0
  6  7  1  0  0  0  0
  6  8  1  0  0  0  0
  6  9  1  0  0  0  0
  9 10  1  0  0  0  0
  9 11  1  0  0  0  0
  9 12  1  0  0  0  0
 12 13  1  0  0  0  0
 12 14  1  0  0  0  0
 12 15  1  0  0  0  0
 15 16  1  0  0  0  0
 15 17  1  0  0  0  0
 15 18  1  0  0  0  0
 18 19  1  0  0  0  0
 18 20  2  0  0  0  0
M  END
> <VConfSearch Rank>
391

> <Conf_Id>
86

> <Delta U+W>
1.248

> <U+W>
-50.498

> <U>
10.404

> <W>
-60.901

> <W(PB)>
-63.061

> <W(SA)>
2.159

> <Valence>
10.021

> <Coulomb>
0.094

> <VdW>
0.289

> <VdW6>
-8.409

> <VdW12>
8.698

> <Bond>
0.179

> <Angle>
2.939

> <Pdih>
6.902

> <Idih>
0.001

> <Tether>
0.000

$$$$
VeraChem MOL file


 20 19  0  0  0  0  0  0  0  0999 V2000     
   22.7815   19.9329   22.4319 C   0  0  0  0  0  0  0  0  0  0  0  0
   23.4129   20.7978   22.2360 H   0  0  0  0  0  0  0  0  0  0  0  0
   22.7018   19.5938   23.4634 H   0  0  0  0  0  0  0  0  0  0  0  0
   22.1289   19.3166   21.4429 C   0  0  0  0  0  0  0  0  0  0  0  0
   22.2205   19.6733   20.4173 H   0  0  0  0  0  0  0  0  0  0  0  0
   21.2341   18.1109   21.6375 C   0  0  0  0  0  0  0  0  0  0  0  0
   21.3556   17.6979   22.6481 H   0  0  0  0  0  0  0  0  0  0  0  0
   21.5418   17.3199   20.9407 H   0  0  0  0  0  0  0  0  0  0  0  0
   19.7445   18.4401   21.3908 C   0  0  0  0  0  0  0  0  0  0  0  0
   19.6226   18.8569   20.3817 H   0  0  0  0  0  0  0  0  0  0  0  0
   19.1683   17.5049   21.4147 H   0  0  0  0  0  0  0  0  0  0  0  0
   19.1694   19.4240   22.4372 C   0  0  0  0  0  0  0  0  0  0  0  0
   19.7401   20.3618   22.4096 H   0  0  0  0  0  0  0  0  0  0  0  0
   19.2949   19.0085   23.4466 H   0  0  0  0  0  0  0  0  0  0  0  0
   17.6714   19.7439   22.1950 C   0  0  0  0  0  0  0  0  0  0  0  0
   17.3496   20.5335   22.8842 H   0  0  0  0  0  0  0  0  0  0  0  0
   17.5262   20.1305   21.1790 H   0  0  0  0  0  0  0  0  0  0  0  0
   16.7410   18.5519   22.4006 C   0  0  0  0  0  0  0  0  0  0  0  0
   16.4861   18.2144   23.5400 O   0  5  0  0  0  0  0  0  0  0  0  0
   16.2868   17.9996   21.4179 O   0  0  0  0  0  0  0  0  0  0  0  0
  1  2  1  0  0  0  0
  1  3  1  0  0  0  0
  1  4  2  0  0  0  0
  4  5  1  0  0  0  0
  4  6  1  0  0  0  0
  6  7  1  0  0  0  0
  6  8  1  0  0  0  0
  6  9  1  0  0  0  0
  9 10  1  0  0  0  0
  9 11  1  0  0  0  0
  9 12  1  0  0  0  0
 12 13  1  0  0  0  0
 12 14  1  0  0  0  0
 12 15  1  0  0  0  0
 15 16  1  0  0  0  0
 15 17  1  0  0  0  0
 15 18  1  0  0  0  0
 18 19  1  0  0  0  0
 18 20  2  0  0  0  0
M  END
> <VConfSearch Rank>
392

> <Conf_Id>
28

> <Delta U+W>
0.446

> <U+W>
-51.299

> <U>
9.295

> <W>
-60.594

> <W(PB)>
-62.806

> <W(SA)>
2.212

> <Valence>
9.495

> <Coulomb>
-0.610

> <VdW>
0.409

> <VdW6>
-7.332

> <VdW12>
7.741

> <Bond>
0.126

> <Angle>
2.497

> <Pdih>
6.872

> <Idih>
0.000

> <Tether>
0.000

$$$$
VeraChem MOL file


 20 19  0  0  0  0  0  0  0  0999 V2000     
   22.5387   20.6735   21.5560 C   0  0  0  0  0  0  0  0  0  0  0  0
   22.6819   20.0441   22.4317 H   0  0  0  0  0  0  0  0  0  0  0  0
   23.4291   21.1331   21.1304 H   0  0  0  0  0  0  0  0  0  0  0  0
   21.3349   20.8820   21.0106 C   0  0  0  0  0  0  0  0  0  0  0  0
   21.2552   21.5211   20.1315 H   0  0  0  0  0  0  0  0  0  0  0  0
   20.0092   20.3142   21.4895 C   0  0  0  0  0  0  0  0  0  0  0  0
   19.5926   19.6869   20.6910 H   0  0  0  0  0  0  0  0  0  0  0  0
   19.2998   21.1419   21.6213 H   0  0  0  0  0  0  0  0  0  0  0  0
   20.0841   19.5010   22.8055 C   0  0  0  0  0  0  0  0  0  0  0  0
   20.7224   18.6189   22.6585 H   0  0  0  0  0  0  0  0  0  0  0  0
   20.5679   20.1142   23.5779 H   0  0  0  0  0  0  0  0  0  0  0  0
   18.6985   19.0578   23.3373 C   0  0  0  0  0  0  0  0  0  0  0  0
   18.0832   19.9472   23.5294 H   0  0  0  0  0  0  0  0  0  0  0  0
   18.8351   18.5633   24.3090 H   0  0  0  0  0  0  0  0  0  0  0  0
   17.9236   18.0967   22.3947 C   0  0  0  0  0  0  0  0  0  0  0  0
   16.9563   17.8480   22.8465 H   0  0  0  0  0  0  0  0  0  0  0  0
   17.7023   18.5857   21.4393 H   0  0  0  0  0  0  0  0  0  0  0  0
   18.6445   16.7809   22.1156 C   0  0  0  0  0  0  0  0  0  0  0  0
   18.7304   15.9722   23.0190 O   0  5  0  0  0  0  0  0  0  0  0  0
   19.0822   16.5899   20.9981 O   0  0  0  0  0  0  0  0  0  0  0  0
  1  2  1  0  0  0  0
  1  3  1  0  0  0  0
  1  4  2  0  0  0  0
  4  5  1  0  0  0  0
  4  6  1  0  0  0  0
  6  7  1  0  0  0  0
  6  8  1  0  0  0  0
  6  9  1  0  0  0  0
  9 10  1  0  0  0  0
  9 11  1  0  0  0  0
  9 12  1  0  0  0  0
 12 13  1  0  0  0  0
 12 14  1  0  0  0  0
 12 15  1  0  0  0  0
 15 16  1  0  0  0  0
 15 17  1  0  0  0  0
 15 18  1  0  0  0  0
 18 19  1  0  0  0  0
 18 20  2  0  0  0  0
M  END
> <VConfSearch Rank>
393

> <Conf_Id>
53

> <Delta U+W>
0.549

> <U+W>
-51.197

> <U>
10.870

> <W>
-62.067

> <W(PB)>
-64.228

> <W(SA)>
2.161

> <Valence>
8.803

> <Coulomb>
1.020

> <VdW>
1.048

> <VdW6>
-8.312

> <VdW12>
9.360

> <Bond>
0.212

> <Angle>
3.379

> <Pdih>
5.211

> <Idih>
0.001

> <Tether>
0.000

$$$$
VeraChem MOL file


 20 19  0  0  0  0  0  0  0  0999 V2000     
   17.1279   17.8664   22.5702 C   0  0  0  0  0  0  0  0  0  0  0  0
   17.0360   18.0980   21.5114 H   0  0  0  0  0  0  0  0  0  0  0  0
   16.2178   17.9073   23.1659 H   0  0  0  0  0  0  0  0  0  0  0  0
   18.2982   17.5382   23.1283 C   0  0  0  0  0  0  0  0  0  0  0  0
   18.3348   17.3123   24.1936 H   0  0  0  0  0  0  0  0  0  0  0  0
   19.6408   17.4484   22.4217 C   0  0  0  0  0  0  0  0  0  0  0  0
   19.8438   16.3959   22.1845 H   0  0  0  0  0  0  0  0  0  0  0  0
   20.4340   17.7342   23.1243 H   0  0  0  0  0  0  0  0  0  0  0  0
   19.7858   18.2987   21.1325 C   0  0  0  0  0  0  0  0  0  0  0  0
   20.7661   18.0883   20.6837 H   0  0  0  0  0  0  0  0  0  0  0  0
   19.0458   17.9679   20.3920 H   0  0  0  0  0  0  0  0  0  0  0  0
   19.6498   19.8295   21.3448 C   0  0  0  0  0  0  0  0  0  0  0  0
   18.6468   20.0620   21.7249 H   0  0  0  0  0  0  0  0  0  0  0  0
   19.7286   20.3279   20.3689 H   0  0  0  0  0  0  0  0  0  0  0  0
   20.7066   20.4435   22.3031 C   0  0  0  0  0  0  0  0  0  0  0  0
   20.5297   21.5214   22.3949 H   0  0  0  0  0  0  0  0  0  0  0  0
   20.6019   20.0260   23.3110 H   0  0  0  0  0  0  0  0  0  0  0  0
   22.1495   20.2574   21.8430 C   0  0  0  0  0  0  0  0  0  0  0  0
   22.8526   19.4754   22.4522 O   0  5  0  0  0  0  0  0  0  0  0  0
   22.5378   20.9143   20.8968 O   0  0  0  0  0  0  0  0  0  0  0  0
  1  2  1  0  0  0  0
  1  3  1  0  0  0  0
  1  4  2  0  0  0  0
  4  5  1  0  0  0  0
  4  6  1  0  0  0  0
  6  7  1  0  0  0  0
  6  8  1  0  0  0  0
  6  9  1  0  0  0  0
  9 10  1  0  0  0  0
  9 11  1  0  0  0  0
  9 12  1  0  0  0  0
 12 13  1  0  0  0  0
 12 14  1  0  0  0  0
 12 15  1  0  0  0  0
 15 16  1  0  0  0  0
 15 17  1  0  0  0  0
 15 18  1  0  0  0  0
 18 19  1  0  0  0  0
 18 20  2  0  0  0  0
M  END
> <VConfSearch Rank>
394

> <Conf_Id>
66

> <Delta U+W>
1.737

> <U+W>
-50.008

> <U>
11.091

> <W>
-61.099

> <W(PB)>
-63.213

> <W(SA)>
2.114

> <Valence>
9.664

> <Coulomb>
0.658

> <VdW>
0.769

> <VdW6>
-9.171

> <VdW12>
9.940

> <Bond>
0.244

> <Angle>
3.658

> <Pdih>
5.762

> <Idih>
0.001

> <Tether>
0.000

$$$$
VeraChem MOL file


 20 19  0  0  0  0  0  0  0  0999 V2000     
   19.8755   21.6608   22.6538 C   0  0  0  0  0  0  0  0  0  0  0  0
   19.5369   21.7405   21.6232 H   0  0  0  0  0  0  0  0  0  0  0  0
   19.5472   22.4371   23.3427 H   0  0  0  0  0  0  0  0  0  0  0  0
   20.6640   20.6640   23.0704 C   0  0  0  0  0  0  0  0  0  0  0  0
   20.9756   20.6342   24.1141 H   0  0  0  0  0  0  0  0  0  0  0  0
   21.1920   19.5152   22.2265 C   0  0  0  0  0  0  0  0  0  0  0  0
   21.2525   18.6148   22.8504 H   0  0  0  0  0  0  0  0  0  0  0  0
   22.2315   19.7340   21.9486 H   0  0  0  0  0  0  0  0  0  0  0  0
   20.3818   19.1865   20.9452 C   0  0  0  0  0  0  0  0  0  0  0  0
   20.3659   20.0661   20.2883 H   0  0  0  0  0  0  0  0  0  0  0  0
   20.9137   18.4069   20.3831 H   0  0  0  0  0  0  0  0  0  0  0  0
   18.9293   18.7100   21.2016 C   0  0  0  0  0  0  0  0  0  0  0  0
   18.4249   18.5889   20.2330 H   0  0  0  0  0  0  0  0  0  0  0  0
   18.3673   19.4802   21.7461 H   0  0  0  0  0  0  0  0  0  0  0  0
   18.8444   17.3694   21.9767 C   0  0  0  0  0  0  0  0  0  0  0  0
   19.4426   16.6013   21.4724 H   0  0  0  0  0  0  0  0  0  0  0  0
   19.2469   17.4846   22.9894 H   0  0  0  0  0  0  0  0  0  0  0  0
   17.4167   16.8495   22.1008 C   0  0  0  0  0  0  0  0  0  0  0  0
   16.7705   17.1709   23.0785 O   0  5  0  0  0  0  0  0  0  0  0  0
   16.9829   16.1475   21.2087 O   0  0  0  0  0  0  0  0  0  0  0  0
  1  2  1  0  0  0  0
  1  3  1  0  0  0  0
  1  4  2  0  0  0  0
  4  5  1  0  0  0  0
  4  6  1  0  0  0  0
  6  7  1  0  0  0  0
  6  8  1  0  0  0  0
  6  9  1  0  0  0  0
  9 10  1  0  0  0  0
  9 11  1  0  0  0  0
  9 12  1  0  0  0  0
 12 13  1  0  0  0  0
 12 14  1  0  0  0  0
 12 15  1  0  0  0  0
 15 16  1  0  0  0  0
 15 17  1  0  0  0  0
 15 18  1  0  0  0  0
 18 19  1  0  0  0  0
 18 20  2  0  0  0  0
M  END
> <VConfSearch Rank>
395

> <Conf_Id>
64

> <Delta U+W>
0.366

> <U+W>
-51.379

> <U>
10.000

> <W>
-61.379

> <W(PB)>
-63.541

> <W(SA)>
2.162

> <Valence>
9.398

> <Coulomb>
-0.504

> <VdW>
1.105

> <VdW6>
-7.975

> <VdW12>
9.080

> <Bond>
0.216

> <Angle>
3.417

> <Pdih>
5.765

> <Idih>
0.001

> <Tether>
0.000

$$$$
VeraChem MOL file


 20 19  0  0  0  0  0  0  0  0999 V2000     
   21.9380   18.0901   20.0410 C   0  0  0  0  0  0  0  0  0  0  0  0
   21.1148   17.6318   19.4954 H   0  0  0  0  0  0  0  0  0  0  0  0
   22.8627   17.5216   20.1233 H   0  0  0  0  0  0  0  0  0  0  0  0
   21.8205   19.3008   20.5928 C   0  0  0  0  0  0  0  0  0  0  0  0
   22.6559   19.7406   21.1370 H   0  0  0  0  0  0  0  0  0  0  0  0
   20.5687   20.1491   20.5210 C   0  0  0  0  0  0  0  0  0  0  0  0
   19.8591   19.7305   19.7945 H   0  0  0  0  0  0  0  0  0  0  0  0
   20.8338   21.1494   20.1537 H   0  0  0  0  0  0  0  0  0  0  0  0
   19.8768   20.2900   21.8956 C   0  0  0  0  0  0  0  0  0  0  0  0
   20.5869   20.7080   22.6223 H   0  0  0  0  0  0  0  0  0  0  0  0
   19.0551   21.0136   21.8065 H   0  0  0  0  0  0  0  0  0  0  0  0
   19.3175   18.9484   22.4220 C   0  0  0  0  0  0  0  0  0  0  0  0
   20.1345   18.2235   22.5410 H   0  0  0  0  0  0  0  0  0  0  0  0
   18.6208   18.5238   21.6861 H   0  0  0  0  0  0  0  0  0  0  0  0
   18.5891   19.1200   23.7777 C   0  0  0  0  0  0  0  0  0  0  0  0
   19.2761   19.5318   24.5268 H   0  0  0  0  0  0  0  0  0  0  0  0
   17.7585   19.8285   23.6747 H   0  0  0  0  0  0  0  0  0  0  0  0
   18.0284   17.8095   24.3183 C   0  0  0  0  0  0  0  0  0  0  0  0
   16.9082   17.4819   23.9795 O   0  5  0  0  0  0  0  0  0  0  0  0
   18.7316   17.1438   25.0526 O   0  0  0  0  0  0  0  0  0  0  0  0
  1  2  1  0  0  0  0
  1  3  1  0  0  0  0
  1  4  2  0  0  0  0
  4  5  1  0  0  0  0
  4  6  1  0  0  0  0
  6  7  1  0  0  0  0
  6  8  1  0  0  0  0
  6  9  1  0  0  0  0
  9 10  1  0  0  0  0
  9 11  1  0  0  0  0
  9 12  1  0  0  0  0
 12 13  1  0  0  0  0
 12 14  1  0  0  0  0
 12 15  1  0  0  0  0
 15 16  1  0  0  0  0
 15 17  1  0  0  0  0
 15 18  1  0  0  0  0
 18 19  1  0  0  0  0
 18 20  2  0  0  0  0
M  END
> <VConfSearch Rank>
396

> <Conf_Id>
42

> <Delta U+W>
-0.601

> <U+W>
-52.347

> <U>
8.428

> <W>
-60.774

> <W(PB)>
-62.982

> <W(SA)>
2.208

> <Valence>
9.231

> <Coulomb>
-1.304

> <VdW>
0.501

> <VdW6>
-6.515

> <VdW12>
7.016

> <Bond>
0.103

> <Angle>
2.328

> <Pdih>
6.799

> <Idih>
0.000

> <Tether>
0.000

$$$$
VeraChem MOL file


 20 19  0  0  0  0  0  0  0  0999 V2000     
   22.3739   18.5328   20.9141 C   0  0  0  0  0  0  0  0  0  0  0  0
   22.7454   19.5551   20.9605 H   0  0  0  0  0  0  0  0  0  0  0  0
   22.6705   17.9302   20.0573 H   0  0  0  0  0  0  0  0  0  0  0  0
   21.5817   18.0347   21.8671 C   0  0  0  0  0  0  0  0  0  0  0  0
   21.2182   17.0096   21.8002 H   0  0  0  0  0  0  0  0  0  0  0  0
   21.1266   18.8107   23.0847 C   0  0  0  0  0  0  0  0  0  0  0  0
   21.6865   19.7513   23.1755 H   0  0  0  0  0  0  0  0  0  0  0  0
   21.3527   18.2274   23.9872 H   0  0  0  0  0  0  0  0  0  0  0  0
   19.6114   19.1128   23.0537 C   0  0  0  0  0  0  0  0  0  0  0  0
   19.0530   18.1701   22.9697 H   0  0  0  0  0  0  0  0  0  0  0  0
   19.3194   19.5650   24.0112 H   0  0  0  0  0  0  0  0  0  0  0  0
   19.2162   20.0648   21.9001 C   0  0  0  0  0  0  0  0  0  0  0  0
   19.4648   19.6062   20.9330 H   0  0  0  0  0  0  0  0  0  0  0  0
   19.8086   20.9868   21.9730 H   0  0  0  0  0  0  0  0  0  0  0  0
   17.7094   20.4306   21.9190 C   0  0  0  0  0  0  0  0  0  0  0  0
   17.4374   20.8686   22.8869 H   0  0  0  0  0  0  0  0  0  0  0  0
   17.5081   21.1934   21.1576 H   0  0  0  0  0  0  0  0  0  0  0  0
   16.7819   19.2511   21.6408 C   0  0  0  0  0  0  0  0  0  0  0  0
   16.2001   18.7424   22.5788 O   0  5  0  0  0  0  0  0  0  0  0  0
   16.6521   18.8839   20.4895 O   0  0  0  0  0  0  0  0  0  0  0  0
  1  2  1  0  0  0  0
  1  3  1  0  0  0  0
  1  4  2  0  0  0  0
  4  5  1  0  0  0  0
  4  6  1  0  0  0  0
  6  7  1  0  0  0  0
  6  8  1  0  0  0  0
  6  9  1  0  0  0  0
  9 10  1  0  0  0  0
  9 11  1  0  0  0  0
  9 12  1  0  0  0  0
 12 13  1  0  0  0  0
 12 14  1  0  0  0  0
 12 15  1  0  0  0  0
 15 16  1  0  0  0  0
 15 17  1  0  0  0  0
 15 18  1  0  0  0  0
 18 19  1  0  0  0  0
 18 20  2  0  0  0  0
M  END
> <VConfSearch Rank>
397

> <Conf_Id>
68

> <Delta U+W>
0.492

> <U+W>
-51.253

> <U>
10.179

> <W>
-61.432

> <W(PB)>
-63.627

> <W(SA)>
2.195

> <Valence>
9.483

> <Coulomb>
0.361

> <VdW>
0.335

> <VdW6>
-7.385

> <VdW12>
7.720

> <Bond>
0.125

> <Angle>
2.487

> <Pdih>
6.870

> <Idih>
0.001

> <Tether>
0.000

$$$$
VeraChem MOL file


 20 19  0  0  0  0  0  0  0  0999 V2000     
   18.6243   16.3855   21.1187 C   0  0  0  0  0  0  0  0  0  0  0  0
   19.2186   16.2076   20.2239 H   0  0  0  0  0  0  0  0  0  0  0  0
   17.6182   15.9703   21.1427 H   0  0  0  0  0  0  0  0  0  0  0  0
   19.1058   17.0880   22.1474 C   0  0  0  0  0  0  0  0  0  0  0  0
   18.4949   17.2519   23.0346 H   0  0  0  0  0  0  0  0  0  0  0  0
   20.4946   17.6893   22.1871 C   0  0  0  0  0  0  0  0  0  0  0  0
   21.1334   17.1957   21.4423 H   0  0  0  0  0  0  0  0  0  0  0  0
   20.9574   17.4975   23.1643 H   0  0  0  0  0  0  0  0  0  0  0  0
   20.4860   19.2083   21.9030 C   0  0  0  0  0  0  0  0  0  0  0  0
   21.5237   19.5583   21.8163 H   0  0  0  0  0  0  0  0  0  0  0  0
   20.0113   19.3931   20.9293 H   0  0  0  0  0  0  0  0  0  0  0  0
   19.7662   20.0221   23.0044 C   0  0  0  0  0  0  0  0  0  0  0  0
   20.2174   19.7914   23.9789 H   0  0  0  0  0  0  0  0  0  0  0  0
   18.7110   19.7226   23.0649 H   0  0  0  0  0  0  0  0  0  0  0  0
   19.8467   21.5518   22.7622 C   0  0  0  0  0  0  0  0  0  0  0  0
   19.4261   22.0818   23.6249 H   0  0  0  0  0  0  0  0  0  0  0  0
   20.8933   21.8676   22.6751 H   0  0  0  0  0  0  0  0  0  0  0  0
   19.0911   22.0235   21.5231 C   0  0  0  0  0  0  0  0  0  0  0  0
   17.8814   22.1185   21.5922 O   0  5  0  0  0  0  0  0  0  0  0  0
   19.7323   22.3021   20.5290 O   0  0  0  0  0  0  0  0  0  0  0  0
  1  2  1  0  0  0  0
  1  3  1  0  0  0  0
  1  4  2  0  0  0  0
  4  5  1  0  0  0  0
  4  6  1  0  0  0  0
  6  7  1  0  0  0  0
  6  8  1  0  0  0  0
  6  9  1  0  0  0  0
  9 10  1  0  0  0  0
  9 11  1  0  0  0  0
  9 12  1  0  0  0  0
 12 13  1  0  0  0  0
 12 14  1  0  0  0  0
 12 15  1  0  0  0  0
 15 16  1  0  0  0  0
 15 17  1  0  0  0  0
 15 18  1  0  0  0  0
 18 19  1  0  0  0  0
 18 20  2  0  0  0  0
M  END
> <VConfSearch Rank>
398

> <Conf_Id>
87

> <Delta U+W>
0.339

> <U+W>
-51.407

> <U>
10.461

> <W>
-61.867

> <W(PB)>
-64.045

> <W(SA)>
2.178

> <Valence>
9.555

> <Coulomb>
0.483

> <VdW>
0.423

> <VdW6>
-7.223

> <VdW12>
7.646

> <Bond>
0.126

> <Angle>
2.492

> <Pdih>
6.936

> <Idih>
0.001

> <Tether>
0.000

$$$$
VeraChem MOL file


 20 19  0  0  0  0  0  0  0  0999 V2000     
   17.2046   19.4553   23.4042 C   0  0  0  0  0  0  0  0  0  0  0  0
   16.4276   19.0445   22.7617 H   0  0  0  0  0  0  0  0  0  0  0  0
   17.0652   19.3672   24.4802 H   0  0  0  0  0  0  0  0  0  0  0  0
   18.2897   20.0434   22.8939 C   0  0  0  0  0  0  0  0  0  0  0  0
   19.0521   20.4566   23.5534 H   0  0  0  0  0  0  0  0  0  0  0  0
   18.5420   20.2118   21.4108 C   0  0  0  0  0  0  0  0  0  0  0  0
   19.2847   21.0022   21.2386 H   0  0  0  0  0  0  0  0  0  0  0  0
   17.6157   20.5655   20.9384 H   0  0  0  0  0  0  0  0  0  0  0  0
   18.9846   18.9057   20.7056 C   0  0  0  0  0  0  0  0  0  0  0  0
   18.3477   18.0704   21.0276 H   0  0  0  0  0  0  0  0  0  0  0  0
   18.8021   19.0255   19.6290 H   0  0  0  0  0  0  0  0  0  0  0  0
   20.4785   18.5381   20.8907 C   0  0  0  0  0  0  0  0  0  0  0  0
   21.1117   19.3807   20.5807 H   0  0  0  0  0  0  0  0  0  0  0  0
   20.7159   17.7087   20.2101 H   0  0  0  0  0  0  0  0  0  0  0  0
   20.8551   18.1092   22.3321 C   0  0  0  0  0  0  0  0  0  0  0  0
   20.7736   18.9570   23.0196 H   0  0  0  0  0  0  0  0  0  0  0  0
   20.1692   17.3314   22.6883 H   0  0  0  0  0  0  0  0  0  0  0  0
   22.2775   17.5707   22.4346 C   0  0  0  0  0  0  0  0  0  0  0  0
   23.1768   18.3607   22.6448 O   0  5  0  0  0  0  0  0  0  0  0  0
   22.4520   16.3779   22.2807 O   0  0  0  0  0  0  0  0  0  0  0  0
  1  2  1  0  0  0  0
  1  3  1  0  0  0  0
  1  4  2  0  0  0  0
  4  5  1  0  0  0  0
  4  6  1  0  0  0  0
  6  7  1  0  0  0  0
  6  8  1  0  0  0  0
  6  9  1  0  0  0  0
  9 10  1  0  0  0  0
  9 11  1  0  0  0  0
  9 12  1  0  0  0  0
 12 13  1  0  0  0  0
 12 14  1  0  0  0  0
 12 15  1  0  0  0  0
 15 16  1  0  0  0  0
 15 17  1  0  0  0  0
 15 18  1  0  0  0  0
 18 19  1  0  0  0  0
 18 20  2  0  0  0  0
M  END
> <VConfSearch Rank>
399

> <Conf_Id>
51

> <Delta U+W>
1.709

> <U+W>
-50.036

> <U>
10.643

> <W>
-60.679

> <W(PB)>
-62.882

> <W(SA)>
2.203

> <Valence>
11.231

> <Coulomb>
-1.077

> <VdW>
0.489

> <VdW6>
-7.546

> <VdW12>
8.035

> <Bond>
0.159

> <Angle>
3.005

> <Pdih>
8.065

> <Idih>
0.002

> <Tether>
0.000

$$$$
VeraChem MOL file


 20 19  0  0  0  0  0  0  0  0999 V2000     
   22.0830   19.9871   20.8886 C   0  0  0  0  0  0  0  0  0  0  0  0
   21.8094   20.8908   20.3465 H   0  0  0  0  0  0  0  0  0  0  0  0
   22.8650   19.3622   20.4609 H   0  0  0  0  0  0  0  0  0  0  0  0
   21.4815   19.6545   22.0337 C   0  0  0  0  0  0  0  0  0  0  0  0
   21.7754   18.7507   22.5663 H   0  0  0  0  0  0  0  0  0  0  0  0
   20.3973   20.4816   22.6911 C   0  0  0  0  0  0  0  0  0  0  0  0
   20.7057   21.5356   22.6744 H   0  0  0  0  0  0  0  0  0  0  0  0
   20.3062   20.2148   23.7524 H   0  0  0  0  0  0  0  0  0  0  0  0
   19.0191   20.3626   21.9943 C   0  0  0  0  0  0  0  0  0  0  0  0
   18.4129   21.2275   22.2965 H   0  0  0  0  0  0  0  0  0  0  0  0
   19.1401   20.4456   20.9055 H   0  0  0  0  0  0  0  0  0  0  0  0
   18.2190   19.0827   22.3448 C   0  0  0  0  0  0  0  0  0  0  0  0
   17.2017   19.1921   21.9441 H   0  0  0  0  0  0  0  0  0  0  0  0
   18.1122   18.9957   23.4348 H   0  0  0  0  0  0  0  0  0  0  0  0
   18.8285   17.7751   21.7776 C   0  0  0  0  0  0  0  0  0  0  0  0
   19.0272   17.8829   20.7046 H   0  0  0  0  0  0  0  0  0  0  0  0
   19.7824   17.5516   22.2658 H   0  0  0  0  0  0  0  0  0  0  0  0
   17.9193   16.5673   21.9727 C   0  0  0  0  0  0  0  0  0  0  0  0
   18.0195   15.9340   23.0051 O   0  5  0  0  0  0  0  0  0  0  0  0
   17.1200   16.3031   21.0962 O   0  0  0  0  0  0  0  0  0  0  0  0
  1  2  1  0  0  0  0
  1  3  1  0  0  0  0
  1  4  2  0  0  0  0
  4  5  1  0  0  0  0
  4  6  1  0  0  0  0
  6  7  1  0  0  0  0
  6  8  1  0  0  0  0
  6  9  1  0  0  0  0
  9 10  1  0  0  0  0
  9 11  1  0  0  0  0
  9 12  1  0  0  0  0
 12 13  1  0  0  0  0
 12 14  1  0  0  0  0
 12 15  1  0  0  0  0
 15 16  1  0  0  0  0
 15 17  1  0  0  0  0
 15 18  1  0  0  0  0
 18 19  1  0  0  0  0
 18 20  2  0  0  0  0
M  END
> <VConfSearch Rank>
400

> <Conf_Id>
91

> <Delta U+W>
1.604

> <U+W>
-50.141

> <U>
10.644

> <W>
-60.786

> <W(PB)>
-62.965

> <W(SA)>
2.179

> <Valence>
11.230

> <Coulomb>
-1.075

> <VdW>
0.489

> <VdW6>
-7.547

> <VdW12>
8.036

> <Bond>
0.159

> <Angle>
3.006

> <Pdih>
8.064

> <Idih>
0.002

> <Tether>
0.000

$$$$
VeraChem MOL file


 20 19  0  0  0  0  0  0  0  0999 V2000     
   19.6069   22.6900   21.6373 C   0  0  0  0  0  0  0  0  0  0  0  0
   18.9670   22.5641   20.7654 H   0  0  0  0  0  0  0  0  0  0  0  0
   20.1047   23.6505   21.7589 H   0  0  0  0  0  0  0  0  0  0  0  0
   19.7793   21.7063   22.5241 C   0  0  0  0  0  0  0  0  0  0  0  0
   20.4249   21.8525   23.3898 H   0  0  0  0  0  0  0  0  0  0  0  0
   19.1214   20.3482   22.4222 C   0  0  0  0  0  0  0  0  0  0  0  0
   18.3047   20.3754   21.6879 H   0  0  0  0  0  0  0  0  0  0  0  0
   18.6692   20.0855   23.3879 H   0  0  0  0  0  0  0  0  0  0  0  0
   20.1415   19.2640   22.0163 C   0  0  0  0  0  0  0  0  0  0  0  0
   20.5938   19.5337   21.0519 H   0  0  0  0  0  0  0  0  0  0  0  0
   20.9557   19.2341   22.7534 H   0  0  0  0  0  0  0  0  0  0  0  0
   19.4865   17.8694   21.9103 C   0  0  0  0  0  0  0  0  0  0  0  0
   18.6723   17.8984   21.1729 H   0  0  0  0  0  0  0  0  0  0  0  0
   19.0328   17.5997   22.8742 H   0  0  0  0  0  0  0  0  0  0  0  0
   20.5126   16.7794   21.5014 C   0  0  0  0  0  0  0  0  0  0  0  0
   20.9647   17.0390   20.5369 H   0  0  0  0  0  0  0  0  0  0  0  0
   21.3250   16.7405   22.2366 H   0  0  0  0  0  0  0  0  0  0  0  0
   19.9455   15.3648   21.3731 C   0  0  0  0  0  0  0  0  0  0  0  0
   20.7196   14.4837   21.0557 O   0  5  0  0  0  0  0  0  0  0  0  0
   18.7650   15.1668   21.5870 O   0  0  0  0  0  0  0  0  0  0  0  0
  1  2  1  0  0  0  0
  1  3  1  0  0  0  0
  1  4  2  0  0  0  0
  4  5  1  0  0  0  0
  4  6  1  0  0  0  0
  6  7  1  0  0  0  0
  6  8  1  0  0  0  0
  6  9  1  0  0  0  0
  9 10  1  0  0  0  0
  9 11  1  0  0  0  0
  9 12  1  0  0  0  0
 12 13  1  0  0  0  0
 12 14  1  0  0  0  0
 12 15  1  0  0  0  0
 15 16  1  0  0  0  0
 15 17  1  0  0  0  0
 15 18  1  0  0  0  0
 18 19  1  0  0  0  0
 18 20  2  0  0  0  0
M  END
> <VConfSearch Rank>
401

> <Conf_Id>
33

> <Delta U+W>
0.000

> <U+W>
-51.745

> <U>
7.593

> <W>
-59.338

> <W(PB)>
-61.574

> <W(SA)>
2.236

> <Valence>
9.570

> <Coulomb>
-3.091

> <VdW>
1.114

> <VdW6>
-6.064

> <VdW12>
7.178

> <Bond>
0.117

> <Angle>
2.692

> <Pdih>
6.761

> <Idih>
0.000

> <Tether>
0.000

$$$$
VeraChem MOL file


 20 19  0  0  0  0  0  0  0  0999 V2000     
   21.0266   20.3763   24.9749 C   0  0  0  0  0  0  0  0  0  0  0  0
   21.0557   19.3731   25.3972 H   0  0  0  0  0  0  0  0  0  0  0  0
   21.2062   21.2100   25.6515 H   0  0  0  0  0  0  0  0  0  0  0  0
   20.7781   20.5806   23.6786 C   0  0  0  0  0  0  0  0  0  0  0  0
   20.7525   21.5929   23.2760 H   0  0  0  0  0  0  0  0  0  0  0  0
   20.5204   19.4742   22.6800 C   0  0  0  0  0  0  0  0  0  0  0  0
   20.8155   18.5044   23.1033 H   0  0  0  0  0  0  0  0  0  0  0  0
   21.1458   19.6370   21.7932 H   0  0  0  0  0  0  0  0  0  0  0  0
   19.0295   19.4271   22.2766 C   0  0  0  0  0  0  0  0  0  0  0  0
   18.4193   19.3490   23.1870 H   0  0  0  0  0  0  0  0  0  0  0  0
   18.7471   20.3730   21.7943 H   0  0  0  0  0  0  0  0  0  0  0  0
   18.6793   18.2426   21.3447 C   0  0  0  0  0  0  0  0  0  0  0  0
   17.5902   18.2180   21.2005 H   0  0  0  0  0  0  0  0  0  0  0  0
   18.9490   17.2950   21.8312 H   0  0  0  0  0  0  0  0  0  0  0  0
   19.3637   18.3246   19.9555 C   0  0  0  0  0  0  0  0  0  0  0  0
   19.1365   19.2850   19.4776 H   0  0  0  0  0  0  0  0  0  0  0  0
   20.4529   18.2606   20.0567 H   0  0  0  0  0  0  0  0  0  0  0  0
   18.9198   17.2112   19.0136 C   0  0  0  0  0  0  0  0  0  0  0  0
   19.5392   16.1658   19.0286 O   0  5  0  0  0  0  0  0  0  0  0  0
   17.9540   17.4115   18.3037 O   0  0  0  0  0  0  0  0  0  0  0  0
  1  2  1  0  0  0  0
  1  3  1  0  0  0  0
  1  4  2  0  0  0  0
  4  5  1  0  0  0  0
  4  6  1  0  0  0  0
  6  7  1  0  0  0  0
  6  8  1  0  0  0  0
  6  9  1  0  0  0  0
  9 10  1  0  0  0  0
  9 11  1  0  0  0  0
  9 12  1  0  0  0  0
 12 13  1  0  0  0  0
 12 14  1  0  0  0  0
 12 15  1  0  0  0  0
 15 16  1  0  0  0  0
 15 17  1  0  0  0  0
 15 18  1  0  0  0  0
 18 19  1  0  0  0  0
 18 20  2  0  0  0  0
M  END
> <VConfSearch Rank>
402

> <Conf_Id>
37

> <Delta U+W>
-0.384

> <U+W>
-52.130

> <U>
7.491

> <W>
-59.621

> <W(PB)>
-61.853

> <W(SA)>
2.232

> <Valence>
9.604

> <Coulomb>
-2.799

> <VdW>
0.686

> <VdW6>
-6.435

> <VdW12>
7.121

> <Bond>
0.124

> <Angle>
2.493

> <Pdih>
6.986

> <Idih>
0.001

> <Tether>
0.000

$$$$
VeraChem MOL file


 20 19  0  0  0  0  0  0  0  0999 V2000     
   22.1692   21.3348   21.5084 C   0  0  0  0  0  0  0  0  0  0  0  0
   22.9310   22.1009   21.3739 H   0  0  0  0  0  0  0  0  0  0  0  0
   22.4966   20.3851   21.9261 H   0  0  0  0  0  0  0  0  0  0  0  0
   20.8965   21.5700   21.1697 C   0  0  0  0  0  0  0  0  0  0  0  0
   20.6293   22.5419   20.7556 H   0  0  0  0  0  0  0  0  0  0  0  0
   19.7292   20.6056   21.2978 C   0  0  0  0  0  0  0  0  0  0  0  0
   19.2723   20.4712   20.3082 H   0  0  0  0  0  0  0  0  0  0  0  0
   18.9539   21.0708   21.9212 H   0  0  0  0  0  0  0  0  0  0  0  0
   20.0868   19.2196   21.8836 C   0  0  0  0  0  0  0  0  0  0  0  0
   20.8473   18.7396   21.2526 H   0  0  0  0  0  0  0  0  0  0  0  0
   20.5255   19.3457   22.8830 H   0  0  0  0  0  0  0  0  0  0  0  0
   18.8481   18.3022   21.9802 C   0  0  0  0  0  0  0  0  0  0  0  0
   18.4044   18.1722   20.9833 H   0  0  0  0  0  0  0  0  0  0  0  0
   18.0833   18.7770   22.6104 H   0  0  0  0  0  0  0  0  0  0  0  0
   19.2036   16.9137   22.5665 C   0  0  0  0  0  0  0  0  0  0  0  0
   19.9570   16.4200   21.9410 H   0  0  0  0  0  0  0  0  0  0  0  0
   19.6360   17.0249   23.5682 H   0  0  0  0  0  0  0  0  0  0  0  0
   17.9962   15.9891   22.6720 C   0  0  0  0  0  0  0  0  0  0  0  0
   17.7307   15.2815   21.7205 O   0  5  0  0  0  0  0  0  0  0  0  0
   17.3414   16.0153   23.6954 O   0  0  0  0  0  0  0  0  0  0  0  0
  1  2  1  0  0  0  0
  1  3  1  0  0  0  0
  1  4  2  0  0  0  0
  4  5  1  0  0  0  0
  4  6  1  0  0  0  0
  6  7  1  0  0  0  0
  6  8  1  0  0  0  0
  6  9  1  0  0  0  0
  9 10  1  0  0  0  0
  9 11  1  0  0  0  0
  9 12  1  0  0  0  0
 12 13  1  0  0  0  0
 12 14  1  0  0  0  0
 12 15  1  0  0  0  0
 15 16  1  0  0  0  0
 15 17  1  0  0  0  0
 15 18  1  0  0  0  0
 18 19  1  0  0  0  0
 18 20  2  0  0  0  0
M  END
> <VConfSearch Rank>
403

> <Conf_Id>
44

> <Delta U+W>
-1.440

> <U+W>
-53.185

> <U>
6.572

> <W>
-59.757

> <W(PB)>
-62.007

> <W(SA)>
2.249

> <Valence>
7.989

> <Coulomb>
-2.697

> <VdW>
1.281

> <VdW6>
-6.467

> <VdW12>
7.748

> <Bond>
0.136

> <Angle>
2.854

> <Pdih>
4.997

> <Idih>
0.001

> <Tether>
0.000

$$$$
VeraChem MOL file


 20 19  0  0  0  0  0  0  0  0999 V2000     
   17.0576   17.8029   23.6284 C   0  0  0  0  0  0  0  0  0  0  0  0
   16.6233   18.7329   23.2652 H   0  0  0  0  0  0  0  0  0  0  0  0
   16.5121   17.2632   24.4007 H   0  0  0  0  0  0  0  0  0  0  0  0
   18.2155   17.3400   23.1500 C   0  0  0  0  0  0  0  0  0  0  0  0
   18.6333   16.4071   23.5278 H   0  0  0  0  0  0  0  0  0  0  0  0
   19.0276   18.0326   22.0783 C   0  0  0  0  0  0  0  0  0  0  0  0
   18.4133   18.7919   21.5776 H   0  0  0  0  0  0  0  0  0  0  0  0
   19.3191   17.3035   21.3106 H   0  0  0  0  0  0  0  0  0  0  0  0
   20.2922   18.6885   22.6771 C   0  0  0  0  0  0  0  0  0  0  0  0
   19.9980   19.4565   23.4057 H   0  0  0  0  0  0  0  0  0  0  0  0
   20.8551   17.9294   23.2374 H   0  0  0  0  0  0  0  0  0  0  0  0
   21.2281   19.3105   21.6133 C   0  0  0  0  0  0  0  0  0  0  0  0
   21.5309   18.5413   20.8894 H   0  0  0  0  0  0  0  0  0  0  0  0
   22.1485   19.6490   22.1090 H   0  0  0  0  0  0  0  0  0  0  0  0
   20.5981   20.5110   20.8604 C   0  0  0  0  0  0  0  0  0  0  0  0
   19.7268   20.1890   20.2792 H   0  0  0  0  0  0  0  0  0  0  0  0
   20.2517   21.2667   21.5755 H   0  0  0  0  0  0  0  0  0  0  0  0
   21.5736   21.1813   19.8996 C   0  0  0  0  0  0  0  0  0  0  0  0
   22.2601   22.0911   20.3212 O   0  5  0  0  0  0  0  0  0  0  0  0
   21.6358   20.7630   18.7604 O   0  0  0  0  0  0  0  0  0  0  0  0
  1  2  1  0  0  0  0
  1  3  1  0  0  0  0
  1  4  2  0  0  0  0
  4  5  1  0  0  0  0
  4  6  1  0  0  0  0
  6  7  1  0  0  0  0
  6  8  1  0  0  0  0
  6  9  1  0  0  0  0
  9 10  1  0  0  0  0
  9 11  1  0  0  0  0
  9 12  1  0  0  0  0
 12 13  1  0  0  0  0
 12 14  1  0  0  0  0
 12 15  1  0  0  0  0
 15 16  1  0  0  0  0
 15 17  1  0  0  0  0
 15 18  1  0  0  0  0
 18 19  1  0  0  0  0
 18 20  2  0  0  0  0
M  END
> <VConfSearch Rank>
404

> <Conf_Id>
38

> <Delta U+W>
-0.381

> <U+W>
-52.126

> <U>
7.601

> <W>
-59.727

> <W(PB)>
-61.964

> <W(SA)>
2.236

> <Valence>
9.602

> <Coulomb>
-2.686

> <VdW>
0.685

> <VdW6>
-6.453

> <VdW12>
7.139

> <Bond>
0.125

> <Angle>
2.485

> <Pdih>
6.991

> <Idih>
0.001

> <Tether>
0.000

$$$$
VeraChem MOL file


 20 19  0  0  0  0  0  0  0  0999 V2000     
   22.3177   18.8096   19.6388 C   0  0  0  0  0  0  0  0  0  0  0  0
   21.6563   18.3237   18.9233 H   0  0  0  0  0  0  0  0  0  0  0  0
   23.2279   19.2640   19.2512 H   0  0  0  0  0  0  0  0  0  0  0  0
   22.0265   18.8509   20.9416 C   0  0  0  0  0  0  0  0  0  0  0  0
   22.7017   19.3432   21.6412 H   0  0  0  0  0  0  0  0  0  0  0  0
   20.7837   18.2425   21.5523 C   0  0  0  0  0  0  0  0  0  0  0  0
   21.0618   17.6387   22.4264 H   0  0  0  0  0  0  0  0  0  0  0  0
   20.3032   17.5610   20.8371 H   0  0  0  0  0  0  0  0  0  0  0  0
   19.7796   19.3345   21.9766 C   0  0  0  0  0  0  0  0  0  0  0  0
   20.2619   20.0133   22.6936 H   0  0  0  0  0  0  0  0  0  0  0  0
   19.5075   19.9394   21.1006 H   0  0  0  0  0  0  0  0  0  0  0  0
   18.5043   18.7295   22.6057 C   0  0  0  0  0  0  0  0  0  0  0  0
   18.7718   18.1324   23.4887 H   0  0  0  0  0  0  0  0  0  0  0  0
   18.0379   18.0410   21.8880 H   0  0  0  0  0  0  0  0  0  0  0  0
   17.4690   19.8105   23.0114 C   0  0  0  0  0  0  0  0  0  0  0  0
   17.2125   20.4333   22.1459 H   0  0  0  0  0  0  0  0  0  0  0  0
   16.5421   19.3255   23.3394 H   0  0  0  0  0  0  0  0  0  0  0  0
   17.9341   20.7199   24.1453 C   0  0  0  0  0  0  0  0  0  0  0  0
   18.2800   21.8521   23.8705 O   0  5  0  0  0  0  0  0  0  0  0  0
   17.9272   20.2741   25.2759 O   0  0  0  0  0  0  0  0  0  0  0  0
  1  2  1  0  0  0  0
  1  3  1  0  0  0  0
  1  4  2  0  0  0  0
  4  5  1  0  0  0  0
  4  6  1  0  0  0  0
  6  7  1  0  0  0  0
  6  8  1  0  0  0  0
  6  9  1  0  0  0  0
  9 10  1  0  0  0  0
  9 11  1  0  0  0  0
  9 12  1  0  0  0  0
 12 13  1  0  0  0  0
 12 14  1  0  0  0  0
 12 15  1  0  0  0  0
 15 16  1  0  0  0  0
 15 17  1  0  0  0  0
 15 18  1  0  0  0  0
 18 19  1  0  0  0  0
 18 20  2  0  0  0  0
M  END
> <VConfSearch Rank>
405

> <Conf_Id>
58

> <Delta U+W>
0.019

> <U+W>
-51.727

> <U>
8.963

> <W>
-60.690

> <W(PB)>
-62.934

> <W(SA)>
2.244

> <Valence>
9.327

> <Coulomb>
-0.780

> <VdW>
0.417

> <VdW6>
-6.635

> <VdW12>
7.052

> <Bond>
0.105

> <Angle>
2.399

> <Pdih>
6.822

> <Idih>
0.000

> <Tether>
0.000

$$$$
VeraChem MOL file


 20 19  0  0  0  0  0  0  0  0999 V2000     
   21.4442   19.7476   25.1355 C   0  0  0  0  0  0  0  0  0  0  0  0
   21.6510   20.7933   24.9137 H   0  0  0  0  0  0  0  0  0  0  0  0
   22.0761   19.2578   25.8745 H   0  0  0  0  0  0  0  0  0  0  0  0
   20.4566   19.0871   24.5255 C   0  0  0  0  0  0  0  0  0  0  0  0
   20.2668   18.0401   24.7613 H   0  0  0  0  0  0  0  0  0  0  0  0
   19.5390   19.7000   23.4911 C   0  0  0  0  0  0  0  0  0  0  0  0
   19.6290   20.7948   23.5041 H   0  0  0  0  0  0  0  0  0  0  0  0
   18.4956   19.4656   23.7408 H   0  0  0  0  0  0  0  0  0  0  0  0
   19.8630   19.1738   22.0772 C   0  0  0  0  0  0  0  0  0  0  0  0
   20.9089   19.4060   21.8331 H   0  0  0  0  0  0  0  0  0  0  0  0
   19.7701   18.0790   22.0665 H   0  0  0  0  0  0  0  0  0  0  0  0
   18.9318   19.7884   21.0079 C   0  0  0  0  0  0  0  0  0  0  0  0
   19.0199   20.8829   21.0368 H   0  0  0  0  0  0  0  0  0  0  0  0
   17.8854   19.5490   21.2434 H   0  0  0  0  0  0  0  0  0  0  0  0
   19.2617   19.2948   19.5753 C   0  0  0  0  0  0  0  0  0  0  0  0
   18.6551   19.8477   18.8484 H   0  0  0  0  0  0  0  0  0  0  0  0
   20.3117   19.5018   19.3355 H   0  0  0  0  0  0  0  0  0  0  0  0
   18.9956   17.8084   19.3549 C   0  0  0  0  0  0  0  0  0  0  0  0
   17.8426   17.4464   19.2255 O   0  5  0  0  0  0  0  0  0  0  0  0
   19.9470   17.0538   19.3074 O   0  0  0  0  0  0  0  0  0  0  0  0
  1  2  1  0  0  0  0
  1  3  1  0  0  0  0
  1  4  2  0  0  0  0
  4  5  1  0  0  0  0
  4  6  1  0  0  0  0
  6  7  1  0  0  0  0
  6  8  1  0  0  0  0
  6  9  1  0  0  0  0
  9 10  1  0  0  0  0
  9 11  1  0  0  0  0
  9 12  1  0  0  0  0
 12 13  1  0  0  0  0
 12 14  1  0  0  0  0
 12 15  1  0  0  0  0
 15 16  1  0  0  0  0
 15 17  1  0  0  0  0
 15 18  1  0  0  0  0
 18 19  1  0  0  0  0
 18 20  2  0  0  0  0
M  END
> <VConfSearch Rank>
406

> <Conf_Id>
54

> <Delta U+W>
-0.048

> <U+W>
-51.793

> <U>
8.964

> <W>
-60.756

> <W(PB)>
-63.007

> <W(SA)>
2.251

> <Valence>
9.327

> <Coulomb>
-0.780

> <VdW>
0.417

> <VdW6>
-6.635

> <VdW12>
7.052

> <Bond>
0.105

> <Angle>
2.399

> <Pdih>
6.822

> <Idih>
0.000

> <Tether>
0.000

$$$$
VeraChem MOL file


 20 19  0  0  0  0  0  0  0  0999 V2000     
   20.2432   16.2266   23.7316 C   0  0  0  0  0  0  0  0  0  0  0  0
   19.5753   15.5758   24.2934 H   0  0  0  0  0  0  0  0  0  0  0  0
   21.0361   15.7533   23.1547 H   0  0  0  0  0  0  0  0  0  0  0  0
   20.0907   17.5533   23.7495 C   0  0  0  0  0  0  0  0  0  0  0  0
   19.2924   18.0067   24.3364 H   0  0  0  0  0  0  0  0  0  0  0  0
   20.9836   18.5191   23.0001 C   0  0  0  0  0  0  0  0  0  0  0  0
   21.9354   18.0287   22.7549 H   0  0  0  0  0  0  0  0  0  0  0  0
   21.2350   19.3729   23.6436 H   0  0  0  0  0  0  0  0  0  0  0  0
   20.3366   19.0254   21.6913 C   0  0  0  0  0  0  0  0  0  0  0  0
   21.0830   19.6062   21.1322 H   0  0  0  0  0  0  0  0  0  0  0  0
   20.0710   18.1669   21.0591 H   0  0  0  0  0  0  0  0  0  0  0  0
   19.0853   19.9015   21.9381 C   0  0  0  0  0  0  0  0  0  0  0  0
   19.3475   20.7522   22.5824 H   0  0  0  0  0  0  0  0  0  0  0  0
   18.3291   19.3168   22.4783 H   0  0  0  0  0  0  0  0  0  0  0  0
   18.4580   20.4285   20.6213 C   0  0  0  0  0  0  0  0  0  0  0  0
   18.2217   19.5916   19.9530 H   0  0  0  0  0  0  0  0  0  0  0  0
   17.5112   20.9344   20.8435 H   0  0  0  0  0  0  0  0  0  0  0  0
   19.3390   21.4207   19.8674 C   0  0  0  0  0  0  0  0  0  0  0  0
   19.9162   21.0359   18.8695 O   0  5  0  0  0  0  0  0  0  0  0  0
   19.4158   22.5564   20.2931 O   0  0  0  0  0  0  0  0  0  0  0  0
  1  2  1  0  0  0  0
  1  3  1  0  0  0  0
  1  4  2  0  0  0  0
  4  5  1  0  0  0  0
  4  6  1  0  0  0  0
  6  7  1  0  0  0  0
  6  8  1  0  0  0  0
  6  9  1  0  0  0  0
  9 10  1  0  0  0  0
  9 11  1  0  0  0  0
  9 12  1  0  0  0  0
 12 13  1  0  0  0  0
 12 14  1  0  0  0  0
 12 15  1  0  0  0  0
 15 16  1  0  0  0  0
 15 17  1  0  0  0  0
 15 18  1  0  0  0  0
 18 19  1  0  0  0  0
 18 20  2  0  0  0  0
M  END
> <VConfSearch Rank>
407

> <Conf_Id>
27

> <Delta U+W>
0.478

> <U+W>
-51.267

> <U>
9.192

> <W>
-60.459

> <W(PB)>
-62.649

> <W(SA)>
2.190

> <Valence>
9.572

> <Coulomb>
-0.884

> <VdW>
0.504

> <VdW6>
-7.168

> <VdW12>
7.672

> <Bond>
0.127

> <Angle>
2.504

> <Pdih>
6.941

> <Idih>
0.001

> <Tether>
0.000

$$$$
VeraChem MOL file


 20 19  0  0  0  0  0  0  0  0999 V2000     
   18.4215   19.9884   19.0567 C   0  0  0  0  0  0  0  0  0  0  0  0
   19.2104   19.9081   18.3106 H   0  0  0  0  0  0  0  0  0  0  0  0
   17.6911   20.7856   18.9300 H   0  0  0  0  0  0  0  0  0  0  0  0
   18.3509   19.1456   20.0904 C   0  0  0  0  0  0  0  0  0  0  0  0
   17.5511   19.2418   20.8241 H   0  0  0  0  0  0  0  0  0  0  0  0
   19.3255   18.0117   20.3275 C   0  0  0  0  0  0  0  0  0  0  0  0
   19.8504   17.7730   19.3926 H   0  0  0  0  0  0  0  0  0  0  0  0
   18.7795   17.1028   20.6138 H   0  0  0  0  0  0  0  0  0  0  0  0
   20.3736   18.3536   21.4104 C   0  0  0  0  0  0  0  0  0  0  0  0
   21.1244   17.5522   21.4413 H   0  0  0  0  0  0  0  0  0  0  0  0
   20.9054   19.2721   21.1261 H   0  0  0  0  0  0  0  0  0  0  0  0
   19.7526   18.5215   22.8162 C   0  0  0  0  0  0  0  0  0  0  0  0
   19.1994   17.6119   23.0881 H   0  0  0  0  0  0  0  0  0  0  0  0
   19.0274   19.3465   22.8098 H   0  0  0  0  0  0  0  0  0  0  0  0
   20.8307   18.8048   23.8911 C   0  0  0  0  0  0  0  0  0  0  0  0
   21.5568   17.9838   23.9256 H   0  0  0  0  0  0  0  0  0  0  0  0
   21.3845   19.7175   23.6401 H   0  0  0  0  0  0  0  0  0  0  0  0
   20.2433   18.9760   25.2875 C   0  0  0  0  0  0  0  0  0  0  0  0
   19.9177   20.0924   25.6401 O   0  5  0  0  0  0  0  0  0  0  0  0
   20.1106   17.9857   25.9791 O   0  0  0  0  0  0  0  0  0  0  0  0
  1  2  1  0  0  0  0
  1  3  1  0  0  0  0
  1  4  2  0  0  0  0
  4  5  1  0  0  0  0
  4  6  1  0  0  0  0
  6  7  1  0  0  0  0
  6  8  1  0  0  0  0
  6  9  1  0  0  0  0
  9 10  1  0  0  0  0
  9 11  1  0  0  0  0
  9 12  1  0  0  0  0
 12 13  1  0  0  0  0
 12 14  1  0  0  0  0
 12 15  1  0  0  0  0
 15 16  1  0  0  0  0
 15 17  1  0  0  0  0
 15 18  1  0  0  0  0
 18 19  1  0  0  0  0
 18 20  2  0  0  0  0
M  END
> <VConfSearch Rank>
408

> <Conf_Id>
41

> <Delta U+W>
-0.634

> <U+W>
-52.379

> <U>
7.828

> <W>
-60.207

> <W(PB)>
-62.449

> <W(SA)>
2.242

> <Valence>
9.300

> <Coulomb>
-2.080

> <VdW>
0.608

> <VdW6>
-6.341

> <VdW12>
6.949

> <Bond>
0.103

> <Angle>
2.334

> <Pdih>
6.862

> <Idih>
0.001

> <Tether>
0.000

$$$$
VeraChem MOL file


 20 19  0  0  0  0  0  0  0  0999 V2000     
   21.3143   16.1199   20.5104 C   0  0  0  0  0  0  0  0  0  0  0  0
   21.4224   15.0367   20.4945 H   0  0  0  0  0  0  0  0  0  0  0  0
   21.5139   16.6569   19.5845 H   0  0  0  0  0  0  0  0  0  0  0  0
   20.9489   16.7607   21.6237 C   0  0  0  0  0  0  0  0  0  0  0  0
   20.7530   16.2046   22.5403 H   0  0  0  0  0  0  0  0  0  0  0  0
   20.7796   18.2604   21.7223 C   0  0  0  0  0  0  0  0  0  0  0  0
   21.2372   18.7527   20.8536 H   0  0  0  0  0  0  0  0  0  0  0  0
   21.3100   18.6244   22.6118 H   0  0  0  0  0  0  0  0  0  0  0  0
   19.2857   18.6457   21.8063 C   0  0  0  0  0  0  0  0  0  0  0  0
   18.7535   18.1884   20.9608 H   0  0  0  0  0  0  0  0  0  0  0  0
   18.8460   18.2151   22.7166 H   0  0  0  0  0  0  0  0  0  0  0  0
   19.0381   20.1741   21.7759 C   0  0  0  0  0  0  0  0  0  0  0  0
   17.9547   20.3566   21.7611 H   0  0  0  0  0  0  0  0  0  0  0  0
   19.4321   20.5857   20.8369 H   0  0  0  0  0  0  0  0  0  0  0  0
   19.6577   20.9490   22.9710 C   0  0  0  0  0  0  0  0  0  0  0  0
   20.7491   20.8500   22.9727 H   0  0  0  0  0  0  0  0  0  0  0  0
   19.4438   22.0184   22.8599 H   0  0  0  0  0  0  0  0  0  0  0  0
   19.1258   20.5191   24.3352 C   0  0  0  0  0  0  0  0  0  0  0  0
   17.9898   20.8339   24.6317 O   0  5  0  0  0  0  0  0  0  0  0  0
   19.8657   19.8975   25.0721 O   0  0  0  0  0  0  0  0  0  0  0  0
  1  2  1  0  0  0  0
  1  3  1  0  0  0  0
  1  4  2  0  0  0  0
  4  5  1  0  0  0  0
  4  6  1  0  0  0  0
  6  7  1  0  0  0  0
  6  8  1  0  0  0  0
  6  9  1  0  0  0  0
  9 10  1  0  0  0  0
  9 11  1  0  0  0  0
  9 12  1  0  0  0  0
 12 13  1  0  0  0  0
 12 14  1  0  0  0  0
 12 15  1  0  0  0  0
 15 16  1  0  0  0  0
 15 17  1  0  0  0  0
 15 18  1  0  0  0  0
 18 19  1  0  0  0  0
 18 20  2  0  0  0  0
M  END
> <VConfSearch Rank>
409

> <Conf_Id>
84

> <Delta U+W>
0.942

> <U+W>
-50.803

> <U>
10.196

> <W>
-60.999

> <W(PB)>
-63.182

> <W(SA)>
2.182

> <Valence>
9.837

> <Coulomb>
0.032

> <VdW>
0.328

> <VdW6>
-7.642

> <VdW12>
7.969

> <Bond>
0.151

> <Angle>
2.748

> <Pdih>
6.937

> <Idih>
0.001

> <Tether>
0.000

$$$$
VeraChem MOL file


 20 19  0  0  0  0  0  0  0  0999 V2000     
   19.0905   17.7576   18.9804 C   0  0  0  0  0  0  0  0  0  0  0  0
   18.8034   16.8485   18.4546 H   0  0  0  0  0  0  0  0  0  0  0  0
   18.6210   18.6881   18.6652 H   0  0  0  0  0  0  0  0  0  0  0  0
   19.9823   17.7277   19.9741 C   0  0  0  0  0  0  0  0  0  0  0  0
   20.4400   16.7855   20.2747 H   0  0  0  0  0  0  0  0  0  0  0  0
   20.4301   18.9475   20.7483 C   0  0  0  0  0  0  0  0  0  0  0  0
   20.1267   19.8636   20.2234 H   0  0  0  0  0  0  0  0  0  0  0  0
   21.5267   18.9641   20.8051 H   0  0  0  0  0  0  0  0  0  0  0  0
   19.8374   18.9519   22.1730 C   0  0  0  0  0  0  0  0  0  0  0  0
   18.7406   18.9288   22.1086 H   0  0  0  0  0  0  0  0  0  0  0  0
   20.1438   18.0379   22.7000 H   0  0  0  0  0  0  0  0  0  0  0  0
   20.2884   20.1910   22.9790 C   0  0  0  0  0  0  0  0  0  0  0  0
   19.9712   21.1072   22.4617 H   0  0  0  0  0  0  0  0  0  0  0  0
   21.3858   20.2158   23.0215 H   0  0  0  0  0  0  0  0  0  0  0  0
   19.7287   20.1979   24.4252 C   0  0  0  0  0  0  0  0  0  0  0  0
   20.0144   19.2762   24.9465 H   0  0  0  0  0  0  0  0  0  0  0  0
   20.1713   21.0298   24.9855 H   0  0  0  0  0  0  0  0  0  0  0  0
   18.2123   20.3513   24.5026 C   0  0  0  0  0  0  0  0  0  0  0  0
   17.5475   19.3711   24.7750 O   0  5  0  0  0  0  0  0  0  0  0  0
   17.7374   21.4517   24.3009 O   0  0  0  0  0  0  0  0  0  0  0  0
  1  2  1  0  0  0  0
  1  3  1  0  0  0  0
  1  4  2  0  0  0  0
  4  5  1  0  0  0  0
  4  6  1  0  0  0  0
  6  7  1  0  0  0  0
  6  8  1  0  0  0  0
  6  9  1  0  0  0  0
  9 10  1  0  0  0  0
  9 11  1  0  0  0  0
  9 12  1  0  0  0  0
 12 13  1  0  0  0  0
 12 14  1  0  0  0  0
 12 15  1  0  0  0  0
 15 16  1  0  0  0  0
 15 17  1  0  0  0  0
 15 18  1  0  0  0  0
 18 19  1  0  0  0  0
 18 20  2  0  0  0  0
M  END
> <VConfSearch Rank>
410

> <Conf_Id>
81

> <Delta U+W>
-0.051

> <U+W>
-51.796

> <U>
9.412

> <W>
-61.209

> <W(PB)>
-63.452

> <W(SA)>
2.243

> <Valence>
9.329

> <Coulomb>
-0.323

> <VdW>
0.406

> <VdW6>
-6.640

> <VdW12>
7.046

> <Bond>
0.105

> <Angle>
2.401

> <Pdih>
6.823

> <Idih>
0.000

> <Tether>
0.000

$$$$
VeraChem MOL file


 20 19  0  0  0  0  0  0  0  0999 V2000     
   17.5938   17.8970   24.2438 C   0  0  0  0  0  0  0  0  0  0  0  0
   16.9574   18.7174   24.5716 H   0  0  0  0  0  0  0  0  0  0  0  0
   17.2704   16.8854   24.4830 H   0  0  0  0  0  0  0  0  0  0  0  0
   18.7263   18.1187   23.5716 C   0  0  0  0  0  0  0  0  0  0  0  0
   19.3502   17.2835   23.2547 H   0  0  0  0  0  0  0  0  0  0  0  0
   19.2416   19.4950   23.2086 C   0  0  0  0  0  0  0  0  0  0  0  0
   20.3163   19.5631   23.4216 H   0  0  0  0  0  0  0  0  0  0  0  0
   18.7620   20.2499   23.8460 H   0  0  0  0  0  0  0  0  0  0  0  0
   18.9689   19.8570   21.7290 C   0  0  0  0  0  0  0  0  0  0  0  0
   17.8832   19.8671   21.5618 H   0  0  0  0  0  0  0  0  0  0  0  0
   19.3146   20.8833   21.5441 H   0  0  0  0  0  0  0  0  0  0  0  0
   19.6241   18.9034   20.6968 C   0  0  0  0  0  0  0  0  0  0  0  0
   19.3460   19.2337   19.6866 H   0  0  0  0  0  0  0  0  0  0  0  0
   19.2052   17.8950   20.8122 H   0  0  0  0  0  0  0  0  0  0  0  0
   21.1727   18.8254   20.7864 C   0  0  0  0  0  0  0  0  0  0  0  0
   21.4838   18.4263   21.7585 H   0  0  0  0  0  0  0  0  0  0  0  0
   21.5452   18.1249   20.0300 H   0  0  0  0  0  0  0  0  0  0  0  0
   21.8777   20.1592   20.5570 C   0  0  0  0  0  0  0  0  0  0  0  0
   22.3981   20.7072   21.5088 O   0  5  0  0  0  0  0  0  0  0  0  0
   21.9027   20.6065   19.4271 O   0  0  0  0  0  0  0  0  0  0  0  0
  1  2  1  0  0  0  0
  1  3  1  0  0  0  0
  1  4  2  0  0  0  0
  4  5  1  0  0  0  0
  4  6  1  0  0  0  0
  6  7  1  0  0  0  0
  6  8  1  0  0  0  0
  6  9  1  0  0  0  0
  9 10  1  0  0  0  0
  9 11  1  0  0  0  0
  9 12  1  0  0  0  0
 12 13  1  0  0  0  0
 12 14  1  0  0  0  0
 12 15  1  0  0  0  0
 15 16  1  0  0  0  0
 15 17  1  0  0  0  0
 15 18  1  0  0  0  0
 18 19  1  0  0  0  0
 18 20  2  0  0  0  0
M  END
> <VConfSearch Rank>
411

> <Conf_Id>
86

> <Delta U+W>
1.248

> <U+W>
-50.498

> <U>
10.404

> <W>
-60.901

> <W(PB)>
-63.061

> <W(SA)>
2.159

> <Valence>
10.021

> <Coulomb>
0.094

> <VdW>
0.289

> <VdW6>
-8.409

> <VdW12>
8.698

> <Bond>
0.179

> <Angle>
2.939

> <Pdih>
6.902

> <Idih>
0.001

> <Tether>
0.000

$$$$
VeraChem MOL file


 20 19  0  0  0  0  0  0  0  0999 V2000     
   20.7042   21.2939   24.0112 C   0  0  0  0  0  0  0  0  0  0  0  0
   20.6525   21.5029   25.0783 H   0  0  0  0  0  0  0  0  0  0  0  0
   21.6919   21.2597   23.5543 H   0  0  0  0  0  0  0  0  0  0  0  0
   19.5968   21.0845   23.2944 C   0  0  0  0  0  0  0  0  0  0  0  0
   18.6177   21.1210   23.7714 H   0  0  0  0  0  0  0  0  0  0  0  0
   19.5892   20.7885   21.8097 C   0  0  0  0  0  0  0  0  0  0  0  0
   20.5814   20.9687   21.3741 H   0  0  0  0  0  0  0  0  0  0  0  0
   18.9007   21.4824   21.3093 H   0  0  0  0  0  0  0  0  0  0  0  0
   19.1468   19.3401   21.5026 C   0  0  0  0  0  0  0  0  0  0  0  0
   18.1562   19.1577   21.9413 H   0  0  0  0  0  0  0  0  0  0  0  0
   19.0326   19.2294   20.4155 H   0  0  0  0  0  0  0  0  0  0  0  0
   20.1524   18.2857   22.0229 C   0  0  0  0  0  0  0  0  0  0  0  0
   20.2623   18.3907   23.1105 H   0  0  0  0  0  0  0  0  0  0  0  0
   21.1439   18.4707   21.5869 H   0  0  0  0  0  0  0  0  0  0  0  0
   19.7127   16.8333   21.7035 C   0  0  0  0  0  0  0  0  0  0  0  0
   20.3915   16.1282   22.1975 H   0  0  0  0  0  0  0  0  0  0  0  0
   18.7102   16.6440   22.1059 H   0  0  0  0  0  0  0  0  0  0  0  0
   19.7115   16.4984   20.2146 C   0  0  0  0  0  0  0  0  0  0  0  0
   20.7802   16.2954   19.6726 O   0  5  0  0  0  0  0  0  0  0  0  0
   18.6430   16.4378   19.6387 O   0  0  0  0  0  0  0  0  0  0  0  0
  1  2  1  0  0  0  0
  1  3  1  0  0  0  0
  1  4  2  0  0  0  0
  4  5  1  0  0  0  0
  4  6  1  0  0  0  0
  6  7  1  0  0  0  0
  6  8  1  0  0  0  0
  6  9  1  0  0  0  0
  9 10  1  0  0  0  0
  9 11  1  0  0  0  0
  9 12  1  0  0  0  0
 12 13  1  0  0  0  0
 12 14  1  0  0  0  0
 12 15  1  0  0  0  0
 15 16  1  0  0  0  0
 15 17  1  0  0  0  0
 15 18  1  0  0  0  0
 18 19  1  0  0  0  0
 18 20  2  0  0  0  0
M  END
> <VConfSearch Rank>
412

> <Conf_Id>
28

> <Delta U+W>
0.446

> <U+W>
-51.299

> <U>
9.295

> <W>
-60.594

> <W(PB)>
-62.806

> <W(SA)>
2.212

> <Valence>
9.495

> <Coulomb>
-0.610

> <VdW>
0.409

> <VdW6>
-7.332

> <VdW12>
7.741

> <Bond>
0.126

> <Angle>
2.497

> <Pdih>
6.872

> <Idih>
0.000

> <Tether>
0.000

$$$$
VeraChem MOL file


 20 19  0  0  0  0  0  0  0  0999 V2000     
   17.4282   18.2700   20.3675 C   0  0  0  0  0  0  0  0  0  0  0  0
   17.7252   17.4391   21.0038 H   0  0  0  0  0  0  0  0  0  0  0  0
   16.5213   18.1389   19.7797 H   0  0  0  0  0  0  0  0  0  0  0  0
   18.1279   19.4083   20.2995 C   0  0  0  0  0  0  0  0  0  0  0  0
   17.7786   20.2065   19.6450 H   0  0  0  0  0  0  0  0  0  0  0  0
   19.4059   19.7362   21.0536 C   0  0  0  0  0  0  0  0  0  0  0  0
   19.2135   20.6015   21.7009 H   0  0  0  0  0  0  0  0  0  0  0  0
   20.1651   20.0651   20.3316 H   0  0  0  0  0  0  0  0  0  0  0  0
   19.9836   18.5728   21.8969 C   0  0  0  0  0  0  0  0  0  0  0  0
   19.2668   18.2941   22.6815 H   0  0  0  0  0  0  0  0  0  0  0  0
   20.1047   17.6905   21.2537 H   0  0  0  0  0  0  0  0  0  0  0  0
   21.3563   18.8965   22.5373 C   0  0  0  0  0  0  0  0  0  0  0  0
   22.0808   19.1252   21.7441 H   0  0  0  0  0  0  0  0  0  0  0  0
   21.7302   17.9962   23.0444 H   0  0  0  0  0  0  0  0  0  0  0  0
   21.3315   20.0677   23.5573 C   0  0  0  0  0  0  0  0  0  0  0  0
   22.3431   20.2301   23.9472 H   0  0  0  0  0  0  0  0  0  0  0  0
   21.0350   21.0020   23.0674 H   0  0  0  0  0  0  0  0  0  0  0  0
   20.4168   19.8320   24.7559 C   0  0  0  0  0  0  0  0  0  0  0  0
   20.7531   19.0026   25.5784 O   0  5  0  0  0  0  0  0  0  0  0  0
   19.4041   20.4975   24.8472 O   0  0  0  0  0  0  0  0  0  0  0  0
  1  2  1  0  0  0  0
  1  3  1  0  0  0  0
  1  4  2  0  0  0  0
  4  5  1  0  0  0  0
  4  6  1  0  0  0  0
  6  7  1  0  0  0  0
  6  8  1  0  0  0  0
  6  9  1  0  0  0  0
  9 10  1  0  0  0  0
  9 11  1  0  0  0  0
  9 12  1  0  0  0  0
 12 13  1  0  0  0  0
 12 14  1  0  0  0  0
 12 15  1  0  0  0  0
 15 16  1  0  0  0  0
 15 17  1  0  0  0  0
 15 18  1  0  0  0  0
 18 19  1  0  0  0  0
 18 20  2  0  0  0  0
M  END
> <VConfSearch Rank>
413

> <Conf_Id>
53

> <Delta U+W>
0.549

> <U+W>
-51.197

> <U>
10.870

> <W>
-62.067

> <W(PB)>
-64.228

> <W(SA)>
2.161

> <Valence>
8.803

> <Coulomb>
1.020

> <VdW>
1.048

> <VdW6>
-8.312

> <VdW12>
9.360

> <Bond>
0.212

> <Angle>
3.379

> <Pdih>
5.211

> <Idih>
0.001

> <Tether>
0.000

$$$$
VeraChem MOL file


 20 19  0  0  0  0  0  0  0  0999 V2000     
   17.0212   18.1856   21.5616 C   0  0  0  0  0  0  0  0  0  0  0  0
   16.8841   19.1436   22.0584 H   0  0  0  0  0  0  0  0  0  0  0  0
   16.2178   17.4578   21.6612 H   0  0  0  0  0  0  0  0  0  0  0  0
   18.1187   17.9022   20.8517 C   0  0  0  0  0  0  0  0  0  0  0  0
   18.2047   16.9280   20.3713 H   0  0  0  0  0  0  0  0  0  0  0  0
   19.3137   18.8160   20.6352 C   0  0  0  0  0  0  0  0  0  0  0  0
   19.2144   19.2987   19.6541 H   0  0  0  0  0  0  0  0  0  0  0  0
   20.2212   18.2039   20.5545 H   0  0  0  0  0  0  0  0  0  0  0  0
   19.5397   19.9034   21.7179 C   0  0  0  0  0  0  0  0  0  0  0  0
   20.3820   20.5364   21.4069 H   0  0  0  0  0  0  0  0  0  0  0  0
   18.6680   20.5699   21.7534 H   0  0  0  0  0  0  0  0  0  0  0  0
   19.8237   19.3547   23.1410 C   0  0  0  0  0  0  0  0  0  0  0  0
   18.9584   18.7798   23.4947 H   0  0  0  0  0  0  0  0  0  0  0  0
   19.9278   20.2035   23.8307 H   0  0  0  0  0  0  0  0  0  0  0  0
   21.0950   18.4688   23.2481 C   0  0  0  0  0  0  0  0  0  0  0  0
   21.2111   18.1251   24.2825 H   0  0  0  0  0  0  0  0  0  0  0  0
   20.9901   17.5679   22.6329 H   0  0  0  0  0  0  0  0  0  0  0  0
   22.3869   19.1810   22.8582 C   0  0  0  0  0  0  0  0  0  0  0  0
   22.9241   18.8696   21.8133 O   0  5  0  0  0  0  0  0  0  0  0  0
   22.8321   20.0170   23.6201 O   0  0  0  0  0  0  0  0  0  0  0  0
  1  2  1  0  0  0  0
  1  3  1  0  0  0  0
  1  4  2  0  0  0  0
  4  5  1  0  0  0  0
  4  6  1  0  0  0  0
  6  7  1  0  0  0  0
  6  8  1  0  0  0  0
  6  9  1  0  0  0  0
  9 10  1  0  0  0  0
  9 11  1  0  0  0  0
  9 12  1  0  0  0  0
 12 13  1  0  0  0  0
 12 14  1  0  0  0  0
 12 15  1  0  0  0  0
 15 16  1  0  0  0  0
 15 17  1  0  0  0  0
 15 18  1  0  0  0  0
 18 19  1  0  0  0  0
 18 20  2  0  0  0  0
M  END
> <VConfSearch Rank>
414

> <Conf_Id>
66

> <Delta U+W>
1.737

> <U+W>
-50.008

> <U>
11.091

> <W>
-61.099

> <W(PB)>
-63.213

> <W(SA)>
2.114

> <Valence>
9.664

> <Coulomb>
0.658

> <VdW>
0.769

> <VdW6>
-9.171

> <VdW12>
9.940

> <Bond>
0.244

> <Angle>
3.658

> <Pdih>
5.762

> <Idih>
0.001

> <Tether>
0.000

$$$$
VeraChem MOL file


 20 19  0  0  0  0  0  0  0  0999 V2000     
   19.2729   16.6255   20.7990 C   0  0  0  0  0  0  0  0  0  0  0  0
   18.5373   17.2207   20.2625 H   0  0  0  0  0  0  0  0  0  0  0  0
   19.7878   15.8505   20.2339 H   0  0  0  0  0  0  0  0  0  0  0  0
   19.5401   16.8204   22.0949 C   0  0  0  0  0  0  0  0  0  0  0  0
   20.2852   16.1931   22.5836 H   0  0  0  0  0  0  0  0  0  0  0  0
   18.9068   17.8625   23.0023 C   0  0  0  0  0  0  0  0  0  0  0  0
   19.6565   18.2059   23.7260 H   0  0  0  0  0  0  0  0  0  0  0  0
   18.1337   17.3740   23.6101 H   0  0  0  0  0  0  0  0  0  0  0  0
   18.2907   19.0961   22.2918 C   0  0  0  0  0  0  0  0  0  0  0  0
   17.4984   18.7648   21.6076 H   0  0  0  0  0  0  0  0  0  0  0  0
   17.7900   19.7213   23.0436 H   0  0  0  0  0  0  0  0  0  0  0  0
   19.3074   19.9716   21.5157 C   0  0  0  0  0  0  0  0  0  0  0  0
   18.7564   20.7606   20.9855 H   0  0  0  0  0  0  0  0  0  0  0  0
   19.8096   19.3754   20.7425 H   0  0  0  0  0  0  0  0  0  0  0  0
   20.3742   20.6357   22.4244 C   0  0  0  0  0  0  0  0  0  0  0  0
   19.8887   21.1946   23.2332 H   0  0  0  0  0  0  0  0  0  0  0  0
   21.0110   19.8747   22.8894 H   0  0  0  0  0  0  0  0  0  0  0  0
   21.2802   21.5976   21.6641 C   0  0  0  0  0  0  0  0  0  0  0  0
   22.3117   21.1634   21.1905 O   0  5  0  0  0  0  0  0  0  0  0  0
   20.9235   22.7541   21.5529 O   0  0  0  0  0  0  0  0  0  0  0  0
  1  2  1  0  0  0  0
  1  3  1  0  0  0  0
  1  4  2  0  0  0  0
  4  5  1  0  0  0  0
  4  6  1  0  0  0  0
  6  7  1  0  0  0  0
  6  8  1  0  0  0  0
  6  9  1  0  0  0  0
  9 10  1  0  0  0  0
  9 11  1  0  0  0  0
  9 12  1  0  0  0  0
 12 13  1  0  0  0  0
 12 14  1  0  0  0  0
 12 15  1  0  0  0  0
 15 16  1  0  0  0  0
 15 17  1  0  0  0  0
 15 18  1  0  0  0  0
 18 19  1  0  0  0  0
 18 20  2  0  0  0  0
M  END
> <VConfSearch Rank>
415

> <Conf_Id>
64

> <Delta U+W>
0.366

> <U+W>
-51.379

> <U>
10.000

> <W>
-61.379

> <W(PB)>
-63.541

> <W(SA)>
2.162

> <Valence>
9.398

> <Coulomb>
-0.504

> <VdW>
1.105

> <VdW6>
-7.975

> <VdW12>
9.080

> <Bond>
0.216

> <Angle>
3.417

> <Pdih>
5.765

> <Idih>
0.001

> <Tether>
0.000

$$$$
VeraChem MOL file


 20 19  0  0  0  0  0  0  0  0999 V2000     
   20.7481   16.5100   23.2577 C   0  0  0  0  0  0  0  0  0  0  0  0
   20.1318   16.7753   24.1151 H   0  0  0  0  0  0  0  0  0  0  0  0
   21.7061   16.0331   23.4574 H   0  0  0  0  0  0  0  0  0  0  0  0
   20.3497   16.7619   22.0080 C   0  0  0  0  0  0  0  0  0  0  0  0
   20.9828   16.4906   21.1636 H   0  0  0  0  0  0  0  0  0  0  0  0
   19.0341   17.4214   21.6525 C   0  0  0  0  0  0  0  0  0  0  0  0
   18.3780   17.4742   22.5319 H   0  0  0  0  0  0  0  0  0  0  0  0
   18.5106   16.8016   20.9125 H   0  0  0  0  0  0  0  0  0  0  0  0
   19.2283   18.8386   21.0679 C   0  0  0  0  0  0  0  0  0  0  0  0
   19.8851   18.7857   20.1887 H   0  0  0  0  0  0  0  0  0  0  0  0
   18.2578   19.2121   20.7136 H   0  0  0  0  0  0  0  0  0  0  0  0
   19.8106   19.8338   22.0975 C   0  0  0  0  0  0  0  0  0  0  0  0
   20.7945   19.4848   22.4400 H   0  0  0  0  0  0  0  0  0  0  0  0
   19.1613   19.8723   22.9830 H   0  0  0  0  0  0  0  0  0  0  0  0
   19.9544   21.2574   21.5053 C   0  0  0  0  0  0  0  0  0  0  0  0
   20.6106   21.2372   20.6269 H   0  0  0  0  0  0  0  0  0  0  0  0
   18.9782   21.6299   21.1726 H   0  0  0  0  0  0  0  0  0  0  0  0
   20.5276   22.2580   22.5025 C   0  0  0  0  0  0  0  0  0  0  0  0
   19.7545   22.8497   23.2298 O   0  5  0  0  0  0  0  0  0  0  0  0
   21.7329   22.4092   22.5354 O   0  0  0  0  0  0  0  0  0  0  0  0
  1  2  1  0  0  0  0
  1  3  1  0  0  0  0
  1  4  2  0  0  0  0
  4  5  1  0  0  0  0
  4  6  1  0  0  0  0
  6  7  1  0  0  0  0
  6  8  1  0  0  0  0
  6  9  1  0  0  0  0
  9 10  1  0  0  0  0
  9 11  1  0  0  0  0
  9 12  1  0  0  0  0
 12 13  1  0  0  0  0
 12 14  1  0  0  0  0
 12 15  1  0  0  0  0
 15 16  1  0  0  0  0
 15 17  1  0  0  0  0
 15 18  1  0  0  0  0
 18 19  1  0  0  0  0
 18 20  2  0  0  0  0
M  END
> <VConfSearch Rank>
416

> <Conf_Id>
42

> <Delta U+W>
-0.601

> <U+W>
-52.347

> <U>
8.428

> <W>
-60.774

> <W(PB)>
-62.982

> <W(SA)>
2.208

> <Valence>
9.231

> <Coulomb>
-1.304

> <VdW>
0.501

> <VdW6>
-6.515

> <VdW12>
7.016

> <Bond>
0.103

> <Angle>
2.328

> <Pdih>
6.799

> <Idih>
0.000

> <Tether>
0.000

$$$$
VeraChem MOL file


 20 19  0  0  0  0  0  0  0  0999 V2000     
   21.8710   17.2817   22.7513 C   0  0  0  0  0  0  0  0  0  0  0  0
   21.6682   17.3104   23.8206 H   0  0  0  0  0  0  0  0  0  0  0  0
   22.9118   17.2098   22.4403 H   0  0  0  0  0  0  0  0  0  0  0  0
   20.8843   17.3365   21.8526 C   0  0  0  0  0  0  0  0  0  0  0  0
   21.1090   17.3093   20.7867 H   0  0  0  0  0  0  0  0  0  0  0  0
   19.4163   17.4385   22.2082 C   0  0  0  0  0  0  0  0  0  0  0  0
   19.2654   17.2636   23.2820 H   0  0  0  0  0  0  0  0  0  0  0  0
   18.8645   16.6464   21.6848 H   0  0  0  0  0  0  0  0  0  0  0  0
   18.8133   18.8068   21.8181 C   0  0  0  0  0  0  0  0  0  0  0  0
   18.9594   18.9766   20.7424 H   0  0  0  0  0  0  0  0  0  0  0  0
   17.7281   18.7778   21.9856 H   0  0  0  0  0  0  0  0  0  0  0  0
   19.4212   19.9786   22.6249 C   0  0  0  0  0  0  0  0  0  0  0  0
   20.5011   20.0455   22.4337 H   0  0  0  0  0  0  0  0  0  0  0  0
   19.3031   19.7784   23.6983 H   0  0  0  0  0  0  0  0  0  0  0  0
   18.7584   21.3399   22.2897 C   0  0  0  0  0  0  0  0  0  0  0  0
   17.6752   21.2847   22.4521 H   0  0  0  0  0  0  0  0  0  0  0  0
   19.1422   22.1109   22.9681 H   0  0  0  0  0  0  0  0  0  0  0  0
   19.0129   21.8183   20.8631 C   0  0  0  0  0  0  0  0  0  0  0  0
   18.1182   21.7026   20.0487 O   0  5  0  0  0  0  0  0  0  0  0  0
   20.0943   22.3112   20.6088 O   0  0  0  0  0  0  0  0  0  0  0  0
  1  2  1  0  0  0  0
  1  3  1  0  0  0  0
  1  4  2  0  0  0  0
  4  5  1  0  0  0  0
  4  6  1  0  0  0  0
  6  7  1  0  0  0  0
  6  8  1  0  0  0  0
  6  9  1  0  0  0  0
  9 10  1  0  0  0  0
  9 11  1  0  0  0  0
  9 12  1  0  0  0  0
 12 13  1  0  0  0  0
 12 14  1  0  0  0  0
 12 15  1  0  0  0  0
 15 16  1  0  0  0  0
 15 17  1  0  0  0  0
 15 18  1  0  0  0  0
 18 19  1  0  0  0  0
 18 20  2  0  0  0  0
M  END
> <VConfSearch Rank>
417

> <Conf_Id>
68

> <Delta U+W>
0.492

> <U+W>
-51.253

> <U>
10.179

> <W>
-61.432

> <W(PB)>
-63.627

> <W(SA)>
2.195

> <Valence>
9.483

> <Coulomb>
0.361

> <VdW>
0.335

> <VdW6>
-7.385

> <VdW12>
7.720

> <Bond>
0.125

> <Angle>
2.487

> <Pdih>
6.870

> <Idih>
0.001

> <Tether>
0.000

$$$$
VeraChem MOL file


 20 19  0  0  0  0  0  0  0  0999 V2000     
   18.2642   20.9049   19.7465 C   0  0  0  0  0  0  0  0  0  0  0  0
   17.8406   21.7572   20.2754 H   0  0  0  0  0  0  0  0  0  0  0  0
   17.7309   20.5445   18.8686 H   0  0  0  0  0  0  0  0  0  0  0  0
   19.3919   20.3193   20.1577 C   0  0  0  0  0  0  0  0  0  0  0  0
   19.7999   19.4690   19.6120 H   0  0  0  0  0  0  0  0  0  0  0  0
   20.1892   20.7684   21.3637 C   0  0  0  0  0  0  0  0  0  0  0  0
   19.9140   21.7986   21.6270 H   0  0  0  0  0  0  0  0  0  0  0  0
   21.2593   20.7894   21.1179 H   0  0  0  0  0  0  0  0  0  0  0  0
   19.9542   19.8634   22.5941 C   0  0  0  0  0  0  0  0  0  0  0  0
   20.4521   20.3123   23.4643 H   0  0  0  0  0  0  0  0  0  0  0  0
   18.8805   19.8381   22.8267 H   0  0  0  0  0  0  0  0  0  0  0  0
   20.4849   18.4241   22.3923 C   0  0  0  0  0  0  0  0  0  0  0  0
   21.5461   18.4651   22.1121 H   0  0  0  0  0  0  0  0  0  0  0  0
   19.9556   17.9411   21.5596 H   0  0  0  0  0  0  0  0  0  0  0  0
   20.3338   17.5506   23.6647 C   0  0  0  0  0  0  0  0  0  0  0  0
   20.8273   16.5845   23.5065 H   0  0  0  0  0  0  0  0  0  0  0  0
   20.8360   18.0282   24.5147 H   0  0  0  0  0  0  0  0  0  0  0  0
   18.8855   17.2659   24.0525 C   0  0  0  0  0  0  0  0  0  0  0  0
   18.2807   16.4195   23.4241 O   0  5  0  0  0  0  0  0  0  0  0  0
   18.4068   17.8828   24.9838 O   0  0  0  0  0  0  0  0  0  0  0  0
  1  2  1  0  0  0  0
  1  3  1  0  0  0  0
  1  4  2  0  0  0  0
  4  5  1  0  0  0  0
  4  6  1  0  0  0  0
  6  7  1  0  0  0  0
  6  8  1  0  0  0  0
  6  9  1  0  0  0  0
  9 10  1  0  0  0  0
  9 11  1  0  0  0  0
  9 12  1  0  0  0  0
 12 13  1  0  0  0  0
 12 14  1  0  0  0  0
 12 15  1  0  0  0  0
 15 16  1  0  0  0  0
 15 17  1  0  0  0  0
 15 18  1  0  0  0  0
 18 19  1  0  0  0  0
 18 20  2  0  0  0  0
M  END
> <VConfSearch Rank>
418

> <Conf_Id>
87

> <Delta U+W>
0.339

> <U+W>
-51.407

> <U>
10.461

> <W>
-61.867

> <W(PB)>
-64.045

> <W(SA)>
2.178

> <Valence>
9.555

> <Coulomb>
0.483

> <VdW>
0.423

> <VdW6>
-7.223

> <VdW12>
7.646

> <Bond>
0.126

> <Angle>
2.492

> <Pdih>
6.936

> <Idih>
0.001

> <Tether>
0.000

$$$$
VeraChem MOL file


 20 19  0  0  0  0  0  0  0  0999 V2000     
   20.6570   16.4626   21.0554 C   0  0  0  0  0  0  0  0  0  0  0  0
   19.7803   15.9287   20.6924 H   0  0  0  0  0  0  0  0  0  0  0  0
   21.5912   16.3200   20.5152 H   0  0  0  0  0  0  0  0  0  0  0  0
   20.5906   17.2645   22.1214 C   0  0  0  0  0  0  0  0  0  0  0  0
   21.4809   17.7831   22.4750 H   0  0  0  0  0  0  0  0  0  0  0  0
   19.3301   17.4988   22.9263 C   0  0  0  0  0  0  0  0  0  0  0  0
   19.5811   17.8926   23.9202 H   0  0  0  0  0  0  0  0  0  0  0  0
   18.8456   16.5292   23.1039 H   0  0  0  0  0  0  0  0  0  0  0  0
   18.3133   18.4346   22.2266 C   0  0  0  0  0  0  0  0  0  0  0  0
   18.2043   18.1490   21.1714 H   0  0  0  0  0  0  0  0  0  0  0  0
   17.3298   18.2677   22.6867 H   0  0  0  0  0  0  0  0  0  0  0  0
   18.6338   19.9465   22.3385 C   0  0  0  0  0  0  0  0  0  0  0  0
   18.7557   20.2254   23.3942 H   0  0  0  0  0  0  0  0  0  0  0  0
   17.7658   20.5107   21.9700 H   0  0  0  0  0  0  0  0  0  0  0  0
   19.8825   20.3941   21.5364 C   0  0  0  0  0  0  0  0  0  0  0  0
   20.7921   19.9667   21.9701 H   0  0  0  0  0  0  0  0  0  0  0  0
   19.8157   20.0399   20.5008 H   0  0  0  0  0  0  0  0  0  0  0  0
   20.0549   21.9085   21.5097 C   0  0  0  0  0  0  0  0  0  0  0  0
   20.6868   22.4303   22.4071 O   0  5  0  0  0  0  0  0  0  0  0  0
   19.5349   22.5293   20.6036 O   0  0  0  0  0  0  0  0  0  0  0  0
  1  2  1  0  0  0  0
  1  3  1  0  0  0  0
  1  4  2  0  0  0  0
  4  5  1  0  0  0  0
  4  6  1  0  0  0  0
  6  7  1  0  0  0  0
  6  8  1  0  0  0  0
  6  9  1  0  0  0  0
  9 10  1  0  0  0  0
  9 11  1  0  0  0  0
  9 12  1  0  0  0  0
 12 13  1  0  0  0  0
 12 14  1  0  0  0  0
 12 15  1  0  0  0  0
 15 16  1  0  0  0  0
 15 17  1  0  0  0  0
 15 18  1  0  0  0  0
 18 19  1  0  0  0  0
 18 20  2  0  0  0  0
M  END
> <VConfSearch Rank>
419

> <Conf_Id>
51

> <Delta U+W>
1.709

> <U+W>
-50.036

> <U>
10.643

> <W>
-60.679

> <W(PB)>
-62.882

> <W(SA)>
2.203

> <Valence>
11.231

> <Coulomb>
-1.077

> <VdW>
0.489

> <VdW6>
-7.546

> <VdW12>
8.035

> <Bond>
0.159

> <Angle>
3.005

> <Pdih>
8.065

> <Idih>
0.002

> <Tether>
0.000

$$$$
VeraChem MOL file


 20 19  0  0  0  0  0  0  0  0999 V2000     
   17.7429   18.1806   20.0426 C   0  0  0  0  0  0  0  0  0  0  0  0
   18.0648   18.6727   19.1263 H   0  0  0  0  0  0  0  0  0  0  0  0
   16.6731   18.0446   20.1905 H   0  0  0  0  0  0  0  0  0  0  0  0
   18.6253   17.7612   20.9533 C   0  0  0  0  0  0  0  0  0  0  0  0
   18.2842   17.2627   21.8599 H   0  0  0  0  0  0  0  0  0  0  0  0
   20.1251   17.9059   20.8073 C   0  0  0  0  0  0  0  0  0  0  0  0
   20.4057   17.6074   19.7883 H   0  0  0  0  0  0  0  0  0  0  0  0
   20.6418   17.2045   21.4759 H   0  0  0  0  0  0  0  0  0  0  0  0
   20.6353   19.3474   21.0543 C   0  0  0  0  0  0  0  0  0  0  0  0
   21.6298   19.4360   20.5961 H   0  0  0  0  0  0  0  0  0  0  0  0
   19.9956   20.0680   20.5268 H   0  0  0  0  0  0  0  0  0  0  0  0
   20.7682   19.7459   22.5458 C   0  0  0  0  0  0  0  0  0  0  0  0
   21.3010   20.7055   22.5997 H   0  0  0  0  0  0  0  0  0  0  0  0
   21.3970   19.0154   23.0732 H   0  0  0  0  0  0  0  0  0  0  0  0
   19.4155   19.8969   23.2879 C   0  0  0  0  0  0  0  0  0  0  0  0
   18.7428   20.5520   22.7215 H   0  0  0  0  0  0  0  0  0  0  0  0
   18.9200   18.9259   23.3863 H   0  0  0  0  0  0  0  0  0  0  0  0
   19.5728   20.4758   24.6892 C   0  0  0  0  0  0  0  0  0  0  0  0
   19.7674   19.7066   25.6097 O   0  5  0  0  0  0  0  0  0  0  0  0
   19.5171   21.6827   24.8211 O   0  0  0  0  0  0  0  0  0  0  0  0
  1  2  1  0  0  0  0
  1  3  1  0  0  0  0
  1  4  2  0  0  0  0
  4  5  1  0  0  0  0
  4  6  1  0  0  0  0
  6  7  1  0  0  0  0
  6  8  1  0  0  0  0
  6  9  1  0  0  0  0
  9 10  1  0  0  0  0
  9 11  1  0  0  0  0
  9 12  1  0  0  0  0
 12 13  1  0  0  0  0
 12 14  1  0  0  0  0
 12 15  1  0  0  0  0
 15 16  1  0  0  0  0
 15 17  1  0  0  0  0
 15 18  1  0  0  0  0
 18 19  1  0  0  0  0
 18 20  2  0  0  0  0
M  END
> <VConfSearch Rank>
420

> <Conf_Id>
91

> <Delta U+W>
1.604

> <U+W>
-50.141

> <U>
10.644

> <W>
-60.786

> <W(PB)>
-62.965

> <W(SA)>
2.179

> <Valence>
11.230

> <Coulomb>
-1.075

> <VdW>
0.489

> <VdW6>
-7.547

> <VdW12>
8.036

> <Bond>
0.159

> <Angle>
3.006

> <Pdih>
8.064

> <Idih>
0.002

> <Tether>
0.000

$$$$
VeraChem MOL file


 20 19  0  0  0  0  0  0  0  0999 V2000     
   18.1509   18.7167   18.5955 C   0  0  0  0  0  0  0  0  0  0  0  0
   19.1105   18.9364   18.1303 H   0  0  0  0  0  0  0  0  0  0  0  0
   17.2559   18.8737   17.9959 H   0  0  0  0  0  0  0  0  0  0  0  0
   18.0703   18.2742   19.8530 C   0  0  0  0  0  0  0  0  0  0  0  0
   17.0996   18.0609   20.3003 H   0  0  0  0  0  0  0  0  0  0  0  0
   19.2676   18.0319   20.7449 C   0  0  0  0  0  0  0  0  0  0  0  0
   20.1897   18.0174   20.1480 H   0  0  0  0  0  0  0  0  0  0  0  0
   19.1808   17.0436   21.2161 H   0  0  0  0  0  0  0  0  0  0  0  0
   19.3786   19.1175   21.8357 C   0  0  0  0  0  0  0  0  0  0  0  0
   19.4608   20.1042   21.3592 H   0  0  0  0  0  0  0  0  0  0  0  0
   18.4579   19.1285   22.4353 H   0  0  0  0  0  0  0  0  0  0  0  0
   20.5951   18.8835   22.7578 C   0  0  0  0  0  0  0  0  0  0  0  0
   21.5164   18.8729   22.1589 H   0  0  0  0  0  0  0  0  0  0  0  0
   20.5141   17.8964   23.2337 H   0  0  0  0  0  0  0  0  0  0  0  0
   20.7068   19.9760   23.8543 C   0  0  0  0  0  0  0  0  0  0  0  0
   20.7945   20.9635   23.3862 H   0  0  0  0  0  0  0  0  0  0  0  0
   19.7931   19.9880   24.4602 H   0  0  0  0  0  0  0  0  0  0  0  0
   21.8879   19.8195   24.8134 C   0  0  0  0  0  0  0  0  0  0  0  0
   22.0076   20.6556   25.6867 O   0  5  0  0  0  0  0  0  0  0  0  0
   22.6549   18.8857   24.6779 O   0  0  0  0  0  0  0  0  0  0  0  0
  1  2  1  0  0  0  0
  1  3  1  0  0  0  0
  1  4  2  0  0  0  0
  4  5  1  0  0  0  0
  4  6  1  0  0  0  0
  6  7  1  0  0  0  0
  6  8  1  0  0  0  0
  6  9  1  0  0  0  0
  9 10  1  0  0  0  0
  9 11  1  0  0  0  0
  9 12  1  0  0  0  0
 12 13  1  0  0  0  0
 12 14  1  0  0  0  0
 12 15  1  0  0  0  0
 15 16  1  0  0  0  0
 15 17  1  0  0  0  0
 15 18  1  0  0  0  0
 18 19  1  0  0  0  0
 18 20  2  0  0  0  0
M  END
> <VConfSearch Rank>
421

> <Conf_Id>
33

> <Delta U+W>
0.000

> <U+W>
-51.745

> <U>
7.593

> <W>
-59.338

> <W(PB)>
-61.574

> <W(SA)>
2.236

> <Valence>
9.570

> <Coulomb>
-3.091

> <VdW>
1.114

> <VdW6>
-6.064

> <VdW12>
7.178

> <Bond>
0.117

> <Angle>
2.692

> <Pdih>
6.761

> <Idih>
0.000

> <Tether>
0.000

$$$$
VeraChem MOL file


 20 19  0  0  0  0  0  0  0  0999 V2000     
   17.9595   15.8610   21.6720 C   0  0  0  0  0  0  0  0  0  0  0  0
   17.5534   16.1646   20.7084 H   0  0  0  0  0  0  0  0  0  0  0  0
   17.5516   14.9594   22.1259 H   0  0  0  0  0  0  0  0  0  0  0  0
   18.9187   16.5655   22.2781 C   0  0  0  0  0  0  0  0  0  0  0  0
   19.3109   16.2449   23.2429 H   0  0  0  0  0  0  0  0  0  0  0  0
   19.5334   17.8251   21.7095 C   0  0  0  0  0  0  0  0  0  0  0  0
   19.2745   17.9276   20.6469 H   0  0  0  0  0  0  0  0  0  0  0  0
   20.6267   17.7482   21.7638 H   0  0  0  0  0  0  0  0  0  0  0  0
   19.0504   19.0746   22.4796 C   0  0  0  0  0  0  0  0  0  0  0  0
   17.9517   19.0845   22.4838 H   0  0  0  0  0  0  0  0  0  0  0  0
   19.3639   19.0053   23.5303 H   0  0  0  0  0  0  0  0  0  0  0  0
   19.5534   20.4063   21.8730 C   0  0  0  0  0  0  0  0  0  0  0  0
   19.0757   21.2393   22.4072 H   0  0  0  0  0  0  0  0  0  0  0  0
   19.2293   20.4832   20.8259 H   0  0  0  0  0  0  0  0  0  0  0  0
   21.0923   20.5806   21.9530 C   0  0  0  0  0  0  0  0  0  0  0  0
   21.4333   20.4634   22.9885 H   0  0  0  0  0  0  0  0  0  0  0  0
   21.5997   19.8159   21.3543 H   0  0  0  0  0  0  0  0  0  0  0  0
   21.5573   21.9439   21.4536 C   0  0  0  0  0  0  0  0  0  0  0  0
   21.8111   22.0660   20.2715 O   0  5  0  0  0  0  0  0  0  0  0  0
   21.6345   22.8530   22.2563 O   0  0  0  0  0  0  0  0  0  0  0  0
  1  2  1  0  0  0  0
  1  3  1  0  0  0  0
  1  4  2  0  0  0  0
  4  5  1  0  0  0  0
  4  6  1  0  0  0  0
  6  7  1  0  0  0  0
  6  8  1  0  0  0  0
  6  9  1  0  0  0  0
  9 10  1  0  0  0  0
  9 11  1  0  0  0  0
  9 12  1  0  0  0  0
 12 13  1  0  0  0  0
 12 14  1  0  0  0  0
 12 15  1  0  0  0  0
 15 16  1  0  0  0  0
 15 17  1  0  0  0  0
 15 18  1  0  0  0  0
 18 19  1  0  0  0  0
 18 20  2  0  0  0  0
M  END
> <VConfSearch Rank>
422

> <Conf_Id>
37

> <Delta U+W>
-0.384

> <U+W>
-52.130

> <U>
7.491

> <W>
-59.621

> <W(PB)>
-61.853

> <W(SA)>
2.232

> <Valence>
9.604

> <Coulomb>
-2.799

> <VdW>
0.686

> <VdW6>
-6.435

> <VdW12>
7.121

> <Bond>
0.124

> <Angle>
2.493

> <Pdih>
6.986

> <Idih>
0.001

> <Tether>
0.000

$$$$
VeraChem MOL file


 20 19  0  0  0  0  0  0  0  0999 V2000     
   17.3314   18.3280   24.0723 C   0  0  0  0  0  0  0  0  0  0  0  0
   16.5216   18.1020   24.7640 H   0  0  0  0  0  0  0  0  0  0  0  0
   18.2918   18.5915   24.5103 H   0  0  0  0  0  0  0  0  0  0  0  0
   17.1342   18.2786   22.7500 C   0  0  0  0  0  0  0  0  0  0  0  0
   16.1490   18.0081   22.3709 H   0  0  0  0  0  0  0  0  0  0  0  0
   18.1607   18.5660   21.6670 C   0  0  0  0  0  0  0  0  0  0  0  0
   17.7796   19.3709   21.0244 H   0  0  0  0  0  0  0  0  0  0  0  0
   18.2453   17.6841   21.0181 H   0  0  0  0  0  0  0  0  0  0  0  0
   19.5664   18.9521   22.1837 C   0  0  0  0  0  0  0  0  0  0  0  0
   19.4916   19.8467   22.8172 H   0  0  0  0  0  0  0  0  0  0  0  0
   19.9623   18.1415   22.8108 H   0  0  0  0  0  0  0  0  0  0  0  0
   20.5472   19.2272   21.0229 C   0  0  0  0  0  0  0  0  0  0  0  0
   20.1566   20.0375   20.3916 H   0  0  0  0  0  0  0  0  0  0  0  0
   20.6264   18.3358   20.3852 H   0  0  0  0  0  0  0  0  0  0  0  0
   21.9555   19.6141   21.5377 C   0  0  0  0  0  0  0  0  0  0  0  0
   21.8960   20.5111   22.1658 H   0  0  0  0  0  0  0  0  0  0  0  0
   22.3657   18.8094   22.1596 H   0  0  0  0  0  0  0  0  0  0  0  0
   22.9427   19.8907   20.4095 C   0  0  0  0  0  0  0  0  0  0  0  0
   23.0218   21.0255   19.9820 O   0  5  0  0  0  0  0  0  0  0  0  0
   23.5922   18.9603   19.9747 O   0  0  0  0  0  0  0  0  0  0  0  0
  1  2  1  0  0  0  0
  1  3  1  0  0  0  0
  1  4  2  0  0  0  0
  4  5  1  0  0  0  0
  4  6  1  0  0  0  0
  6  7  1  0  0  0  0
  6  8  1  0  0  0  0
  6  9  1  0  0  0  0
  9 10  1  0  0  0  0
  9 11  1  0  0  0  0
  9 12  1  0  0  0  0
 12 13  1  0  0  0  0
 12 14  1  0  0  0  0
 12 15  1  0  0  0  0
 15 16  1  0  0  0  0
 15 17  1  0  0  0  0
 15 18  1  0  0  0  0
 18 19  1  0  0  0  0
 18 20  2  0  0  0  0
M  END
> <VConfSearch Rank>
423

> <Conf_Id>
44

> <Delta U+W>
-1.440

> <U+W>
-53.185

> <U>
6.572

> <W>
-59.757

> <W(PB)>
-62.007

> <W(SA)>
2.249

> <Valence>
7.989

> <Coulomb>
-2.697

> <VdW>
1.281

> <VdW6>
-6.467

> <VdW12>
7.748

> <Bond>
0.136

> <Angle>
2.854

> <Pdih>
4.997

> <Idih>
0.001

> <Tether>
0.000

$$$$
VeraChem MOL file


 20 19  0  0  0  0  0  0  0  0999 V2000     
   19.8416   15.6145   21.6473 C   0  0  0  0  0  0  0  0  0  0  0  0
   19.7495   15.8731   20.5937 H   0  0  0  0  0  0  0  0  0  0  0  0
   19.6587   14.5782   21.9266 H   0  0  0  0  0  0  0  0  0  0  0  0
   20.1634   16.5300   22.5649 C   0  0  0  0  0  0  0  0  0  0  0  0
   20.2498   16.2503   23.6147 H   0  0  0  0  0  0  0  0  0  0  0  0
   20.4326   17.9853   22.2526 C   0  0  0  0  0  0  0  0  0  0  0  0
   20.5903   18.1119   21.1739 H   0  0  0  0  0  0  0  0  0  0  0  0
   21.3604   18.3010   22.7482 H   0  0  0  0  0  0  0  0  0  0  0  0
   19.2635   18.8795   22.7231 C   0  0  0  0  0  0  0  0  0  0  0  0
   18.3469   18.5987   22.1862 H   0  0  0  0  0  0  0  0  0  0  0  0
   19.0718   18.6834   23.7870 H   0  0  0  0  0  0  0  0  0  0  0  0
   19.5312   20.3926   22.5412 C   0  0  0  0  0  0  0  0  0  0  0  0
   20.4423   20.6768   23.0856 H   0  0  0  0  0  0  0  0  0  0  0  0
   18.7068   20.9539   23.0026 H   0  0  0  0  0  0  0  0  0  0  0  0
   19.6583   20.8250   21.0573 C   0  0  0  0  0  0  0  0  0  0  0  0
   20.5291   20.3520   20.5898 H   0  0  0  0  0  0  0  0  0  0  0  0
   18.7730   20.5075   20.4934 H   0  0  0  0  0  0  0  0  0  0  0  0
   19.8070   22.3333   20.8939 C   0  0  0  0  0  0  0  0  0  0  0  0
   18.7980   22.9993   20.7709 O   0  5  0  0  0  0  0  0  0  0  0  0
   20.9268   22.8050   20.9140 O   0  0  0  0  0  0  0  0  0  0  0  0
  1  2  1  0  0  0  0
  1  3  1  0  0  0  0
  1  4  2  0  0  0  0
  4  5  1  0  0  0  0
  4  6  1  0  0  0  0
  6  7  1  0  0  0  0
  6  8  1  0  0  0  0
  6  9  1  0  0  0  0
  9 10  1  0  0  0  0
  9 11  1  0  0  0  0
  9 12  1  0  0  0  0
 12 13  1  0  0  0  0
 12 14  1  0  0  0  0
 12 15  1  0  0  0  0
 15 16  1  0  0  0  0
 15 17  1  0  0  0  0
 15 18  1  0  0  0  0
 18 19  1  0  0  0  0
 18 20  2  0  0  0  0
M  END
> <VConfSearch Rank>
424

> <Conf_Id>
38

> <Delta U+W>
-0.381

> <U+W>
-52.126

> <U>
7.601

> <W>
-59.727

> <W(PB)>
-61.964

> <W(SA)>
2.236

> <Valence>
9.602

> <Coulomb>
-2.686

> <VdW>
0.685

> <VdW6>
-6.453

> <VdW12>
7.139

> <Bond>
0.125

> <Angle>
2.485

> <Pdih>
6.991

> <Idih>
0.001

> <Tether>
0.000

$$$$
VeraChem MOL file


 20 19  0  0  0  0  0  0  0  0999 V2000     
   20.9339   15.9054   22.4307 C   0  0  0  0  0  0  0  0  0  0  0  0
   20.1577   15.4855   21.7929 H   0  0  0  0  0  0  0  0  0  0  0  0
   21.8418   15.3201   22.5664 H   0  0  0  0  0  0  0  0  0  0  0  0
   20.7833   17.0928   23.0234 C   0  0  0  0  0  0  0  0  0  0  0  0
   21.5729   17.4957   23.6572 H   0  0  0  0  0  0  0  0  0  0  0  0
   19.5526   17.9607   22.8824 C   0  0  0  0  0  0  0  0  0  0  0  0
   19.2217   18.2930   23.8754 H   0  0  0  0  0  0  0  0  0  0  0  0
   18.7255   17.3804   22.4512 H   0  0  0  0  0  0  0  0  0  0  0  0
   19.8366   19.1900   21.9940 C   0  0  0  0  0  0  0  0  0  0  0  0
   20.6626   19.7698   22.4287 H   0  0  0  0  0  0  0  0  0  0  0  0
   20.1719   18.8536   21.0032 H   0  0  0  0  0  0  0  0  0  0  0  0
   18.5893   20.0897   21.8419 C   0  0  0  0  0  0  0  0  0  0  0  0
   18.2575   20.4365   22.8305 H   0  0  0  0  0  0  0  0  0  0  0  0
   17.7650   19.4978   21.4215 H   0  0  0  0  0  0  0  0  0  0  0  0
   18.8462   21.3154   20.9273 C   0  0  0  0  0  0  0  0  0  0  0  0
   19.2051   20.9863   19.9445 H   0  0  0  0  0  0  0  0  0  0  0  0
   17.9043   21.8505   20.7585 H   0  0  0  0  0  0  0  0  0  0  0  0
   19.8442   22.3179   21.4998 C   0  0  0  0  0  0  0  0  0  0  0  0
   20.9645   22.3477   21.0297 O   0  5  0  0  0  0  0  0  0  0  0  0
   19.4701   23.0506   22.3944 O   0  0  0  0  0  0  0  0  0  0  0  0
  1  2  1  0  0  0  0
  1  3  1  0  0  0  0
  1  4  2  0  0  0  0
  4  5  1  0  0  0  0
  4  6  1  0  0  0  0
  6  7  1  0  0  0  0
  6  8  1  0  0  0  0
  6  9  1  0  0  0  0
  9 10  1  0  0  0  0
  9 11  1  0  0  0  0
  9 12  1  0  0  0  0
 12 13  1  0  0  0  0
 12 14  1  0  0  0  0
 12 15  1  0  0  0  0
 15 16  1  0  0  0  0
 15 17  1  0  0  0  0
 15 18  1  0  0  0  0
 18 19  1  0  0  0  0
 18 20  2  0  0  0  0
M  END
> <VConfSearch Rank>
425

> <Conf_Id>
58

> <Delta U+W>
0.019

> <U+W>
-51.727

> <U>
8.963

> <W>
-60.690

> <W(PB)>
-62.934

> <W(SA)>
2.244

> <Valence>
9.327

> <Coulomb>
-0.780

> <VdW>
0.417

> <VdW6>
-6.635

> <VdW12>
7.052

> <Bond>
0.105

> <Angle>
2.399

> <Pdih>
6.822

> <Idih>
0.000

> <Tether>
0.000

$$$$
VeraChem MOL file


 20 19  0  0  0  0  0  0  0  0999 V2000     
   21.7624   22.1726   21.8981 C   0  0  0  0  0  0  0  0  0  0  0  0
   22.5199   21.6906   21.2821 H   0  0  0  0  0  0  0  0  0  0  0  0
   22.0630   23.0522   22.4649 H   0  0  0  0  0  0  0  0  0  0  0  0
   20.5131   21.7048   21.9610 C   0  0  0  0  0  0  0  0  0  0  0  0
   19.7701   22.2016   22.5846 H   0  0  0  0  0  0  0  0  0  0  0  0
   20.0230   20.4910   21.2033 C   0  0  0  0  0  0  0  0  0  0  0  0
   20.7434   20.2146   20.4213 H   0  0  0  0  0  0  0  0  0  0  0  0
   19.0804   20.7319   20.6939 H   0  0  0  0  0  0  0  0  0  0  0  0
   19.8070   19.2925   22.1508 C   0  0  0  0  0  0  0  0  0  0  0  0
   20.7508   19.0576   22.6620 H   0  0  0  0  0  0  0  0  0  0  0  0
   19.0845   19.5708   22.9305 H   0  0  0  0  0  0  0  0  0  0  0  0
   19.3030   18.0438   21.3924 C   0  0  0  0  0  0  0  0  0  0  0  0
   20.0236   17.7827   20.6054 H   0  0  0  0  0  0  0  0  0  0  0  0
   18.3535   18.2722   20.8886 H   0  0  0  0  0  0  0  0  0  0  0  0
   19.1088   16.8188   22.3232 C   0  0  0  0  0  0  0  0  0  0  0  0
   18.8671   15.9353   21.7207 H   0  0  0  0  0  0  0  0  0  0  0  0
   20.0416   16.5952   22.8549 H   0  0  0  0  0  0  0  0  0  0  0  0
   17.9923   16.9906   23.3493 C   0  0  0  0  0  0  0  0  0  0  0  0
   16.8430   16.8948   22.9660 O   0  5  0  0  0  0  0  0  0  0  0  0
   18.3004   17.2044   24.5053 O   0  0  0  0  0  0  0  0  0  0  0  0
  1  2  1  0  0  0  0
  1  3  1  0  0  0  0
  1  4  2  0  0  0  0
  4  5  1  0  0  0  0
  4  6  1  0  0  0  0
  6  7  1  0  0  0  0
  6  8  1  0  0  0  0
  6  9  1  0  0  0  0
  9 10  1  0  0  0  0
  9 11  1  0  0  0  0
  9 12  1  0  0  0  0
 12 13  1  0  0  0  0
 12 14  1  0  0  0  0
 12 15  1  0  0  0  0
 15 16  1  0  0  0  0
 15 17  1  0  0  0  0
 15 18  1  0  0  0  0
 18 19  1  0  0  0  0
 18 20  2  0  0  0  0
M  END
> <VConfSearch Rank>
426

> <Conf_Id>
54

> <Delta U+W>
-0.048

> <U+W>
-51.793

> <U>
8.964

> <W>
-60.756

> <W(PB)>
-63.007

> <W(SA)>
2.251

> <Valence>
9.327

> <Coulomb>
-0.780

> <VdW>
0.417

> <VdW6>
-6.635

> <VdW12>
7.052

> <Bond>
0.105

> <Angle>
2.399

> <Pdih>
6.822

> <Idih>
0.000

> <Tether>
0.000

$$$$
VeraChem MOL file


 20 19  0  0  0  0  0  0  0  0999 V2000     
   17.8858   21.8605   21.6044 C   0  0  0  0  0  0  0  0  0  0  0  0
   18.0641   22.8249   21.1319 H   0  0  0  0  0  0  0  0  0  0  0  0
   16.8906   21.4301   21.5051 H   0  0  0  0  0  0  0  0  0  0  0  0
   18.8536   21.2317   22.2764 C   0  0  0  0  0  0  0  0  0  0  0  0
   19.8417   21.6819   22.3667 H   0  0  0  0  0  0  0  0  0  0  0  0
   18.6768   19.8944   22.9637 C   0  0  0  0  0  0  0  0  0  0  0  0
   17.6084   19.7042   23.1336 H   0  0  0  0  0  0  0  0  0  0  0  0
   19.1460   19.9187   23.9564 H   0  0  0  0  0  0  0  0  0  0  0  0
   19.2622   18.7260   22.1389 C   0  0  0  0  0  0  0  0  0  0  0  0
   18.9807   17.7800   22.6212 H   0  0  0  0  0  0  0  0  0  0  0  0
   18.8026   18.7171   21.1409 H   0  0  0  0  0  0  0  0  0  0  0  0
   20.8022   18.7953   22.0060 C   0  0  0  0  0  0  0  0  0  0  0  0
   21.2615   18.8191   23.0040 H   0  0  0  0  0  0  0  0  0  0  0  0
   21.0853   19.7305   21.5052 H   0  0  0  0  0  0  0  0  0  0  0  0
   21.3847   17.6048   21.2007 C   0  0  0  0  0  0  0  0  0  0  0  0
   20.9109   17.5477   20.2133 H   0  0  0  0  0  0  0  0  0  0  0  0
   22.4555   17.7670   21.0302 H   0  0  0  0  0  0  0  0  0  0  0  0
   21.2330   16.2533   21.8932 C   0  0  0  0  0  0  0  0  0  0  0  0
   20.3842   15.4872   21.4814 O   0  5  0  0  0  0  0  0  0  0  0  0
   21.9765   15.9986   22.8203 O   0  0  0  0  0  0  0  0  0  0  0  0
  1  2  1  0  0  0  0
  1  3  1  0  0  0  0
  1  4  2  0  0  0  0
  4  5  1  0  0  0  0
  4  6  1  0  0  0  0
  6  7  1  0  0  0  0
  6  8  1  0  0  0  0
  6  9  1  0  0  0  0
  9 10  1  0  0  0  0
  9 11  1  0  0  0  0
  9 12  1  0  0  0  0
 12 13  1  0  0  0  0
 12 14  1  0  0  0  0
 12 15  1  0  0  0  0
 15 16  1  0  0  0  0
 15 17  1  0  0  0  0
 15 18  1  0  0  0  0
 18 19  1  0  0  0  0
 18 20  2  0  0  0  0
M  END
> <VConfSearch Rank>
427

> <Conf_Id>
27

> <Delta U+W>
0.478

> <U+W>
-51.267

> <U>
9.192

> <W>
-60.459

> <W(PB)>
-62.649

> <W(SA)>
2.190

> <Valence>
9.572

> <Coulomb>
-0.884

> <VdW>
0.504

> <VdW6>
-7.168

> <VdW12>
7.672

> <Bond>
0.127

> <Angle>
2.504

> <Pdih>
6.941

> <Idih>
0.001

> <Tether>
0.000

$$$$
VeraChem MOL file


 20 19  0  0  0  0  0  0  0  0999 V2000     
   20.2149   19.0314   25.2311 C   0  0  0  0  0  0  0  0  0  0  0  0
   20.7029   19.9886   25.4074 H   0  0  0  0  0  0  0  0  0  0  0  0
   20.4360   18.2211   25.9237 H   0  0  0  0  0  0  0  0  0  0  0  0
   19.3796   18.8531   24.2044 C   0  0  0  0  0  0  0  0  0  0  0  0
   18.8994   17.8876   24.0480 H   0  0  0  0  0  0  0  0  0  0  0  0
   19.0205   19.9334   23.2065 C   0  0  0  0  0  0  0  0  0  0  0  0
   19.2482   20.9204   23.6314 H   0  0  0  0  0  0  0  0  0  0  0  0
   17.9389   19.9228   23.0165 H   0  0  0  0  0  0  0  0  0  0  0  0
   19.7859   19.7800   21.8728 C   0  0  0  0  0  0  0  0  0  0  0  0
   19.5847   20.6599   21.2464 H   0  0  0  0  0  0  0  0  0  0  0  0
   20.8667   19.7755   22.0709 H   0  0  0  0  0  0  0  0  0  0  0  0
   19.3903   18.5032   21.0961 C   0  0  0  0  0  0  0  0  0  0  0  0
   18.3055   18.4967   20.9215 H   0  0  0  0  0  0  0  0  0  0  0  0
   19.6227   17.6125   21.6955 H   0  0  0  0  0  0  0  0  0  0  0  0
   20.1275   18.4045   19.7378 C   0  0  0  0  0  0  0  0  0  0  0  0
   19.8955   19.2776   19.1162 H   0  0  0  0  0  0  0  0  0  0  0  0
   21.2126   18.3977   19.8960 H   0  0  0  0  0  0  0  0  0  0  0  0
   19.7553   17.1521   18.9523 C   0  0  0  0  0  0  0  0  0  0  0  0
   20.4144   16.1467   19.1295 O   0  5  0  0  0  0  0  0  0  0  0  0
   18.8052   17.2101   18.1970 O   0  0  0  0  0  0  0  0  0  0  0  0
  1  2  1  0  0  0  0
  1  3  1  0  0  0  0
  1  4  2  0  0  0  0
  4  5  1  0  0  0  0
  4  6  1  0  0  0  0
  6  7  1  0  0  0  0
  6  8  1  0  0  0  0
  6  9  1  0  0  0  0
  9 10  1  0  0  0  0
  9 11  1  0  0  0  0
  9 12  1  0  0  0  0
 12 13  1  0  0  0  0
 12 14  1  0  0  0  0
 12 15  1  0  0  0  0
 15 16  1  0  0  0  0
 15 17  1  0  0  0  0
 15 18  1  0  0  0  0
 18 19  1  0  0  0  0
 18 20  2  0  0  0  0
M  END
> <VConfSearch Rank>
428

> <Conf_Id>
41

> <Delta U+W>
-0.634

> <U+W>
-52.379

> <U>
7.828

> <W>
-60.207

> <W(PB)>
-62.449

> <W(SA)>
2.242

> <Valence>
9.300

> <Coulomb>
-2.080

> <VdW>
0.608

> <VdW6>
-6.341

> <VdW12>
6.949

> <Bond>
0.103

> <Angle>
2.334

> <Pdih>
6.862

> <Idih>
0.001

> <Tether>
0.000

$$$$
VeraChem MOL file


 20 19  0  0  0  0  0  0  0  0999 V2000     
   22.9180   18.2238   20.4150 C   0  0  0  0  0  0  0  0  0  0  0  0
   23.3901   17.7068   19.5814 H   0  0  0  0  0  0  0  0  0  0  0  0
   23.4604   19.0562   20.8603 H   0  0  0  0  0  0  0  0  0  0  0  0
   21.7190   17.8498   20.8692 C   0  0  0  0  0  0  0  0  0  0  0  0
   21.1919   17.0142   20.4092 H   0  0  0  0  0  0  0  0  0  0  0  0
   21.0022   18.5179   22.0214 C   0  0  0  0  0  0  0  0  0  0  0  0
   21.6964   19.1603   22.5798 H   0  0  0  0  0  0  0  0  0  0  0  0
   20.6479   17.7482   22.7192 H   0  0  0  0  0  0  0  0  0  0  0  0
   19.8094   19.3613   21.5185 C   0  0  0  0  0  0  0  0  0  0  0  0
   20.1676   20.0579   20.7480 H   0  0  0  0  0  0  0  0  0  0  0  0
   19.0781   18.7059   21.0256 H   0  0  0  0  0  0  0  0  0  0  0  0
   19.1139   20.1774   22.6358 C   0  0  0  0  0  0  0  0  0  0  0  0
   18.3329   20.8035   22.1824 H   0  0  0  0  0  0  0  0  0  0  0  0
   19.8401   20.8687   23.0842 H   0  0  0  0  0  0  0  0  0  0  0  0
   18.4727   19.3148   23.7570 C   0  0  0  0  0  0  0  0  0  0  0  0
   19.2376   18.7313   24.2820 H   0  0  0  0  0  0  0  0  0  0  0  0
   18.0172   19.9733   24.5057 H   0  0  0  0  0  0  0  0  0  0  0  0
   17.3842   18.3644   23.2664 C   0  0  0  0  0  0  0  0  0  0  0  0
   16.3181   18.8407   22.9289 O   0  5  0  0  0  0  0  0  0  0  0  0
   17.6236   17.1730   23.2513 O   0  0  0  0  0  0  0  0  0  0  0  0
  1  2  1  0  0  0  0
  1  3  1  0  0  0  0
  1  4  2  0  0  0  0
  4  5  1  0  0  0  0
  4  6  1  0  0  0  0
  6  7  1  0  0  0  0
  6  8  1  0  0  0  0
  6  9  1  0  0  0  0
  9 10  1  0  0  0  0
  9 11  1  0  0  0  0
  9 12  1  0  0  0  0
 12 13  1  0  0  0  0
 12 14  1  0  0  0  0
 12 15  1  0  0  0  0
 15 16  1  0  0  0  0
 15 17  1  0  0  0  0
 15 18  1  0  0  0  0
 18 19  1  0  0  0  0
 18 20  2  0  0  0  0
M  END
> <VConfSearch Rank>
429

> <Conf_Id>
84

> <Delta U+W>
0.942

> <U+W>
-50.803

> <U>
10.196

> <W>
-60.999

> <W(PB)>
-63.182

> <W(SA)>
2.182

> <Valence>
9.837

> <Coulomb>
0.032

> <VdW>
0.328

> <VdW6>
-7.642

> <VdW12>
7.969

> <Bond>
0.151

> <Angle>
2.748

> <Pdih>
6.937

> <Idih>
0.001

> <Tether>
0.000

$$$$
VeraChem MOL file


 20 19  0  0  0  0  0  0  0  0999 V2000     
   21.5371   19.4679   19.1755 C   0  0  0  0  0  0  0  0  0  0  0  0
   22.0487   18.9180   18.3874 H   0  0  0  0  0  0  0  0  0  0  0  0
   20.9008   20.2988   18.8748 H   0  0  0  0  0  0  0  0  0  0  0  0
   21.6849   19.1316   20.4595 C   0  0  0  0  0  0  0  0  0  0  0  0
   22.3259   18.2959   20.7393 H   0  0  0  0  0  0  0  0  0  0  0  0
   21.0082   19.8481   21.6068 C   0  0  0  0  0  0  0  0  0  0  0  0
   20.6020   20.8107   21.2675 H   0  0  0  0  0  0  0  0  0  0  0  0
   21.7482   20.0742   22.3861 H   0  0  0  0  0  0  0  0  0  0  0  0
   19.8711   18.9933   22.2047 C   0  0  0  0  0  0  0  0  0  0  0  0
   19.1380   18.7655   21.4184 H   0  0  0  0  0  0  0  0  0  0  0  0
   20.2773   18.0319   22.5481 H   0  0  0  0  0  0  0  0  0  0  0  0
   19.1711   19.7102   23.3813 C   0  0  0  0  0  0  0  0  0  0  0  0
   18.7513   20.6660   23.0380 H   0  0  0  0  0  0  0  0  0  0  0  0
   19.9148   19.9507   24.1531 H   0  0  0  0  0  0  0  0  0  0  0  0
   18.0454   18.8537   24.0169 C   0  0  0  0  0  0  0  0  0  0  0  0
   18.4436   17.8844   24.3405 H   0  0  0  0  0  0  0  0  0  0  0  0
   17.6648   19.3561   24.9140 H   0  0  0  0  0  0  0  0  0  0  0  0
   16.8562   18.6078   23.0926 C   0  0  0  0  0  0  0  0  0  0  0  0
   16.7351   17.5078   22.5903 O   0  5  0  0  0  0  0  0  0  0  0  0
   16.0749   19.5207   22.9102 O   0  0  0  0  0  0  0  0  0  0  0  0
  1  2  1  0  0  0  0
  1  3  1  0  0  0  0
  1  4  2  0  0  0  0
  4  5  1  0  0  0  0
  4  6  1  0  0  0  0
  6  7  1  0  0  0  0
  6  8  1  0  0  0  0
  6  9  1  0  0  0  0
  9 10  1  0  0  0  0
  9 11  1  0  0  0  0
  9 12  1  0  0  0  0
 12 13  1  0  0  0  0
 12 14  1  0  0  0  0
 12 15  1  0  0  0  0
 15 16  1  0  0  0  0
 15 17  1  0  0  0  0
 15 18  1  0  0  0  0
 18 19  1  0  0  0  0
 18 20  2  0  0  0  0
M  END
> <VConfSearch Rank>
430

> <Conf_Id>
81

> <Delta U+W>
-0.051

> <U+W>
-51.796

> <U>
9.412

> <W>
-61.209

> <W(PB)>
-63.452

> <W(SA)>
2.243

> <Valence>
9.329

> <Coulomb>
-0.323

> <VdW>
0.406

> <VdW6>
-6.640

> <VdW12>
7.046

> <Bond>
0.105

> <Angle>
2.401

> <Pdih>
6.823

> <Idih>
0.000

> <Tether>
0.000

$$$$
VeraChem MOL file


 20 19  0  0  0  0  0  0  0  0999 V2000     
   22.6286   20.0388   22.8754 C   0  0  0  0  0  0  0  0  0  0  0  0
   23.3358   19.4106   22.3361 H   0  0  0  0  0  0  0  0  0  0  0  0
   23.0122   20.9525   23.3261 H   0  0  0  0  0  0  0  0  0  0  0  0
   21.3393   19.7063   22.9797 C   0  0  0  0  0  0  0  0  0  0  0  0
   20.6485   20.3478   23.5260 H   0  0  0  0  0  0  0  0  0  0  0  0
   20.7361   18.4517   22.3852 C   0  0  0  0  0  0  0  0  0  0  0  0
   20.0752   17.9684   23.1164 H   0  0  0  0  0  0  0  0  0  0  0  0
   21.5305   17.7235   22.1732 H   0  0  0  0  0  0  0  0  0  0  0  0
   19.9638   18.7312   21.0736 C   0  0  0  0  0  0  0  0  0  0  0  0
   20.6647   19.1334   20.3294 H   0  0  0  0  0  0  0  0  0  0  0  0
   19.5998   17.7786   20.6650 H   0  0  0  0  0  0  0  0  0  0  0  0
   18.7727   19.7132   21.2194 C   0  0  0  0  0  0  0  0  0  0  0  0
   18.3155   19.8607   20.2313 H   0  0  0  0  0  0  0  0  0  0  0  0
   19.1457   20.6978   21.5312 H   0  0  0  0  0  0  0  0  0  0  0  0
   17.6731   19.2468   22.2121 C   0  0  0  0  0  0  0  0  0  0  0  0
   18.0792   19.1622   23.2265 H   0  0  0  0  0  0  0  0  0  0  0  0
   16.8807   20.0029   22.2574 H   0  0  0  0  0  0  0  0  0  0  0  0
   17.0161   17.9218   21.8363 C   0  0  0  0  0  0  0  0  0  0  0  0
   17.2681   16.9420   22.5098 O   0  5  0  0  0  0  0  0  0  0  0  0
   16.2547   17.9089   20.8888 O   0  0  0  0  0  0  0  0  0  0  0  0
  1  2  1  0  0  0  0
  1  3  1  0  0  0  0
  1  4  2  0  0  0  0
  4  5  1  0  0  0  0
  4  6  1  0  0  0  0
  6  7  1  0  0  0  0
  6  8  1  0  0  0  0
  6  9  1  0  0  0  0
  9 10  1  0  0  0  0
  9 11  1  0  0  0  0
  9 12  1  0  0  0  0
 12 13  1  0  0  0  0
 12 14  1  0  0  0  0
 12 15  1  0  0  0  0
 15 16  1  0  0  0  0
 15 17  1  0  0  0  0
 15 18  1  0  0  0  0
 18 19  1  0  0  0  0
 18 20  2  0  0  0  0
M  END
> <VConfSearch Rank>
431

> <Conf_Id>
86

> <Delta U+W>
1.248

> <U+W>
-50.498

> <U>
10.404

> <W>
-60.901

> <W(PB)>
-63.061

> <W(SA)>
2.159

> <Valence>
10.021

> <Coulomb>
0.094

> <VdW>
0.289

> <VdW6>
-8.409

> <VdW12>
8.698

> <Bond>
0.179

> <Angle>
2.939

> <Pdih>
6.902

> <Idih>
0.001

> <Tether>
0.000

$$$$
VeraChem MOL file


 20 19  0  0  0  0  0  0  0  0999 V2000     
   20.5916   16.2626   23.1685 C   0  0  0  0  0  0  0  0  0  0  0  0
   20.6602   15.7693   24.1365 H   0  0  0  0  0  0  0  0  0  0  0  0
   19.9433   15.8099   22.4200 H   0  0  0  0  0  0  0  0  0  0  0  0
   21.2751   17.3816   22.9140 C   0  0  0  0  0  0  0  0  0  0  0  0
   21.9169   17.8198   23.6779 H   0  0  0  0  0  0  0  0  0  0  0  0
   21.2301   18.1230   21.5948 C   0  0  0  0  0  0  0  0  0  0  0  0
   20.7313   17.5164   20.8268 H   0  0  0  0  0  0  0  0  0  0  0  0
   22.2565   18.2876   21.2409 H   0  0  0  0  0  0  0  0  0  0  0  0
   20.5192   19.4899   21.7141 C   0  0  0  0  0  0  0  0  0  0  0  0
   21.0151   20.0958   22.4848 H   0  0  0  0  0  0  0  0  0  0  0  0
   20.6370   20.0324   20.7660 H   0  0  0  0  0  0  0  0  0  0  0  0
   19.0137   19.3531   22.0433 C   0  0  0  0  0  0  0  0  0  0  0  0
   18.8946   18.8169   22.9943 H   0  0  0  0  0  0  0  0  0  0  0  0
   18.5189   18.7439   21.2743 H   0  0  0  0  0  0  0  0  0  0  0  0
   18.2995   20.7254   22.1510 C   0  0  0  0  0  0  0  0  0  0  0  0
   17.2723   20.5768   22.5042 H   0  0  0  0  0  0  0  0  0  0  0  0
   18.8024   21.3568   22.8935 H   0  0  0  0  0  0  0  0  0  0  0  0
   18.2225   21.4902   20.8327 C   0  0  0  0  0  0  0  0  0  0  0  0
   17.4063   21.1286   20.0080 O   0  5  0  0  0  0  0  0  0  0  0  0
   18.9714   22.4333   20.6694 O   0  0  0  0  0  0  0  0  0  0  0  0
  1  2  1  0  0  0  0
  1  3  1  0  0  0  0
  1  4  2  0  0  0  0
  4  5  1  0  0  0  0
  4  6  1  0  0  0  0
  6  7  1  0  0  0  0
  6  8  1  0  0  0  0
  6  9  1  0  0  0  0
  9 10  1  0  0  0  0
  9 11  1  0  0  0  0
  9 12  1  0  0  0  0
 12 13  1  0  0  0  0
 12 14  1  0  0  0  0
 12 15  1  0  0  0  0
 15 16  1  0  0  0  0
 15 17  1  0  0  0  0
 15 18  1  0  0  0  0
 18 19  1  0  0  0  0
 18 20  2  0  0  0  0
M  END
> <VConfSearch Rank>
432

> <Conf_Id>
28

> <Delta U+W>
0.446

> <U+W>
-51.299

> <U>
9.295

> <W>
-60.594

> <W(PB)>
-62.806

> <W(SA)>
2.212

> <Valence>
9.495

> <Coulomb>
-0.610

> <VdW>
0.409

> <VdW6>
-7.332

> <VdW12>
7.741

> <Bond>
0.126

> <Angle>
2.497

> <Pdih>
6.872

> <Idih>
0.000

> <Tether>
0.000

$$$$
VeraChem MOL file


 20 19  0  0  0  0  0  0  0  0999 V2000     
   21.0678   22.1217   22.0269 C   0  0  0  0  0  0  0  0  0  0  0  0
   21.3789   21.5872   21.1319 H   0  0  0  0  0  0  0  0  0  0  0  0
   21.3068   23.1828   22.0735 H   0  0  0  0  0  0  0  0  0  0  0  0
   20.4181   21.5229   23.0316 C   0  0  0  0  0  0  0  0  0  0  0  0
   20.1301   22.1121   23.9019 H   0  0  0  0  0  0  0  0  0  0  0  0
   20.0184   20.0589   23.1111 C   0  0  0  0  0  0  0  0  0  0  0  0
   18.9240   20.0017   23.1718 H   0  0  0  0  0  0  0  0  0  0  0  0
   20.3930   19.6436   24.0561 H   0  0  0  0  0  0  0  0  0  0  0  0
   20.5221   19.1797   21.9399 C   0  0  0  0  0  0  0  0  0  0  0  0
   20.0816   19.5327   20.9973 H   0  0  0  0  0  0  0  0  0  0  0  0
   21.6096   19.3008   21.8437 H   0  0  0  0  0  0  0  0  0  0  0  0
   20.2177   17.6722   22.1241 C   0  0  0  0  0  0  0  0  0  0  0  0
   20.7030   17.3145   23.0422 H   0  0  0  0  0  0  0  0  0  0  0  0
   20.6785   17.1154   21.2964 H   0  0  0  0  0  0  0  0  0  0  0  0
   18.7054   17.3218   22.1779 C   0  0  0  0  0  0  0  0  0  0  0  0
   18.5887   16.2412   22.3205 H   0  0  0  0  0  0  0  0  0  0  0  0
   18.2270   17.8011   23.0395 H   0  0  0  0  0  0  0  0  0  0  0  0
   17.9324   17.6981   20.9170 C   0  0  0  0  0  0  0  0  0  0  0  0
   18.1384   17.0556   19.9060 O   0  5  0  0  0  0  0  0  0  0  0  0
   17.1303   18.6087   20.9835 O   0  0  0  0  0  0  0  0  0  0  0  0
  1  2  1  0  0  0  0
  1  3  1  0  0  0  0
  1  4  2  0  0  0  0
  4  5  1  0  0  0  0
  4  6  1  0  0  0  0
  6  7  1  0  0  0  0
  6  8  1  0  0  0  0
  6  9  1  0  0  0  0
  9 10  1  0  0  0  0
  9 11  1  0  0  0  0
  9 12  1  0  0  0  0
 12 13  1  0  0  0  0
 12 14  1  0  0  0  0
 12 15  1  0  0  0  0
 15 16  1  0  0  0  0
 15 17  1  0  0  0  0
 15 18  1  0  0  0  0
 18 19  1  0  0  0  0
 18 20  2  0  0  0  0
M  END
> <VConfSearch Rank>
433

> <Conf_Id>
53

> <Delta U+W>
0.549

> <U+W>
-51.197

> <U>
10.870

> <W>
-62.067

> <W(PB)>
-64.228

> <W(SA)>
2.161

> <Valence>
8.803

> <Coulomb>
1.020

> <VdW>
1.048

> <VdW6>
-8.312

> <VdW12>
9.360

> <Bond>
0.212

> <Angle>
3.379

> <Pdih>
5.211

> <Idih>
0.001

> <Tether>
0.000

$$$$
VeraChem MOL file


 20 19  0  0  0  0  0  0  0  0999 V2000     
   18.8826   16.2427   22.5915 C   0  0  0  0  0  0  0  0  0  0  0  0
   18.0673   16.7941   23.0548 H   0  0  0  0  0  0  0  0  0  0  0  0
   19.1192   15.2661   23.0099 H   0  0  0  0  0  0  0  0  0  0  0  0
   19.5683   16.7268   21.5503 C   0  0  0  0  0  0  0  0  0  0  0  0
   20.3743   16.1321   21.1214 H   0  0  0  0  0  0  0  0  0  0  0  0
   19.3507   18.0697   20.8727 C   0  0  0  0  0  0  0  0  0  0  0  0
   18.7461   17.9142   19.9695 H   0  0  0  0  0  0  0  0  0  0  0  0
   20.3141   18.4433   20.5028 H   0  0  0  0  0  0  0  0  0  0  0  0
   18.6905   19.1693   21.7450 C   0  0  0  0  0  0  0  0  0  0  0  0
   18.5237   20.0574   21.1204 H   0  0  0  0  0  0  0  0  0  0  0  0
   17.6918   18.8370   22.0571 H   0  0  0  0  0  0  0  0  0  0  0  0
   19.5076   19.5834   22.9971 C   0  0  0  0  0  0  0  0  0  0  0  0
   19.6196   18.7212   23.6669 H   0  0  0  0  0  0  0  0  0  0  0  0
   18.9338   20.3329   23.5592 H   0  0  0  0  0  0  0  0  0  0  0  0
   20.9136   20.1652   22.6855 C   0  0  0  0  0  0  0  0  0  0  0  0
   21.4154   20.4234   23.6253 H   0  0  0  0  0  0  0  0  0  0  0  0
   21.5424   19.4129   22.1959 H   0  0  0  0  0  0  0  0  0  0  0  0
   20.8914   21.4230   21.8219 C   0  0  0  0  0  0  0  0  0  0  0  0
   21.2735   21.3389   20.6711 O   0  5  0  0  0  0  0  0  0  0  0  0
   20.5089   22.4591   22.3293 O   0  0  0  0  0  0  0  0  0  0  0  0
  1  2  1  0  0  0  0
  1  3  1  0  0  0  0
  1  4  2  0  0  0  0
  4  5  1  0  0  0  0
  4  6  1  0  0  0  0
  6  7  1  0  0  0  0
  6  8  1  0  0  0  0
  6  9  1  0  0  0  0
  9 10  1  0  0  0  0
  9 11  1  0  0  0  0
  9 12  1  0  0  0  0
 12 13  1  0  0  0  0
 12 14  1  0  0  0  0
 12 15  1  0  0  0  0
 15 16  1  0  0  0  0
 15 17  1  0  0  0  0
 15 18  1  0  0  0  0
 18 19  1  0  0  0  0
 18 20  2  0  0  0  0
M  END
> <VConfSearch Rank>
434

> <Conf_Id>
66

> <Delta U+W>
1.737

> <U+W>
-50.008

> <U>
11.091

> <W>
-61.099

> <W(PB)>
-63.213

> <W(SA)>
2.114

> <Valence>
9.664

> <Coulomb>
0.658

> <VdW>
0.769

> <VdW6>
-9.171

> <VdW12>
9.940

> <Bond>
0.244

> <Angle>
3.658

> <Pdih>
5.762

> <Idih>
0.001

> <Tether>
0.000

$$$$
VeraChem MOL file


 20 19  0  0  0  0  0  0  0  0999 V2000     
   16.9092   19.5889   22.0109 C   0  0  0  0  0  0  0  0  0  0  0  0
   17.2699   20.3144   21.2852 H   0  0  0  0  0  0  0  0  0  0  0  0
   15.9216   19.1656   21.8367 H   0  0  0  0  0  0  0  0  0  0  0  0
   17.6313   19.2269   23.0770 C   0  0  0  0  0  0  0  0  0  0  0  0
   17.2200   18.4972   23.7739 H   0  0  0  0  0  0  0  0  0  0  0  0
   19.0192   19.7279   23.4419 C   0  0  0  0  0  0  0  0  0  0  0  0
   19.5778   18.9119   23.9168 H   0  0  0  0  0  0  0  0  0  0  0  0
   18.9210   20.4925   24.2237 H   0  0  0  0  0  0  0  0  0  0  0  0
   19.8623   20.3017   22.2730 C   0  0  0  0  0  0  0  0  0  0  0  0
   19.3357   21.1568   21.8291 H   0  0  0  0  0  0  0  0  0  0  0  0
   20.7974   20.7092   22.6807 H   0  0  0  0  0  0  0  0  0  0  0  0
   20.2098   19.2785   21.1616 C   0  0  0  0  0  0  0  0  0  0  0  0
   20.7297   19.8065   20.3503 H   0  0  0  0  0  0  0  0  0  0  0  0
   19.2910   18.8688   20.7217 H   0  0  0  0  0  0  0  0  0  0  0  0
   21.1079   18.1129   21.6510 C   0  0  0  0  0  0  0  0  0  0  0  0
   22.0075   18.5063   22.1389 H   0  0  0  0  0  0  0  0  0  0  0  0
   20.5765   17.5017   22.3892 H   0  0  0  0  0  0  0  0  0  0  0  0
   21.5495   17.1930   20.5182 C   0  0  0  0  0  0  0  0  0  0  0  0
   20.8599   16.2262   20.2605 O   0  5  0  0  0  0  0  0  0  0  0  0
   22.5649   17.4757   19.9133 O   0  0  0  0  0  0  0  0  0  0  0  0
  1  2  1  0  0  0  0
  1  3  1  0  0  0  0
  1  4  2  0  0  0  0
  4  5  1  0  0  0  0
  4  6  1  0  0  0  0
  6  7  1  0  0  0  0
  6  8  1  0  0  0  0
  6  9  1  0  0  0  0
  9 10  1  0  0  0  0
  9 11  1  0  0  0  0
  9 12  1  0  0  0  0
 12 13  1  0  0  0  0
 12 14  1  0  0  0  0
 12 15  1  0  0  0  0
 15 16  1  0  0  0  0
 15 17  1  0  0  0  0
 15 18  1  0  0  0  0
 18 19  1  0  0  0  0
 18 20  2  0  0  0  0
M  END
> <VConfSearch Rank>
435

> <Conf_Id>
64

> <Delta U+W>
0.366

> <U+W>
-51.379

> <U>
10.000

> <W>
-61.379

> <W(PB)>
-63.541

> <W(SA)>
2.162

> <Valence>
9.398

> <Coulomb>
-0.504

> <VdW>
1.105

> <VdW6>
-7.975

> <VdW12>
9.080

> <Bond>
0.216

> <Angle>
3.417

> <Pdih>
5.765

> <Idih>
0.001

> <Tether>
0.000

$$$$
VeraChem MOL file


 20 19  0  0  0  0  0  0  0  0999 V2000     
   22.3715   20.5219   22.9675 C   0  0  0  0  0  0  0  0  0  0  0  0
   21.7621   21.4192   23.0616 H   0  0  0  0  0  0  0  0  0  0  0  0
   23.3823   20.6409   22.5812 H   0  0  0  0  0  0  0  0  0  0  0  0
   21.8997   19.3196   23.3077 C   0  0  0  0  0  0  0  0  0  0  0  0
   22.5253   18.4335   23.2035 H   0  0  0  0  0  0  0  0  0  0  0  0
   20.5074   19.0759   23.8501 C   0  0  0  0  0  0  0  0  0  0  0  0
   20.0233   20.0261   24.1136 H   0  0  0  0  0  0  0  0  0  0  0  0
   20.5811   18.4975   24.7807 H   0  0  0  0  0  0  0  0  0  0  0  0
   19.6168   18.3026   22.8518 C   0  0  0  0  0  0  0  0  0  0  0  0
   20.1014   17.3526   22.5878 H   0  0  0  0  0  0  0  0  0  0  0  0
   18.6699   18.0461   23.3462 H   0  0  0  0  0  0  0  0  0  0  0  0
   19.3171   19.1119   21.5692 C   0  0  0  0  0  0  0  0  0  0  0  0
   20.2556   19.3520   21.0506 H   0  0  0  0  0  0  0  0  0  0  0  0
   18.8481   20.0689   21.8366 H   0  0  0  0  0  0  0  0  0  0  0  0
   18.3868   18.3375   20.6034 C   0  0  0  0  0  0  0  0  0  0  0  0
   18.8475   17.3844   20.3172 H   0  0  0  0  0  0  0  0  0  0  0  0
   17.4369   18.1032   21.0986 H   0  0  0  0  0  0  0  0  0  0  0  0
   18.0766   19.1155   19.3295 C   0  0  0  0  0  0  0  0  0  0  0  0
   17.1220   19.8675   19.3350 O   0  5  0  0  0  0  0  0  0  0  0  0
   18.8057   18.9598   18.3700 O   0  0  0  0  0  0  0  0  0  0  0  0
  1  2  1  0  0  0  0
  1  3  1  0  0  0  0
  1  4  2  0  0  0  0
  4  5  1  0  0  0  0
  4  6  1  0  0  0  0
  6  7  1  0  0  0  0
  6  8  1  0  0  0  0
  6  9  1  0  0  0  0
  9 10  1  0  0  0  0
  9 11  1  0  0  0  0
  9 12  1  0  0  0  0
 12 13  1  0  0  0  0
 12 14  1  0  0  0  0
 12 15  1  0  0  0  0
 15 16  1  0  0  0  0
 15 17  1  0  0  0  0
 15 18  1  0  0  0  0
 18 19  1  0  0  0  0
 18 20  2  0  0  0  0
M  END
> <VConfSearch Rank>
436

> <Conf_Id>
42

> <Delta U+W>
-0.601

> <U+W>
-52.347

> <U>
8.428

> <W>
-60.774

> <W(PB)>
-62.982

> <W(SA)>
2.208

> <Valence>
9.231

> <Coulomb>
-1.304

> <VdW>
0.501

> <VdW6>
-6.515

> <VdW12>
7.016

> <Bond>
0.103

> <Angle>
2.328

> <Pdih>
6.799

> <Idih>
0.000

> <Tether>
0.000

$$$$
VeraChem MOL file


 20 19  0  0  0  0  0  0  0  0999 V2000     
   17.7168   19.2399   19.7728 C   0  0  0  0  0  0  0  0  0  0  0  0
   17.9868   18.2388   19.4409 H   0  0  0  0  0  0  0  0  0  0  0  0
   17.4874   19.9774   19.0057 H   0  0  0  0  0  0  0  0  0  0  0  0
   17.6715   19.5560   21.0697 C   0  0  0  0  0  0  0  0  0  0  0  0
   17.4017   20.5649   21.3809 H   0  0  0  0  0  0  0  0  0  0  0  0
   17.9782   18.5868   22.1915 C   0  0  0  0  0  0  0  0  0  0  0  0
   18.0463   17.5598   21.8076 H   0  0  0  0  0  0  0  0  0  0  0  0
   17.1475   18.5945   22.9096 H   0  0  0  0  0  0  0  0  0  0  0  0
   19.2835   18.9472   22.9360 C   0  0  0  0  0  0  0  0  0  0  0  0
   19.2106   19.9722   23.3250 H   0  0  0  0  0  0  0  0  0  0  0  0
   19.3886   18.2883   23.8086 H   0  0  0  0  0  0  0  0  0  0  0  0
   20.5381   18.8101   22.0413 C   0  0  0  0  0  0  0  0  0  0  0  0
   20.4655   19.4953   21.1854 H   0  0  0  0  0  0  0  0  0  0  0  0
   20.5785   17.7933   21.6282 H   0  0  0  0  0  0  0  0  0  0  0  0
   21.8535   19.0941   22.8119 C   0  0  0  0  0  0  0  0  0  0  0  0
   21.9319   18.4346   23.6846 H   0  0  0  0  0  0  0  0  0  0  0  0
   22.7114   18.8705   22.1669 H   0  0  0  0  0  0  0  0  0  0  0  0
   21.9978   20.5395   23.2797 C   0  0  0  0  0  0  0  0  0  0  0  0
   21.7959   20.7882   24.4521 O   0  5  0  0  0  0  0  0  0  0  0  0
   22.3266   21.3760   22.4616 O   0  0  0  0  0  0  0  0  0  0  0  0
  1  2  1  0  0  0  0
  1  3  1  0  0  0  0
  1  4  2  0  0  0  0
  4  5  1  0  0  0  0
  4  6  1  0  0  0  0
  6  7  1  0  0  0  0
  6  8  1  0  0  0  0
  6  9  1  0  0  0  0
  9 10  1  0  0  0  0
  9 11  1  0  0  0  0
  9 12  1  0  0  0  0
 12 13  1  0  0  0  0
 12 14  1  0  0  0  0
 12 15  1  0  0  0  0
 15 16  1  0  0  0  0
 15 17  1  0  0  0  0
 15 18  1  0  0  0  0
 18 19  1  0  0  0  0
 18 20  2  0  0  0  0
M  END
> <VConfSearch Rank>
437

> <Conf_Id>
68

> <Delta U+W>
0.492

> <U+W>
-51.253

> <U>
10.179

> <W>
-61.432

> <W(PB)>
-63.627

> <W(SA)>
2.195

> <Valence>
9.483

> <Coulomb>
0.361

> <VdW>
0.335

> <VdW6>
-7.385

> <VdW12>
7.720

> <Bond>
0.125

> <Angle>
2.487

> <Pdih>
6.870

> <Idih>
0.001

> <Tether>
0.000

$$$$
VeraChem MOL file


 20 19  0  0  0  0  0  0  0  0999 V2000     
   22.8514   19.4273   22.0331 C   0  0  0  0  0  0  0  0  0  0  0  0
   23.1353   18.9593   22.9743 H   0  0  0  0  0  0  0  0  0  0  0  0
   23.4913   20.2232   21.6561 H   0  0  0  0  0  0  0  0  0  0  0  0
   21.7594   19.0452   21.3658 C   0  0  0  0  0  0  0  0  0  0  0  0
   21.4950   19.5253   20.4240 H   0  0  0  0  0  0  0  0  0  0  0  0
   20.8275   17.9441   21.8249 C   0  0  0  0  0  0  0  0  0  0  0  0
   21.3400   17.3067   22.5581 H   0  0  0  0  0  0  0  0  0  0  0  0
   20.5714   17.2935   20.9781 H   0  0  0  0  0  0  0  0  0  0  0  0
   19.5354   18.4972   22.4673 C   0  0  0  0  0  0  0  0  0  0  0  0
   18.9660   17.6605   22.8945 H   0  0  0  0  0  0  0  0  0  0  0  0
   19.7999   19.1560   23.3061 H   0  0  0  0  0  0  0  0  0  0  0  0
   18.6408   19.2580   21.4600 C   0  0  0  0  0  0  0  0  0  0  0  0
   18.4242   18.6059   20.6032 H   0  0  0  0  0  0  0  0  0  0  0  0
   19.1772   20.1318   21.0656 H   0  0  0  0  0  0  0  0  0  0  0  0
   17.3021   19.7250   22.0881 C   0  0  0  0  0  0  0  0  0  0  0  0
   16.6610   20.1524   21.3081 H   0  0  0  0  0  0  0  0  0  0  0  0
   16.7616   18.8688   22.5095 H   0  0  0  0  0  0  0  0  0  0  0  0
   17.4638   20.7822   23.1767 C   0  0  0  0  0  0  0  0  0  0  0  0
   17.6795   21.9281   22.8341 O   0  5  0  0  0  0  0  0  0  0  0  0
   17.3507   20.4365   24.3364 O   0  0  0  0  0  0  0  0  0  0  0  0
  1  2  1  0  0  0  0
  1  3  1  0  0  0  0
  1  4  2  0  0  0  0
  4  5  1  0  0  0  0
  4  6  1  0  0  0  0
  6  7  1  0  0  0  0
  6  8  1  0  0  0  0
  6  9  1  0  0  0  0
  9 10  1  0  0  0  0
  9 11  1  0  0  0  0
  9 12  1  0  0  0  0
 12 13  1  0  0  0  0
 12 14  1  0  0  0  0
 12 15  1  0  0  0  0
 15 16  1  0  0  0  0
 15 17  1  0  0  0  0
 15 18  1  0  0  0  0
 18 19  1  0  0  0  0
 18 20  2  0  0  0  0
M  END
> <VConfSearch Rank>
438

> <Conf_Id>
87

> <Delta U+W>
0.339

> <U+W>
-51.407

> <U>
10.461

> <W>
-61.867

> <W(PB)>
-64.045

> <W(SA)>
2.178

> <Valence>
9.555

> <Coulomb>
0.483

> <VdW>
0.423

> <VdW6>
-7.223

> <VdW12>
7.646

> <Bond>
0.126

> <Angle>
2.492

> <Pdih>
6.936

> <Idih>
0.001

> <Tether>
0.000

$$$$
VeraChem MOL file


 20 19  0  0  0  0  0  0  0  0999 V2000     
   20.3320   16.8534   23.7384 C   0  0  0  0  0  0  0  0  0  0  0  0
   20.8938   17.3815   24.5071 H   0  0  0  0  0  0  0  0  0  0  0  0
   19.7171   16.0124   24.0542 H   0  0  0  0  0  0  0  0  0  0  0  0
   20.3915   17.2230   22.4564 C   0  0  0  0  0  0  0  0  0  0  0  0
   19.8291   16.6763   21.7004 H   0  0  0  0  0  0  0  0  0  0  0  0
   21.2340   18.3724   21.9457 C   0  0  0  0  0  0  0  0  0  0  0  0
   21.3992   18.2721   20.8647 H   0  0  0  0  0  0  0  0  0  0  0  0
   22.2288   18.3060   22.4065 H   0  0  0  0  0  0  0  0  0  0  0  0
   20.6381   19.7663   22.2638 C   0  0  0  0  0  0  0  0  0  0  0  0
   20.2996   19.8008   23.3084 H   0  0  0  0  0  0  0  0  0  0  0  0
   21.4475   20.5048   22.1852 H   0  0  0  0  0  0  0  0  0  0  0  0
   19.4961   20.2188   21.3192 C   0  0  0  0  0  0  0  0  0  0  0  0
   19.8337   20.1698   20.2748 H   0  0  0  0  0  0  0  0  0  0  0  0
   19.2797   21.2767   21.5227 H   0  0  0  0  0  0  0  0  0  0  0  0
   18.1814   19.4128   21.4774 C   0  0  0  0  0  0  0  0  0  0  0  0
   18.3197   18.3807   21.1401 H   0  0  0  0  0  0  0  0  0  0  0  0
   17.8834   19.3756   22.5320 H   0  0  0  0  0  0  0  0  0  0  0  0
   17.0263   20.0056   20.6786 C   0  0  0  0  0  0  0  0  0  0  0  0
   16.8790   19.6442   19.5277 O   0  5  0  0  0  0  0  0  0  0  0  0
   16.3164   20.8292   21.2214 O   0  0  0  0  0  0  0  0  0  0  0  0
  1  2  1  0  0  0  0
  1  3  1  0  0  0  0
  1  4  2  0  0  0  0
  4  5  1  0  0  0  0
  4  6  1  0  0  0  0
  6  7  1  0  0  0  0
  6  8  1  0  0  0  0
  6  9  1  0  0  0  0
  9 10  1  0  0  0  0
  9 11  1  0  0  0  0
  9 12  1  0  0  0  0
 12 13  1  0  0  0  0
 12 14  1  0  0  0  0
 12 15  1  0  0  0  0
 15 16  1  0  0  0  0
 15 17  1  0  0  0  0
 15 18  1  0  0  0  0
 18 19  1  0  0  0  0
 18 20  2  0  0  0  0
M  END
> <VConfSearch Rank>
439

> <Conf_Id>
51

> <Delta U+W>
1.709

> <U+W>
-50.036

> <U>
10.643

> <W>
-60.679

> <W(PB)>
-62.882

> <W(SA)>
2.203

> <Valence>
11.231

> <Coulomb>
-1.077

> <VdW>
0.489

> <VdW6>
-7.546

> <VdW12>
8.035

> <Bond>
0.159

> <Angle>
3.005

> <Pdih>
8.065

> <Idih>
0.002

> <Tether>
0.000

$$$$
VeraChem MOL file


 20 19  0  0  0  0  0  0  0  0999 V2000     
   19.2286   18.6752   24.7303 C   0  0  0  0  0  0  0  0  0  0  0  0
   19.0390   17.6046   24.7873 H   0  0  0  0  0  0  0  0  0  0  0  0
   18.6864   19.3188   25.4208 H   0  0  0  0  0  0  0  0  0  0  0  0
   20.0914   19.1821   23.8457 C   0  0  0  0  0  0  0  0  0  0  0  0
   20.2745   20.2554   23.8100 H   0  0  0  0  0  0  0  0  0  0  0  0
   20.8876   18.3465   22.8663 C   0  0  0  0  0  0  0  0  0  0  0  0
   21.3020   17.4824   23.4029 H   0  0  0  0  0  0  0  0  0  0  0  0
   21.7542   18.9128   22.4997 H   0  0  0  0  0  0  0  0  0  0  0  0
   20.0501   17.8266   21.6715 C   0  0  0  0  0  0  0  0  0  0  0  0
   20.5863   16.9761   21.2289 H   0  0  0  0  0  0  0  0  0  0  0  0
   19.0926   17.4249   22.0304 H   0  0  0  0  0  0  0  0  0  0  0  0
   19.8040   18.8636   20.5468 C   0  0  0  0  0  0  0  0  0  0  0  0
   19.3645   18.3405   19.6862 H   0  0  0  0  0  0  0  0  0  0  0  0
   20.7627   19.2734   20.2002 H   0  0  0  0  0  0  0  0  0  0  0  0
   18.8581   20.0249   20.9467 C   0  0  0  0  0  0  0  0  0  0  0  0
   17.9330   19.6283   21.3818 H   0  0  0  0  0  0  0  0  0  0  0  0
   19.3284   20.6614   21.7027 H   0  0  0  0  0  0  0  0  0  0  0  0
   18.4841   20.9142   19.7664 C   0  0  0  0  0  0  0  0  0  0  0  0
   19.2074   21.8550   19.5046 O   0  5  0  0  0  0  0  0  0  0  0  0
   17.4904   20.6310   19.1268 O   0  0  0  0  0  0  0  0  0  0  0  0
  1  2  1  0  0  0  0
  1  3  1  0  0  0  0
  1  4  2  0  0  0  0
  4  5  1  0  0  0  0
  4  6  1  0  0  0  0
  6  7  1  0  0  0  0
  6  8  1  0  0  0  0
  6  9  1  0  0  0  0
  9 10  1  0  0  0  0
  9 11  1  0  0  0  0
  9 12  1  0  0  0  0
 12 13  1  0  0  0  0
 12 14  1  0  0  0  0
 12 15  1  0  0  0  0
 15 16  1  0  0  0  0
 15 17  1  0  0  0  0
 15 18  1  0  0  0  0
 18 19  1  0  0  0  0
 18 20  2  0  0  0  0
M  END
> <VConfSearch Rank>
440

> <Conf_Id>
91

> <Delta U+W>
1.604

> <U+W>
-50.141

> <U>
10.644

> <W>
-60.786

> <W(PB)>
-62.965

> <W(SA)>
2.179

> <Valence>
11.230

> <Coulomb>
-1.075

> <VdW>
0.489

> <VdW6>
-7.547

> <VdW12>
8.036

> <Bond>
0.159

> <Angle>
3.006

> <Pdih>
8.064

> <Idih>
0.002

> <Tether>
0.000

$$$$
VeraChem MOL file


 20 19  0  0  0  0  0  0  0  0999 V2000     
   18.1260   19.7019   18.6680 C   0  0  0  0  0  0  0  0  0  0  0  0
   17.2304   19.9624   19.2298 H   0  0  0  0  0  0  0  0  0  0  0  0
   18.0008   19.4416   17.6183 H   0  0  0  0  0  0  0  0  0  0  0  0
   19.3325   19.6982   19.2408 C   0  0  0  0  0  0  0  0  0  0  0  0
   20.2163   19.4337   18.6607 H   0  0  0  0  0  0  0  0  0  0  0  0
   19.5837   20.0488   20.6905 C   0  0  0  0  0  0  0  0  0  0  0  0
   18.7028   20.5454   21.1198 H   0  0  0  0  0  0  0  0  0  0  0  0
   20.4137   20.7648   20.7570 H   0  0  0  0  0  0  0  0  0  0  0  0
   19.9183   18.7902   21.5181 C   0  0  0  0  0  0  0  0  0  0  0  0
   19.0868   18.0756   21.4448 H   0  0  0  0  0  0  0  0  0  0  0  0
   20.8020   18.2964   21.0911 H   0  0  0  0  0  0  0  0  0  0  0  0
   20.1807   19.1307   23.0014 C   0  0  0  0  0  0  0  0  0  0  0  0
   19.2971   19.6242   23.4294 H   0  0  0  0  0  0  0  0  0  0  0  0
   21.0114   19.8463   23.0753 H   0  0  0  0  0  0  0  0  0  0  0  0
   20.5165   17.8645   23.8336 C   0  0  0  0  0  0  0  0  0  0  0  0
   19.6888   17.1486   23.7695 H   0  0  0  0  0  0  0  0  0  0  0  0
   21.4015   17.3703   23.4158 H   0  0  0  0  0  0  0  0  0  0  0  0
   20.7908   18.1130   25.3176 C   0  0  0  0  0  0  0  0  0  0  0  0
   21.0588   17.1452   26.0015 O   0  5  0  0  0  0  0  0  0  0  0  0
   20.7342   19.2442   25.7601 O   0  0  0  0  0  0  0  0  0  0  0  0
  1  2  1  0  0  0  0
  1  3  1  0  0  0  0
  1  4  2  0  0  0  0
  4  5  1  0  0  0  0
  4  6  1  0  0  0  0
  6  7  1  0  0  0  0
  6  8  1  0  0  0  0
  6  9  1  0  0  0  0
  9 10  1  0  0  0  0
  9 11  1  0  0  0  0
  9 12  1  0  0  0  0
 12 13  1  0  0  0  0
 12 14  1  0  0  0  0
 12 15  1  0  0  0  0
 15 16  1  0  0  0  0
 15 17  1  0  0  0  0
 15 18  1  0  0  0  0
 18 19  1  0  0  0  0
 18 20  2  0  0  0  0
M  END
> <VConfSearch Rank>
441

> <Conf_Id>
33

> <Delta U+W>
0.000

> <U+W>
-51.745

> <U>
7.593

> <W>
-59.338

> <W(PB)>
-61.574

> <W(SA)>
2.236

> <Valence>
9.570

> <Coulomb>
-3.091

> <VdW>
1.114

> <VdW6>
-6.064

> <VdW12>
7.178

> <Bond>
0.117

> <Angle>
2.692

> <Pdih>
6.761

> <Idih>
0.000

> <Tether>
0.000

$$$$
VeraChem MOL file


 20 19  0  0  0  0  0  0  0  0999 V2000     
   21.8035   16.3338   23.1045 C   0  0  0  0  0  0  0  0  0  0  0  0
   21.3316   16.4137   24.0825 H   0  0  0  0  0  0  0  0  0  0  0  0
   22.6868   15.7023   23.0246 H   0  0  0  0  0  0  0  0  0  0  0  0
   21.3226   16.9853   22.0424 C   0  0  0  0  0  0  0  0  0  0  0  0
   21.8105   16.8925   21.0724 H   0  0  0  0  0  0  0  0  0  0  0  0
   20.1021   17.8780   22.0765 C   0  0  0  0  0  0  0  0  0  0  0  0
   19.5362   17.7121   23.0032 H   0  0  0  0  0  0  0  0  0  0  0  0
   19.4369   17.6100   21.2460 H   0  0  0  0  0  0  0  0  0  0  0  0
   20.5014   19.3675   21.9771 C   0  0  0  0  0  0  0  0  0  0  0  0
   21.2321   19.5910   22.7667 H   0  0  0  0  0  0  0  0  0  0  0  0
   21.0117   19.5504   21.0216 H   0  0  0  0  0  0  0  0  0  0  0  0
   19.3052   20.3382   22.1228 C   0  0  0  0  0  0  0  0  0  0  0  0
   19.6888   21.3675   22.1544 H   0  0  0  0  0  0  0  0  0  0  0  0
   18.8018   20.1655   23.0841 H   0  0  0  0  0  0  0  0  0  0  0  0
   18.2735   20.2265   20.9704 C   0  0  0  0  0  0  0  0  0  0  0  0
   18.7721   20.3548   20.0022 H   0  0  0  0  0  0  0  0  0  0  0  0
   17.8040   19.2364   20.9664 H   0  0  0  0  0  0  0  0  0  0  0  0
   17.1627   21.2657   21.0715 C   0  0  0  0  0  0  0  0  0  0  0  0
   16.1697   20.9835   21.7126 O   0  5  0  0  0  0  0  0  0  0  0  0
   17.3282   22.3374   20.5231 O   0  0  0  0  0  0  0  0  0  0  0  0
  1  2  1  0  0  0  0
  1  3  1  0  0  0  0
  1  4  2  0  0  0  0
  4  5  1  0  0  0  0
  4  6  1  0  0  0  0
  6  7  1  0  0  0  0
  6  8  1  0  0  0  0
  6  9  1  0  0  0  0
  9 10  1  0  0  0  0
  9 11  1  0  0  0  0
  9 12  1  0  0  0  0
 12 13  1  0  0  0  0
 12 14  1  0  0  0  0
 12 15  1  0  0  0  0
 15 16  1  0  0  0  0
 15 17  1  0  0  0  0
 15 18  1  0  0  0  0
 18 19  1  0  0  0  0
 18 20  2  0  0  0  0
M  END
> <VConfSearch Rank>
442

> <Conf_Id>
37

> <Delta U+W>
-0.384

> <U+W>
-52.130

> <U>
7.491

> <W>
-59.621

> <W(PB)>
-61.853

> <W(SA)>
2.232

> <Valence>
9.604

> <Coulomb>
-2.799

> <VdW>
0.686

> <VdW6>
-6.435

> <VdW12>
7.121

> <Bond>
0.124

> <Angle>
2.493

> <Pdih>
6.986

> <Idih>
0.001

> <Tether>
0.000

$$$$
VeraChem MOL file


 20 19  0  0  0  0  0  0  0  0999 V2000     
   18.0587   16.4844   23.2535 C   0  0  0  0  0  0  0  0  0  0  0  0
   17.5121   15.6569   23.7025 H   0  0  0  0  0  0  0  0  0  0  0  0
   17.5090   17.1165   22.5593 H   0  0  0  0  0  0  0  0  0  0  0  0
   19.3450   16.6967   23.5541 C   0  0  0  0  0  0  0  0  0  0  0  0
   19.8421   16.0287   24.2571 H   0  0  0  0  0  0  0  0  0  0  0  0
   20.2342   17.8028   23.0111 C   0  0  0  0  0  0  0  0  0  0  0  0
   21.1100   17.3472   22.5299 H   0  0  0  0  0  0  0  0  0  0  0  0
   20.6292   18.3842   23.8550 H   0  0  0  0  0  0  0  0  0  0  0  0
   19.5481   18.7625   22.0111 C   0  0  0  0  0  0  0  0  0  0  0  0
   19.1689   18.1895   21.1538 H   0  0  0  0  0  0  0  0  0  0  0  0
   18.6828   19.2377   22.4933 H   0  0  0  0  0  0  0  0  0  0  0  0
   20.5178   19.8544   21.5085 C   0  0  0  0  0  0  0  0  0  0  0  0
   21.3860   19.3853   21.0250 H   0  0  0  0  0  0  0  0  0  0  0  0
   20.9009   20.4313   22.3617 H   0  0  0  0  0  0  0  0  0  0  0  0
   19.8330   20.8167   20.5069 C   0  0  0  0  0  0  0  0  0  0  0  0
   19.4564   20.2578   19.6418 H   0  0  0  0  0  0  0  0  0  0  0  0
   18.9712   21.3039   20.9786 H   0  0  0  0  0  0  0  0  0  0  0  0
   20.7708   21.9046   19.9960 C   0  0  0  0  0  0  0  0  0  0  0  0
   21.4256   21.6753   18.9983 O   0  5  0  0  0  0  0  0  0  0  0  0
   20.8364   22.9450   20.6204 O   0  0  0  0  0  0  0  0  0  0  0  0
  1  2  1  0  0  0  0
  1  3  1  0  0  0  0
  1  4  2  0  0  0  0
  4  5  1  0  0  0  0
  4  6  1  0  0  0  0
  6  7  1  0  0  0  0
  6  8  1  0  0  0  0
  6  9  1  0  0  0  0
  9 10  1  0  0  0  0
  9 11  1  0  0  0  0
  9 12  1  0  0  0  0
 12 13  1  0  0  0  0
 12 14  1  0  0  0  0
 12 15  1  0  0  0  0
 15 16  1  0  0  0  0
 15 17  1  0  0  0  0
 15 18  1  0  0  0  0
 18 19  1  0  0  0  0
 18 20  2  0  0  0  0
M  END
> <VConfSearch Rank>
443

> <Conf_Id>
44

> <Delta U+W>
-1.440

> <U+W>
-53.185

> <U>
6.572

> <W>
-59.757

> <W(PB)>
-62.007

> <W(SA)>
2.249

> <Valence>
7.989

> <Coulomb>
-2.697

> <VdW>
1.281

> <VdW6>
-6.467

> <VdW12>
7.748

> <Bond>
0.136

> <Angle>
2.854

> <Pdih>
4.997

> <Idih>
0.001

> <Tether>
0.000

$$$$
VeraChem MOL file


 20 19  0  0  0  0  0  0  0  0999 V2000     
   20.6171   22.0591   23.4499 C   0  0  0  0  0  0  0  0  0  0  0  0
   19.7638   21.7802   24.0660 H   0  0  0  0  0  0  0  0  0  0  0  0
   20.9790   23.0828   23.5295 H   0  0  0  0  0  0  0  0  0  0  0  0
   21.1984   21.1838   22.6256 C   0  0  0  0  0  0  0  0  0  0  0  0
   22.0512   21.4836   22.0170 H   0  0  0  0  0  0  0  0  0  0  0  0
   20.7528   19.7474   22.4630 C   0  0  0  0  0  0  0  0  0  0  0  0
   20.0884   19.4674   23.2905 H   0  0  0  0  0  0  0  0  0  0  0  0
   21.6262   19.0841   22.5188 H   0  0  0  0  0  0  0  0  0  0  0  0
   20.0298   19.5400   21.1131 C   0  0  0  0  0  0  0  0  0  0  0  0
   19.1259   20.1637   21.0806 H   0  0  0  0  0  0  0  0  0  0  0  0
   20.6809   19.8957   20.3028 H   0  0  0  0  0  0  0  0  0  0  0  0
   19.6556   18.0649   20.8331 C   0  0  0  0  0  0  0  0  0  0  0  0
   20.5601   17.4414   20.8557 H   0  0  0  0  0  0  0  0  0  0  0  0
   19.2538   17.9912   19.8130 H   0  0  0  0  0  0  0  0  0  0  0  0
   18.6076   17.4934   21.8231 C   0  0  0  0  0  0  0  0  0  0  0  0
   19.0114   17.4671   22.8414 H   0  0  0  0  0  0  0  0  0  0  0  0
   17.7168   18.1326   21.8421 H   0  0  0  0  0  0  0  0  0  0  0  0
   18.1671   16.0791   21.4630 C   0  0  0  0  0  0  0  0  0  0  0  0
   17.2129   15.9466   20.7222 O   0  5  0  0  0  0  0  0  0  0  0  0
   18.8018   15.1474   21.9166 O   0  0  0  0  0  0  0  0  0  0  0  0
  1  2  1  0  0  0  0
  1  3  1  0  0  0  0
  1  4  2  0  0  0  0
  4  5  1  0  0  0  0
  4  6  1  0  0  0  0
  6  7  1  0  0  0  0
  6  8  1  0  0  0  0
  6  9  1  0  0  0  0
  9 10  1  0  0  0  0
  9 11  1  0  0  0  0
  9 12  1  0  0  0  0
 12 13  1  0  0  0  0
 12 14  1  0  0  0  0
 12 15  1  0  0  0  0
 15 16  1  0  0  0  0
 15 17  1  0  0  0  0
 15 18  1  0  0  0  0
 18 19  1  0  0  0  0
 18 20  2  0  0  0  0
M  END
> <VConfSearch Rank>
444

> <Conf_Id>
38

> <Delta U+W>
-0.381

> <U+W>
-52.126

> <U>
7.601

> <W>
-59.727

> <W(PB)>
-61.964

> <W(SA)>
2.236

> <Valence>
9.602

> <Coulomb>
-2.686

> <VdW>
0.685

> <VdW6>
-6.453

> <VdW12>
7.139

> <Bond>
0.125

> <Angle>
2.485

> <Pdih>
6.991

> <Idih>
0.001

> <Tether>
0.000

$$$$
VeraChem MOL file


 20 19  0  0  0  0  0  0  0  0999 V2000     
   18.4538   22.4340   21.1101 C   0  0  0  0  0  0  0  0  0  0  0  0
   17.5254   22.0183   20.7216 H   0  0  0  0  0  0  0  0  0  0  0  0
   18.4524   23.4855   21.3924 H   0  0  0  0  0  0  0  0  0  0  0  0
   19.5529   21.6863   21.2390 C   0  0  0  0  0  0  0  0  0  0  0  0
   20.4719   22.1217   21.6309 H   0  0  0  0  0  0  0  0  0  0  0  0
   19.6306   20.2222   20.8678 C   0  0  0  0  0  0  0  0  0  0  0  0
   20.5229   20.0461   20.2523 H   0  0  0  0  0  0  0  0  0  0  0  0
   18.7634   19.9384   20.2562 H   0  0  0  0  0  0  0  0  0  0  0  0
   19.6866   19.3307   22.1261 C   0  0  0  0  0  0  0  0  0  0  0  0
   20.5561   19.6149   22.7348 H   0  0  0  0  0  0  0  0  0  0  0  0
   18.7949   19.5131   22.7416 H   0  0  0  0  0  0  0  0  0  0  0  0
   19.7693   17.8305   21.7643 C   0  0  0  0  0  0  0  0  0  0  0  0
   20.6660   17.6427   21.1573 H   0  0  0  0  0  0  0  0  0  0  0  0
   18.9048   17.5595   21.1432 H   0  0  0  0  0  0  0  0  0  0  0  0
   19.7959   16.9158   23.0163 C   0  0  0  0  0  0  0  0  0  0  0  0
   18.9203   17.1114   23.6472 H   0  0  0  0  0  0  0  0  0  0  0  0
   19.7346   15.8663   22.7049 H   0  0  0  0  0  0  0  0  0  0  0  0
   21.0534   17.0664   23.8677 C   0  0  0  0  0  0  0  0  0  0  0  0
   20.9694   17.6747   24.9164 O   0  5  0  0  0  0  0  0  0  0  0  0
   22.0820   16.5609   23.4635 O   0  0  0  0  0  0  0  0  0  0  0  0
  1  2  1  0  0  0  0
  1  3  1  0  0  0  0
  1  4  2  0  0  0  0
  4  5  1  0  0  0  0
  4  6  1  0  0  0  0
  6  7  1  0  0  0  0
  6  8  1  0  0  0  0
  6  9  1  0  0  0  0
  9 10  1  0  0  0  0
  9 11  1  0  0  0  0
  9 12  1  0  0  0  0
 12 13  1  0  0  0  0
 12 14  1  0  0  0  0
 12 15  1  0  0  0  0
 15 16  1  0  0  0  0
 15 17  1  0  0  0  0
 15 18  1  0  0  0  0
 18 19  1  0  0  0  0
 18 20  2  0  0  0  0
M  END
> <VConfSearch Rank>
445

> <Conf_Id>
58

> <Delta U+W>
0.019

> <U+W>
-51.727

> <U>
8.963

> <W>
-60.690

> <W(PB)>
-62.934

> <W(SA)>
2.244

> <Valence>
9.327

> <Coulomb>
-0.780

> <VdW>
0.417

> <VdW6>
-6.635

> <VdW12>
7.052

> <Bond>
0.105

> <Angle>
2.399

> <Pdih>
6.822

> <Idih>
0.000

> <Tether>
0.000

$$$$
VeraChem MOL file


 20 19  0  0  0  0  0  0  0  0999 V2000     
   16.2230   18.7253   21.8952 C   0  0  0  0  0  0  0  0  0  0  0  0
   16.1531   19.1105   20.8792 H   0  0  0  0  0  0  0  0  0  0  0  0
   15.3156   18.7309   22.4966 H   0  0  0  0  0  0  0  0  0  0  0  0
   17.3755   18.2655   22.3892 C   0  0  0  0  0  0  0  0  0  0  0  0
   17.4243   17.8851   23.4093 H   0  0  0  0  0  0  0  0  0  0  0  0
   18.6741   18.2257   21.6148 C   0  0  0  0  0  0  0  0  0  0  0  0
   18.4831   18.3795   20.5440 H   0  0  0  0  0  0  0  0  0  0  0  0
   19.1311   17.2321   21.7149 H   0  0  0  0  0  0  0  0  0  0  0  0
   19.6582   19.3007   22.1215 C   0  0  0  0  0  0  0  0  0  0  0  0
   19.1957   20.2927   22.0243 H   0  0  0  0  0  0  0  0  0  0  0  0
   19.8493   19.1432   23.1921 H   0  0  0  0  0  0  0  0  0  0  0  0
   20.9924   19.2716   21.3422 C   0  0  0  0  0  0  0  0  0  0  0  0
   20.7899   19.4142   20.2720 H   0  0  0  0  0  0  0  0  0  0  0  0
   21.4630   18.2840   21.4463 H   0  0  0  0  0  0  0  0  0  0  0  0
   21.9840   20.3655   21.8167 C   0  0  0  0  0  0  0  0  0  0  0  0
   22.8595   20.3777   21.1568 H   0  0  0  0  0  0  0  0  0  0  0  0
   21.5184   21.3559   21.7450 H   0  0  0  0  0  0  0  0  0  0  0  0
   22.4902   20.1671   23.2426 C   0  0  0  0  0  0  0  0  0  0  0  0
   23.3276   19.3083   23.4384 O   0  5  0  0  0  0  0  0  0  0  0  0
   22.0431   20.8827   24.1173 O   0  0  0  0  0  0  0  0  0  0  0  0
  1  2  1  0  0  0  0
  1  3  1  0  0  0  0
  1  4  2  0  0  0  0
  4  5  1  0  0  0  0
  4  6  1  0  0  0  0
  6  7  1  0  0  0  0
  6  8  1  0  0  0  0
  6  9  1  0  0  0  0
  9 10  1  0  0  0  0
  9 11  1  0  0  0  0
  9 12  1  0  0  0  0
 12 13  1  0  0  0  0
 12 14  1  0  0  0  0
 12 15  1  0  0  0  0
 15 16  1  0  0  0  0
 15 17  1  0  0  0  0
 15 18  1  0  0  0  0
 18 19  1  0  0  0  0
 18 20  2  0  0  0  0
M  END
> <VConfSearch Rank>
446

> <Conf_Id>
54

> <Delta U+W>
-0.048

> <U+W>
-51.793

> <U>
8.964

> <W>
-60.756

> <W(PB)>
-63.007

> <W(SA)>
2.251

> <Valence>
9.327

> <Coulomb>
-0.780

> <VdW>
0.417

> <VdW6>
-6.635

> <VdW12>
7.052

> <Bond>
0.105

> <Angle>
2.399

> <Pdih>
6.822

> <Idih>
0.000

> <Tether>
0.000

$$$$
VeraChem MOL file


 20 19  0  0  0  0  0  0  0  0999 V2000     
   19.8790   22.3831   21.2610 C   0  0  0  0  0  0  0  0  0  0  0  0
   20.4797   22.9758   20.5732 H   0  0  0  0  0  0  0  0  0  0  0  0
   18.8343   22.6642   21.3842 H   0  0  0  0  0  0  0  0  0  0  0  0
   20.4061   21.3503   21.9237 C   0  0  0  0  0  0  0  0  0  0  0  0
   21.4550   21.0882   21.7884 H   0  0  0  0  0  0  0  0  0  0  0  0
   19.6350   20.4872   22.8996 C   0  0  0  0  0  0  0  0  0  0  0  0
   18.7397   21.0242   23.2410 H   0  0  0  0  0  0  0  0  0  0  0  0
   20.2419   20.3012   23.7957 H   0  0  0  0  0  0  0  0  0  0  0  0
   19.1974   19.1417   22.2778 C   0  0  0  0  0  0  0  0  0  0  0  0
   18.5306   18.6287   22.9843 H   0  0  0  0  0  0  0  0  0  0  0  0
   18.6057   19.3330   21.3721 H   0  0  0  0  0  0  0  0  0  0  0  0
   20.3921   18.2189   21.9382 C   0  0  0  0  0  0  0  0  0  0  0  0
   20.9924   18.0393   22.8409 H   0  0  0  0  0  0  0  0  0  0  0  0
   21.0492   18.7208   21.2159 H   0  0  0  0  0  0  0  0  0  0  0  0
   19.9437   16.8599   21.3406 C   0  0  0  0  0  0  0  0  0  0  0  0
   19.3148   17.0237   20.4571 H   0  0  0  0  0  0  0  0  0  0  0  0
   20.8239   16.2995   21.0041 H   0  0  0  0  0  0  0  0  0  0  0  0
   19.1846   15.9705   22.3212 C   0  0  0  0  0  0  0  0  0  0  0  0
   17.9798   15.8719   22.1956 O   0  5  0  0  0  0  0  0  0  0  0  0
   19.8212   15.3908   23.1790 O   0  0  0  0  0  0  0  0  0  0  0  0
  1  2  1  0  0  0  0
  1  3  1  0  0  0  0
  1  4  2  0  0  0  0
  4  5  1  0  0  0  0
  4  6  1  0  0  0  0
  6  7  1  0  0  0  0
  6  8  1  0  0  0  0
  6  9  1  0  0  0  0
  9 10  1  0  0  0  0
  9 11  1  0  0  0  0
  9 12  1  0  0  0  0
 12 13  1  0  0  0  0
 12 14  1  0  0  0  0
 12 15  1  0  0  0  0
 15 16  1  0  0  0  0
 15 17  1  0  0  0  0
 15 18  1  0  0  0  0
 18 19  1  0  0  0  0
 18 20  2  0  0  0  0
M  END
> <VConfSearch Rank>
447

> <Conf_Id>
27

> <Delta U+W>
0.478

> <U+W>
-51.267

> <U>
9.192

> <W>
-60.459

> <W(PB)>
-62.649

> <W(SA)>
2.190

> <Valence>
9.572

> <Coulomb>
-0.884

> <VdW>
0.504

> <VdW6>
-7.168

> <VdW12>
7.672

> <Bond>
0.127

> <Angle>
2.504

> <Pdih>
6.941

> <Idih>
0.001

> <Tether>
0.000

$$$$
VeraChem MOL file


 20 19  0  0  0  0  0  0  0  0999 V2000     
   22.5492   20.0584   20.7301 C   0  0  0  0  0  0  0  0  0  0  0  0
   22.4025   20.2154   19.6627 H   0  0  0  0  0  0  0  0  0  0  0  0
   23.5606   19.8433   21.0707 H   0  0  0  0  0  0  0  0  0  0  0  0
   21.5303   20.1232   21.5911 C   0  0  0  0  0  0  0  0  0  0  0  0
   21.6998   19.9660   22.6559 H   0  0  0  0  0  0  0  0  0  0  0  0
   20.1012   20.4235   21.1918 C   0  0  0  0  0  0  0  0  0  0  0  0
   20.0861   20.9068   20.2055 H   0  0  0  0  0  0  0  0  0  0  0  0
   19.6601   21.1438   21.8937 H   0  0  0  0  0  0  0  0  0  0  0  0
   19.2272   19.1504   21.1327 C   0  0  0  0  0  0  0  0  0  0  0  0
   18.2468   19.4138   20.7126 H   0  0  0  0  0  0  0  0  0  0  0  0
   19.6818   18.4276   20.4412 H   0  0  0  0  0  0  0  0  0  0  0  0
   19.0258   18.4947   22.5182 C   0  0  0  0  0  0  0  0  0  0  0  0
   18.5952   19.2266   23.2156 H   0  0  0  0  0  0  0  0  0  0  0  0
   19.9960   18.1902   22.9336 H   0  0  0  0  0  0  0  0  0  0  0  0
   18.0990   17.2566   22.4394 C   0  0  0  0  0  0  0  0  0  0  0  0
   17.1177   17.5422   22.0420 H   0  0  0  0  0  0  0  0  0  0  0  0
   18.5216   16.5107   21.7555 H   0  0  0  0  0  0  0  0  0  0  0  0
   17.8854   16.5903   23.7939 C   0  0  0  0  0  0  0  0  0  0  0  0
   18.6566   15.7135   24.1300 O   0  5  0  0  0  0  0  0  0  0  0  0
   16.9638   16.9779   24.4846 O   0  0  0  0  0  0  0  0  0  0  0  0
  1  2  1  0  0  0  0
  1  3  1  0  0  0  0
  1  4  2  0  0  0  0
  4  5  1  0  0  0  0
  4  6  1  0  0  0  0
  6  7  1  0  0  0  0
  6  8  1  0  0  0  0
  6  9  1  0  0  0  0
  9 10  1  0  0  0  0
  9 11  1  0  0  0  0
  9 12  1  0  0  0  0
 12 13  1  0  0  0  0
 12 14  1  0  0  0  0
 12 15  1  0  0  0  0
 15 16  1  0  0  0  0
 15 17  1  0  0  0  0
 15 18  1  0  0  0  0
 18 19  1  0  0  0  0
 18 20  2  0  0  0  0
M  END
> <VConfSearch Rank>
448

> <Conf_Id>
41

> <Delta U+W>
-0.634

> <U+W>
-52.379

> <U>
7.828

> <W>
-60.207

> <W(PB)>
-62.449

> <W(SA)>
2.242

> <Valence>
9.300

> <Coulomb>
-2.080

> <VdW>
0.608

> <VdW6>
-6.341

> <VdW12>
6.949

> <Bond>
0.103

> <Angle>
2.334

> <Pdih>
6.862

> <Idih>
0.001

> <Tether>
0.000

$$$$
VeraChem MOL file


 20 19  0  0  0  0  0  0  0  0999 V2000     
   16.9577   20.5932   22.3754 C   0  0  0  0  0  0  0  0  0  0  0  0
   15.8742   20.5226   22.4543 H   0  0  0  0  0  0  0  0  0  0  0  0
   17.4209   21.5348   22.6659 H   0  0  0  0  0  0  0  0  0  0  0  0
   17.6867   19.5620   21.9409 C   0  0  0  0  0  0  0  0  0  0  0  0
   17.2039   18.6276   21.6555 H   0  0  0  0  0  0  0  0  0  0  0  0
   19.1928   19.5861   21.8038 C   0  0  0  0  0  0  0  0  0  0  0  0
   19.5633   20.6185   21.8597 H   0  0  0  0  0  0  0  0  0  0  0  0
   19.4698   19.2005   20.8141 H   0  0  0  0  0  0  0  0  0  0  0  0
   19.8638   18.7364   22.9061 C   0  0  0  0  0  0  0  0  0  0  0  0
   19.4967   19.0726   23.8856 H   0  0  0  0  0  0  0  0  0  0  0  0
   19.5513   17.6881   22.8030 H   0  0  0  0  0  0  0  0  0  0  0  0
   21.4098   18.8265   22.9017 C   0  0  0  0  0  0  0  0  0  0  0  0
   21.7994   18.2595   23.7586 H   0  0  0  0  0  0  0  0  0  0  0  0
   21.7117   19.8704   23.0610 H   0  0  0  0  0  0  0  0  0  0  0  0
   22.0805   18.2946   21.6057 C   0  0  0  0  0  0  0  0  0  0  0  0
   21.7708   18.8878   20.7379 H   0  0  0  0  0  0  0  0  0  0  0  0
   23.1678   18.4085   21.6869 H   0  0  0  0  0  0  0  0  0  0  0  0
   21.7988   16.8228   21.3173 C   0  0  0  0  0  0  0  0  0  0  0  0
   22.3365   15.9889   22.0194 O   0  5  0  0  0  0  0  0  0  0  0  0
   21.0646   16.5480   20.3887 O   0  0  0  0  0  0  0  0  0  0  0  0
  1  2  1  0  0  0  0
  1  3  1  0  0  0  0
  1  4  2  0  0  0  0
  4  5  1  0  0  0  0
  4  6  1  0  0  0  0
  6  7  1  0  0  0  0
  6  8  1  0  0  0  0
  6  9  1  0  0  0  0
  9 10  1  0  0  0  0
  9 11  1  0  0  0  0
  9 12  1  0  0  0  0
 12 13  1  0  0  0  0
 12 14  1  0  0  0  0
 12 15  1  0  0  0  0
 15 16  1  0  0  0  0
 15 17  1  0  0  0  0
 15 18  1  0  0  0  0
 18 19  1  0  0  0  0
 18 20  2  0  0  0  0
M  END
> <VConfSearch Rank>
449

> <Conf_Id>
84

> <Delta U+W>
0.942

> <U+W>
-50.803

> <U>
10.196

> <W>
-60.999

> <W(PB)>
-63.182

> <W(SA)>
2.182

> <Valence>
9.837

> <Coulomb>
0.032

> <VdW>
0.328

> <VdW6>
-7.642

> <VdW12>
7.969

> <Bond>
0.151

> <Angle>
2.748

> <Pdih>
6.937

> <Idih>
0.001

> <Tether>
0.000

$$$$
VeraChem MOL file


 20 19  0  0  0  0  0  0  0  0999 V2000     
   16.7844   17.2632   21.9311 C   0  0  0  0  0  0  0  0  0  0  0  0
   15.7230   17.2317   21.6909 H   0  0  0  0  0  0  0  0  0  0  0  0
   17.4090   16.4581   21.5473 H   0  0  0  0  0  0  0  0  0  0  0  0
   17.2965   18.2537   22.6660 C   0  0  0  0  0  0  0  0  0  0  0  0
   16.6540   19.0506   23.0399 H   0  0  0  0  0  0  0  0  0  0  0  0
   18.7579   18.3636   23.0401 C   0  0  0  0  0  0  0  0  0  0  0  0
   19.2716   17.4112   22.8507 H   0  0  0  0  0  0  0  0  0  0  0  0
   18.8475   18.5626   24.1164 H   0  0  0  0  0  0  0  0  0  0  0  0
   19.4535   19.4889   22.2457 C   0  0  0  0  0  0  0  0  0  0  0  0
   19.3545   19.2868   21.1701 H   0  0  0  0  0  0  0  0  0  0  0  0
   18.9428   20.4425   22.4378 H   0  0  0  0  0  0  0  0  0  0  0  0
   20.9477   19.6166   22.6191 C   0  0  0  0  0  0  0  0  0  0  0  0
   21.4647   18.6686   22.4149 H   0  0  0  0  0  0  0  0  0  0  0  0
   21.0371   19.7993   23.6985 H   0  0  0  0  0  0  0  0  0  0  0  0
   21.6576   20.7638   21.8542 C   0  0  0  0  0  0  0  0  0  0  0  0
   21.1366   21.7134   22.0264 H   0  0  0  0  0  0  0  0  0  0  0  0
   22.6764   20.8861   22.2402 H   0  0  0  0  0  0  0  0  0  0  0  0
   21.7646   20.5327   20.3495 C   0  0  0  0  0  0  0  0  0  0  0  0
   21.0274   21.1621   19.6164 O   0  5  0  0  0  0  0  0  0  0  0  0
   22.5927   19.7379   19.9500 O   0  0  0  0  0  0  0  0  0  0  0  0
  1  2  1  0  0  0  0
  1  3  1  0  0  0  0
  1  4  2  0  0  0  0
  4  5  1  0  0  0  0
  4  6  1  0  0  0  0
  6  7  1  0  0  0  0
  6  8  1  0  0  0  0
  6  9  1  0  0  0  0
  9 10  1  0  0  0  0
  9 11  1  0  0  0  0
  9 12  1  0  0  0  0
 12 13  1  0  0  0  0
 12 14  1  0  0  0  0
 12 15  1  0  0  0  0
 15 16  1  0  0  0  0
 15 17  1  0  0  0  0
 15 18  1  0  0  0  0
 18 19  1  0  0  0  0
 18 20  2  0  0  0  0
M  END
> <VConfSearch Rank>
450

> <Conf_Id>
81

> <Delta U+W>
-0.051

> <U+W>
-51.796

> <U>
9.412

> <W>
-61.209

> <W(PB)>
-63.452

> <W(SA)>
2.243

> <Valence>
9.329

> <Coulomb>
-0.323

> <VdW>
0.406

> <VdW6>
-6.640

> <VdW12>
7.046

> <Bond>
0.105

> <Angle>
2.401

> <Pdih>
6.823

> <Idih>
0.000

> <Tether>
0.000

$$$$
VeraChem MOL file


 20 19  0  0  0  0  0  0  0  0999 V2000     
   18.8496   16.8003   19.8785 C   0  0  0  0  0  0  0  0  0  0  0  0
   17.9569   17.1419   19.3570 H   0  0  0  0  0  0  0  0  0  0  0  0
   19.4076   15.9792   19.4319 H   0  0  0  0  0  0  0  0  0  0  0  0
   19.2494   17.3659   21.0204 C   0  0  0  0  0  0  0  0  0  0  0  0
   20.1445   17.0074   21.5277 H   0  0  0  0  0  0  0  0  0  0  0  0
   18.5229   18.5057   21.7021 C   0  0  0  0  0  0  0  0  0  0  0  0
   18.4444   18.3113   22.7796 H   0  0  0  0  0  0  0  0  0  0  0  0
   17.4903   18.5605   21.3322 H   0  0  0  0  0  0  0  0  0  0  0  0
   19.2055   19.8726   21.4568 C   0  0  0  0  0  0  0  0  0  0  0  0
   19.1945   20.0849   20.3790 H   0  0  0  0  0  0  0  0  0  0  0  0
   18.6029   20.6611   21.9282 H   0  0  0  0  0  0  0  0  0  0  0  0
   20.6655   19.9696   21.9699 C   0  0  0  0  0  0  0  0  0  0  0  0
   21.0602   20.9645   21.7219 H   0  0  0  0  0  0  0  0  0  0  0  0
   21.2931   19.2504   21.4272 H   0  0  0  0  0  0  0  0  0  0  0  0
   20.8269   19.7365   23.4969 C   0  0  0  0  0  0  0  0  0  0  0  0
   20.5120   18.7225   23.7683 H   0  0  0  0  0  0  0  0  0  0  0  0
   21.8867   19.8145   23.7659 H   0  0  0  0  0  0  0  0  0  0  0  0
   20.0635   20.7340   24.3633 C   0  0  0  0  0  0  0  0  0  0  0  0
   19.0813   20.3432   24.9631 O   0  5  0  0  0  0  0  0  0  0  0  0
   20.4825   21.8731   24.4291 O   0  0  0  0  0  0  0  0  0  0  0  0
  1  2  1  0  0  0  0
  1  3  1  0  0  0  0
  1  4  2  0  0  0  0
  4  5  1  0  0  0  0
  4  6  1  0  0  0  0
  6  7  1  0  0  0  0
  6  8  1  0  0  0  0
  6  9  1  0  0  0  0
  9 10  1  0  0  0  0
  9 11  1  0  0  0  0
  9 12  1  0  0  0  0
 12 13  1  0  0  0  0
 12 14  1  0  0  0  0
 12 15  1  0  0  0  0
 15 16  1  0  0  0  0
 15 17  1  0  0  0  0
 15 18  1  0  0  0  0
 18 19  1  0  0  0  0
 18 20  2  0  0  0  0
M  END
> <VConfSearch Rank>
451

> <Conf_Id>
86

> <Delta U+W>
1.248

> <U+W>
-50.498

> <U>
10.404

> <W>
-60.901

> <W(PB)>
-63.061

> <W(SA)>
2.159

> <Valence>
10.021

> <Coulomb>
0.094

> <VdW>
0.289

> <VdW6>
-8.409

> <VdW12>
8.698

> <Bond>
0.179

> <Angle>
2.939

> <Pdih>
6.902

> <Idih>
0.001

> <Tether>
0.000

$$$$
VeraChem MOL file


 20 19  0  0  0  0  0  0  0  0999 V2000     
   19.1847   19.4636   18.9795 C   0  0  0  0  0  0  0  0  0  0  0  0
   19.7202   19.6946   18.0603 H   0  0  0  0  0  0  0  0  0  0  0  0
   18.6143   18.5366   19.0079 H   0  0  0  0  0  0  0  0  0  0  0  0
   19.2311   20.2862   20.0308 C   0  0  0  0  0  0  0  0  0  0  0  0
   19.8098   21.2082   19.9825 H   0  0  0  0  0  0  0  0  0  0  0  0
   18.5146   20.0326   21.3401 C   0  0  0  0  0  0  0  0  0  0  0  0
   17.8030   19.2021   21.2374 H   0  0  0  0  0  0  0  0  0  0  0  0
   17.9208   20.9186   21.6013 H   0  0  0  0  0  0  0  0  0  0  0  0
   19.4947   19.7316   22.4964 C   0  0  0  0  0  0  0  0  0  0  0  0
   20.2093   20.5599   22.5973 H   0  0  0  0  0  0  0  0  0  0  0  0
   18.9284   19.6907   23.4369 H   0  0  0  0  0  0  0  0  0  0  0  0
   20.2593   18.4011   22.2996 C   0  0  0  0  0  0  0  0  0  0  0  0
   20.8314   18.4431   21.3632 H   0  0  0  0  0  0  0  0  0  0  0  0
   19.5443   17.5733   22.1949 H   0  0  0  0  0  0  0  0  0  0  0  0
   21.2337   18.0948   23.4666 C   0  0  0  0  0  0  0  0  0  0  0  0
   21.8346   17.2117   23.2196 H   0  0  0  0  0  0  0  0  0  0  0  0
   21.9343   18.9274   23.6034 H   0  0  0  0  0  0  0  0  0  0  0  0
   20.5405   17.8173   24.7974 C   0  0  0  0  0  0  0  0  0  0  0  0
   20.0119   16.7339   24.9527 O   0  5  0  0  0  0  0  0  0  0  0  0
   20.5567   18.6858   25.6474 O   0  0  0  0  0  0  0  0  0  0  0  0
  1  2  1  0  0  0  0
  1  3  1  0  0  0  0
  1  4  2  0  0  0  0
  4  5  1  0  0  0  0
  4  6  1  0  0  0  0
  6  7  1  0  0  0  0
  6  8  1  0  0  0  0
  6  9  1  0  0  0  0
  9 10  1  0  0  0  0
  9 11  1  0  0  0  0
  9 12  1  0  0  0  0
 12 13  1  0  0  0  0
 12 14  1  0  0  0  0
 12 15  1  0  0  0  0
 15 16  1  0  0  0  0
 15 17  1  0  0  0  0
 15 18  1  0  0  0  0
 18 19  1  0  0  0  0
 18 20  2  0  0  0  0
M  END
> <VConfSearch Rank>
452

> <Conf_Id>
28

> <Delta U+W>
0.446

> <U+W>
-51.299

> <U>
9.295

> <W>
-60.594

> <W(PB)>
-62.806

> <W(SA)>
2.212

> <Valence>
9.495

> <Coulomb>
-0.610

> <VdW>
0.409

> <VdW6>
-7.332

> <VdW12>
7.741

> <Bond>
0.126

> <Angle>
2.497

> <Pdih>
6.872

> <Idih>
0.000

> <Tether>
0.000

$$$$
VeraChem MOL file


 20 19  0  0  0  0  0  0  0  0999 V2000     
   21.1417   19.9552   19.4054 C   0  0  0  0  0  0  0  0  0  0  0  0
   20.6879   18.9713   19.3078 H   0  0  0  0  0  0  0  0  0  0  0  0
   21.5305   20.4093   18.4956 H   0  0  0  0  0  0  0  0  0  0  0  0
   21.2242   20.5949   20.5775 C   0  0  0  0  0  0  0  0  0  0  0  0
   21.6881   21.5804   20.6117 H   0  0  0  0  0  0  0  0  0  0  0  0
   20.7312   20.0921   21.9243 C   0  0  0  0  0  0  0  0  0  0  0  0
   19.9597   20.7819   22.2900 H   0  0  0  0  0  0  0  0  0  0  0  0
   21.5562   20.1554   22.6461 H   0  0  0  0  0  0  0  0  0  0  0  0
   20.1770   18.6460   21.9186 C   0  0  0  0  0  0  0  0  0  0  0  0
   19.2944   18.5914   21.2664 H   0  0  0  0  0  0  0  0  0  0  0  0
   20.9310   17.9756   21.4842 H   0  0  0  0  0  0  0  0  0  0  0  0
   19.8152   18.1178   23.3290 C   0  0  0  0  0  0  0  0  0  0  0  0
   20.7136   18.1281   23.9607 H   0  0  0  0  0  0  0  0  0  0  0  0
   19.5115   17.0651   23.2444 H   0  0  0  0  0  0  0  0  0  0  0  0
   18.6826   18.9064   24.0417 C   0  0  0  0  0  0  0  0  0  0  0  0
   18.5045   18.4699   25.0313 H   0  0  0  0  0  0  0  0  0  0  0  0
   18.9823   19.9467   24.2116 H   0  0  0  0  0  0  0  0  0  0  0  0
   17.3509   18.8965   23.2963 C   0  0  0  0  0  0  0  0  0  0  0  0
   16.7250   17.8553   23.2561 O   0  5  0  0  0  0  0  0  0  0  0  0
   16.9644   19.9334   22.7941 O   0  0  0  0  0  0  0  0  0  0  0  0
  1  2  1  0  0  0  0
  1  3  1  0  0  0  0
  1  4  2  0  0  0  0
  4  5  1  0  0  0  0
  4  6  1  0  0  0  0
  6  7  1  0  0  0  0
  6  8  1  0  0  0  0
  6  9  1  0  0  0  0
  9 10  1  0  0  0  0
  9 11  1  0  0  0  0
  9 12  1  0  0  0  0
 12 13  1  0  0  0  0
 12 14  1  0  0  0  0
 12 15  1  0  0  0  0
 15 16  1  0  0  0  0
 15 17  1  0  0  0  0
 15 18  1  0  0  0  0
 18 19  1  0  0  0  0
 18 20  2  0  0  0  0
M  END
> <VConfSearch Rank>
453

> <Conf_Id>
53

> <Delta U+W>
0.549

> <U+W>
-51.197

> <U>
10.870

> <W>
-62.067

> <W(PB)>
-64.228

> <W(SA)>
2.161

> <Valence>
8.803

> <Coulomb>
1.020

> <VdW>
1.048

> <VdW6>
-8.312

> <VdW12>
9.360

> <Bond>
0.212

> <Angle>
3.379

> <Pdih>
5.211

> <Idih>
0.001

> <Tether>
0.000

$$$$
VeraChem MOL file


 20 19  0  0  0  0  0  0  0  0999 V2000     
   22.4870   18.6255   22.2372 C   0  0  0  0  0  0  0  0  0  0  0  0
   22.4105   19.6172   21.7969 H   0  0  0  0  0  0  0  0  0  0  0  0
   23.3828   18.0510   22.0085 H   0  0  0  0  0  0  0  0  0  0  0  0
   21.5347   18.1234   23.0307 C   0  0  0  0  0  0  0  0  0  0  0  0
   21.6621   17.1252   23.4486 H   0  0  0  0  0  0  0  0  0  0  0  0
   20.2371   18.8083   23.4271 C   0  0  0  0  0  0  0  0  0  0  0  0
   20.3626   19.2494   24.4247 H   0  0  0  0  0  0  0  0  0  0  0  0
   19.4563   18.0477   23.5546 H   0  0  0  0  0  0  0  0  0  0  0  0
   19.7196   19.8962   22.4501 C   0  0  0  0  0  0  0  0  0  0  0  0
   18.8242   20.3598   22.8860 H   0  0  0  0  0  0  0  0  0  0  0  0
   20.4615   20.7020   22.3749 H   0  0  0  0  0  0  0  0  0  0  0  0
   19.3756   19.3816   21.0275 C   0  0  0  0  0  0  0  0  0  0  0  0
   20.2796   18.9812   20.5509 H   0  0  0  0  0  0  0  0  0  0  0  0
   19.0596   20.2350   20.4119 H   0  0  0  0  0  0  0  0  0  0  0  0
   18.2625   18.2993   20.9854 C   0  0  0  0  0  0  0  0  0  0  0  0
   18.0919   17.9950   19.9463 H   0  0  0  0  0  0  0  0  0  0  0  0
   18.5797   17.3987   21.5233 H   0  0  0  0  0  0  0  0  0  0  0  0
   16.9218   18.7605   21.5496 C   0  0  0  0  0  0  0  0  0  0  0  0
   16.5599   18.3087   22.6183 O   0  5  0  0  0  0  0  0  0  0  0  0
   16.2655   19.5470   20.8952 O   0  0  0  0  0  0  0  0  0  0  0  0
  1  2  1  0  0  0  0
  1  3  1  0  0  0  0
  1  4  2  0  0  0  0
  4  5  1  0  0  0  0
  4  6  1  0  0  0  0
  6  7  1  0  0  0  0
  6  8  1  0  0  0  0
  6  9  1  0  0  0  0
  9 10  1  0  0  0  0
  9 11  1  0  0  0  0
  9 12  1  0  0  0  0
 12 13  1  0  0  0  0
 12 14  1  0  0  0  0
 12 15  1  0  0  0  0
 15 16  1  0  0  0  0
 15 17  1  0  0  0  0
 15 18  1  0  0  0  0
 18 19  1  0  0  0  0
 18 20  2  0  0  0  0
M  END
> <VConfSearch Rank>
454

> <Conf_Id>
66

> <Delta U+W>
1.737

> <U+W>
-50.008

> <U>
11.091

> <W>
-61.099

> <W(PB)>
-63.213

> <W(SA)>
2.114

> <Valence>
9.664

> <Coulomb>
0.658

> <VdW>
0.769

> <VdW6>
-9.171

> <VdW12>
9.940

> <Bond>
0.244

> <Angle>
3.658

> <Pdih>
5.762

> <Idih>
0.001

> <Tether>
0.000

$$$$
VeraChem MOL file


 20 19  0  0  0  0  0  0  0  0999 V2000     
   20.5010   21.4542   22.8230 C   0  0  0  0  0  0  0  0  0  0  0  0
   19.4672   21.6919   22.5824 H   0  0  0  0  0  0  0  0  0  0  0  0
   20.9447   21.9794   23.6669 H   0  0  0  0  0  0  0  0  0  0  0  0
   21.2102   20.5640   22.1205 C   0  0  0  0  0  0  0  0  0  0  0  0
   22.2435   20.3658   22.4038 H   0  0  0  0  0  0  0  0  0  0  0  0
   20.7219   19.7563   20.9289 C   0  0  0  0  0  0  0  0  0  0  0  0
   21.2019   18.7699   20.9479 H   0  0  0  0  0  0  0  0  0  0  0  0
   21.0913   20.2301   20.0099 H   0  0  0  0  0  0  0  0  0  0  0  0
   19.1861   19.5669   20.8213 C   0  0  0  0  0  0  0  0  0  0  0  0
   18.7022   20.5493   20.7433 H   0  0  0  0  0  0  0  0  0  0  0  0
   18.9606   19.0503   19.8785 H   0  0  0  0  0  0  0  0  0  0  0  0
   18.5481   18.7707   21.9883 C   0  0  0  0  0  0  0  0  0  0  0  0
   17.4573   18.7704   21.8562 H   0  0  0  0  0  0  0  0  0  0  0  0
   18.7415   19.2763   22.9435 H   0  0  0  0  0  0  0  0  0  0  0  0
   19.0379   17.3020   22.0773 C   0  0  0  0  0  0  0  0  0  0  0  0
   18.8982   16.7966   21.1144 H   0  0  0  0  0  0  0  0  0  0  0  0
   20.1076   17.2669   22.3127 H   0  0  0  0  0  0  0  0  0  0  0  0
   18.3014   16.4984   23.1431 C   0  0  0  0  0  0  0  0  0  0  0  0
   18.7707   16.4630   24.2635 O   0  5  0  0  0  0  0  0  0  0  0  0
   17.2689   15.9400   22.8283 O   0  0  0  0  0  0  0  0  0  0  0  0
  1  2  1  0  0  0  0
  1  3  1  0  0  0  0
  1  4  2  0  0  0  0
  4  5  1  0  0  0  0
  4  6  1  0  0  0  0
  6  7  1  0  0  0  0
  6  8  1  0  0  0  0
  6  9  1  0  0  0  0
  9 10  1  0  0  0  0
  9 11  1  0  0  0  0
  9 12  1  0  0  0  0
 12 13  1  0  0  0  0
 12 14  1  0  0  0  0
 12 15  1  0  0  0  0
 15 16  1  0  0  0  0
 15 17  1  0  0  0  0
 15 18  1  0  0  0  0
 18 19  1  0  0  0  0
 18 20  2  0  0  0  0
M  END
> <VConfSearch Rank>
455

> <Conf_Id>
64

> <Delta U+W>
0.366

> <U+W>
-51.379

> <U>
10.000

> <W>
-61.379

> <W(PB)>
-63.541

> <W(SA)>
2.162

> <Valence>
9.398

> <Coulomb>
-0.504

> <VdW>
1.105

> <VdW6>
-7.975

> <VdW12>
9.080

> <Bond>
0.216

> <Angle>
3.417

> <Pdih>
5.765

> <Idih>
0.001

> <Tether>
0.000

$$$$
VeraChem MOL file


 20 19  0  0  0  0  0  0  0  0999 V2000     
   20.8701   16.3642   22.7634 C   0  0  0  0  0  0  0  0  0  0  0  0
   21.5377   16.8374   23.4817 H   0  0  0  0  0  0  0  0  0  0  0  0
   21.2563   15.5126   22.2059 H   0  0  0  0  0  0  0  0  0  0  0  0
   19.6265   16.8106   22.5681 C   0  0  0  0  0  0  0  0  0  0  0  0
   18.9751   16.3242   21.8425 H   0  0  0  0  0  0  0  0  0  0  0  0
   19.0210   17.9871   23.3037 C   0  0  0  0  0  0  0  0  0  0  0  0
   19.6585   18.2854   24.1472 H   0  0  0  0  0  0  0  0  0  0  0  0
   18.0583   17.6832   23.7357 H   0  0  0  0  0  0  0  0  0  0  0  0
   18.7903   19.2018   22.3768 C   0  0  0  0  0  0  0  0  0  0  0  0
   18.1533   18.9033   21.5329 H   0  0  0  0  0  0  0  0  0  0  0  0
   18.2368   19.9715   22.9319 H   0  0  0  0  0  0  0  0  0  0  0  0
   20.1104   19.8076   21.8478 C   0  0  0  0  0  0  0  0  0  0  0  0
   20.6614   19.0547   21.2675 H   0  0  0  0  0  0  0  0  0  0  0  0
   20.7530   20.0897   22.6933 H   0  0  0  0  0  0  0  0  0  0  0  0
   19.8588   21.0501   20.9585 C   0  0  0  0  0  0  0  0  0  0  0  0
   19.2284   20.7812   20.1025 H   0  0  0  0  0  0  0  0  0  0  0  0
   19.3236   21.8206   21.5265 H   0  0  0  0  0  0  0  0  0  0  0  0
   21.1468   21.6659   20.4239 C   0  0  0  0  0  0  0  0  0  0  0  0
   21.7053   22.5059   21.1016 O   0  5  0  0  0  0  0  0  0  0  0  0
   21.5654   21.2795   19.3505 O   0  0  0  0  0  0  0  0  0  0  0  0
  1  2  1  0  0  0  0
  1  3  1  0  0  0  0
  1  4  2  0  0  0  0
  4  5  1  0  0  0  0
  4  6  1  0  0  0  0
  6  7  1  0  0  0  0
  6  8  1  0  0  0  0
  6  9  1  0  0  0  0
  9 10  1  0  0  0  0
  9 11  1  0  0  0  0
  9 12  1  0  0  0  0
 12 13  1  0  0  0  0
 12 14  1  0  0  0  0
 12 15  1  0  0  0  0
 15 16  1  0  0  0  0
 15 17  1  0  0  0  0
 15 18  1  0  0  0  0
 18 19  1  0  0  0  0
 18 20  2  0  0  0  0
M  END
> <VConfSearch Rank>
456

> <Conf_Id>
42

> <Delta U+W>
-0.601

> <U+W>
-52.347

> <U>
8.428

> <W>
-60.774

> <W(PB)>
-62.982

> <W(SA)>
2.208

> <Valence>
9.231

> <Coulomb>
-1.304

> <VdW>
0.501

> <VdW6>
-6.515

> <VdW12>
7.016

> <Bond>
0.103

> <Angle>
2.328

> <Pdih>
6.799

> <Idih>
0.000

> <Tether>
0.000

$$$$
VeraChem MOL file


 20 19  0  0  0  0  0  0  0  0999 V2000     
   18.5733   19.5771   24.8562 C   0  0  0  0  0  0  0  0  0  0  0  0
   19.5562   19.6065   25.3236 H   0  0  0  0  0  0  0  0  0  0  0  0
   17.7763   19.0694   25.3967 H   0  0  0  0  0  0  0  0  0  0  0  0
   18.3508   20.1375   23.6644 C   0  0  0  0  0  0  0  0  0  0  0  0
   17.3601   20.0944   23.2126 H   0  0  0  0  0  0  0  0  0  0  0  0
   19.4073   20.8579   22.8540 C   0  0  0  0  0  0  0  0  0  0  0  0
   20.3097   21.0259   23.4573 H   0  0  0  0  0  0  0  0  0  0  0  0
   19.0310   21.8515   22.5763 H   0  0  0  0  0  0  0  0  0  0  0  0
   19.7824   20.0898   21.5667 C   0  0  0  0  0  0  0  0  0  0  0  0
   18.8794   19.9288   20.9616 H   0  0  0  0  0  0  0  0  0  0  0  0
   20.4558   20.7140   20.9637 H   0  0  0  0  0  0  0  0  0  0  0  0
   20.4703   18.7353   21.8590 C   0  0  0  0  0  0  0  0  0  0  0  0
   19.7911   18.0841   22.4265 H   0  0  0  0  0  0  0  0  0  0  0  0
   21.3487   18.9057   22.4959 H   0  0  0  0  0  0  0  0  0  0  0  0
   20.9182   18.0034   20.5673 C   0  0  0  0  0  0  0  0  0  0  0  0
   21.5789   18.6484   19.9755 H   0  0  0  0  0  0  0  0  0  0  0  0
   21.4994   17.1128   20.8338 H   0  0  0  0  0  0  0  0  0  0  0  0
   19.7625   17.5468   19.6814 C   0  0  0  0  0  0  0  0  0  0  0  0
   19.5140   18.1915   18.6815 O   0  5  0  0  0  0  0  0  0  0  0  0
   19.1527   16.5469   20.0060 O   0  0  0  0  0  0  0  0  0  0  0  0
  1  2  1  0  0  0  0
  1  3  1  0  0  0  0
  1  4  2  0  0  0  0
  4  5  1  0  0  0  0
  4  6  1  0  0  0  0
  6  7  1  0  0  0  0
  6  8  1  0  0  0  0
  6  9  1  0  0  0  0
  9 10  1  0  0  0  0
  9 11  1  0  0  0  0
  9 12  1  0  0  0  0
 12 13  1  0  0  0  0
 12 14  1  0  0  0  0
 12 15  1  0  0  0  0
 15 16  1  0  0  0  0
 15 17  1  0  0  0  0
 15 18  1  0  0  0  0
 18 19  1  0  0  0  0
 18 20  2  0  0  0  0
M  END
> <VConfSearch Rank>
457

> <Conf_Id>
68

> <Delta U+W>
0.492

> <U+W>
-51.253

> <U>
10.179

> <W>
-61.432

> <W(PB)>
-63.627

> <W(SA)>
2.195

> <Valence>
9.483

> <Coulomb>
0.361

> <VdW>
0.335

> <VdW6>
-7.385

> <VdW12>
7.720

> <Bond>
0.125

> <Angle>
2.487

> <Pdih>
6.870

> <Idih>
0.001

> <Tether>
0.000

$$$$
VeraChem MOL file


 20 19  0  0  0  0  0  0  0  0999 V2000     
   18.1715   16.4479   21.6948 C   0  0  0  0  0  0  0  0  0  0  0  0
   17.1594   16.6657   22.0320 H   0  0  0  0  0  0  0  0  0  0  0  0
   18.5454   15.4375   21.8515 H   0  0  0  0  0  0  0  0  0  0  0  0
   18.9294   17.3819   21.1144 C   0  0  0  0  0  0  0  0  0  0  0  0
   19.9389   17.1418   20.7820 H   0  0  0  0  0  0  0  0  0  0  0  0
   18.4754   18.8033   20.8589 C   0  0  0  0  0  0  0  0  0  0  0  0
   17.3789   18.8546   20.8972 H   0  0  0  0  0  0  0  0  0  0  0  0
   18.7621   19.1109   19.8444 H   0  0  0  0  0  0  0  0  0  0  0  0
   19.0538   19.7995   21.8891 C   0  0  0  0  0  0  0  0  0  0  0  0
   18.5884   20.7820   21.7317 H   0  0  0  0  0  0  0  0  0  0  0  0
   18.7727   19.4789   22.9019 H   0  0  0  0  0  0  0  0  0  0  0  0
   20.5909   19.9441   21.7886 C   0  0  0  0  0  0  0  0  0  0  0  0
   20.8628   20.2164   20.7599 H   0  0  0  0  0  0  0  0  0  0  0  0
   21.0742   18.9804   21.9996 H   0  0  0  0  0  0  0  0  0  0  0  0
   21.1521   21.0165   22.7581 C   0  0  0  0  0  0  0  0  0  0  0  0
   22.2217   21.1608   22.5652 H   0  0  0  0  0  0  0  0  0  0  0  0
   20.6642   21.9822   22.5792 H   0  0  0  0  0  0  0  0  0  0  0  0
   20.9979   20.6592   24.2337 C   0  0  0  0  0  0  0  0  0  0  0  0
   21.7713   19.8522   24.7109 O   0  5  0  0  0  0  0  0  0  0  0  0
   20.1225   21.2108   24.8713 O   0  0  0  0  0  0  0  0  0  0  0  0
  1  2  1  0  0  0  0
  1  3  1  0  0  0  0
  1  4  2  0  0  0  0
  4  5  1  0  0  0  0
  4  6  1  0  0  0  0
  6  7  1  0  0  0  0
  6  8  1  0  0  0  0
  6  9  1  0  0  0  0
  9 10  1  0  0  0  0
  9 11  1  0  0  0  0
  9 12  1  0  0  0  0
 12 13  1  0  0  0  0
 12 14  1  0  0  0  0
 12 15  1  0  0  0  0
 15 16  1  0  0  0  0
 15 17  1  0  0  0  0
 15 18  1  0  0  0  0
 18 19  1  0  0  0  0
 18 20  2  0  0  0  0
M  END
> <VConfSearch Rank>
458

> <Conf_Id>
87

> <Delta U+W>
0.339

> <U+W>
-51.407

> <U>
10.461

> <W>
-61.867

> <W(PB)>
-64.045

> <W(SA)>
2.178

> <Valence>
9.555

> <Coulomb>
0.483

> <VdW>
0.423

> <VdW6>
-7.223

> <VdW12>
7.646

> <Bond>
0.126

> <Angle>
2.492

> <Pdih>
6.936

> <Idih>
0.001

> <Tether>
0.000

$$$$
VeraChem MOL file


 20 19  0  0  0  0  0  0  0  0999 V2000     
   22.1404   17.8059   22.4338 C   0  0  0  0  0  0  0  0  0  0  0  0
   22.0267   16.7771   22.0958 H   0  0  0  0  0  0  0  0  0  0  0  0
   23.1022   18.2868   22.2644 H   0  0  0  0  0  0  0  0  0  0  0  0
   21.1385   18.4559   23.0316 C   0  0  0  0  0  0  0  0  0  0  0  0
   21.2745   19.4822   23.3709 H   0  0  0  0  0  0  0  0  0  0  0  0
   19.7814   17.8459   23.3101 C   0  0  0  0  0  0  0  0  0  0  0  0
   19.2614   18.4156   24.0917 H   0  0  0  0  0  0  0  0  0  0  0  0
   19.9308   16.8397   23.7246 H   0  0  0  0  0  0  0  0  0  0  0  0
   18.8843   17.7302   22.0527 C   0  0  0  0  0  0  0  0  0  0  0  0
   19.4661   17.3287   21.2117 H   0  0  0  0  0  0  0  0  0  0  0  0
   18.1048   16.9851   22.2623 H   0  0  0  0  0  0  0  0  0  0  0  0
   18.1778   19.0436   21.6322 C   0  0  0  0  0  0  0  0  0  0  0  0
   17.6083   19.4493   22.4796 H   0  0  0  0  0  0  0  0  0  0  0  0
   17.4406   18.8039   20.8533 H   0  0  0  0  0  0  0  0  0  0  0  0
   19.1333   20.1327   21.0807 C   0  0  0  0  0  0  0  0  0  0  0  0
   19.7893   20.5062   21.8732 H   0  0  0  0  0  0  0  0  0  0  0  0
   19.7738   19.7136   20.2955 H   0  0  0  0  0  0  0  0  0  0  0  0
   18.3901   21.3294   20.4983 C   0  0  0  0  0  0  0  0  0  0  0  0
   18.0975   22.2424   21.2450 O   0  5  0  0  0  0  0  0  0  0  0  0
   18.1045   21.3082   19.3173 O   0  0  0  0  0  0  0  0  0  0  0  0
  1  2  1  0  0  0  0
  1  3  1  0  0  0  0
  1  4  2  0  0  0  0
  4  5  1  0  0  0  0
  4  6  1  0  0  0  0
  6  7  1  0  0  0  0
  6  8  1  0  0  0  0
  6  9  1  0  0  0  0
  9 10  1  0  0  0  0
  9 11  1  0  0  0  0
  9 12  1  0  0  0  0
 12 13  1  0  0  0  0
 12 14  1  0  0  0  0
 12 15  1  0  0  0  0
 15 16  1  0  0  0  0
 15 17  1  0  0  0  0
 15 18  1  0  0  0  0
 18 19  1  0  0  0  0
 18 20  2  0  0  0  0
M  END
> <VConfSearch Rank>
459

> <Conf_Id>
51

> <Delta U+W>
1.709

> <U+W>
-50.036

> <U>
10.643

> <W>
-60.679

> <W(PB)>
-62.882

> <W(SA)>
2.203

> <Valence>
11.231

> <Coulomb>
-1.077

> <VdW>
0.489

> <VdW6>
-7.546

> <VdW12>
8.035

> <Bond>
0.159

> <Angle>
3.005

> <Pdih>
8.065

> <Idih>
0.002

> <Tether>
0.000

$$$$
VeraChem MOL file


 20 19  0  0  0  0  0  0  0  0999 V2000     
   16.9100   18.3914   21.5008 C   0  0  0  0  0  0  0  0  0  0  0  0
   16.9942   17.4552   20.9515 H   0  0  0  0  0  0  0  0  0  0  0  0
   16.0958   19.0612   21.2299 H   0  0  0  0  0  0  0  0  0  0  0  0
   17.7732   18.7094   22.4690 C   0  0  0  0  0  0  0  0  0  0  0  0
   17.6671   19.6469   23.0136 H   0  0  0  0  0  0  0  0  0  0  0  0
   18.9191   17.8217   22.9057 C   0  0  0  0  0  0  0  0  0  0  0  0
   18.5448   16.7937   23.0035 H   0  0  0  0  0  0  0  0  0  0  0  0
   19.2630   18.1099   23.9080 H   0  0  0  0  0  0  0  0  0  0  0  0
   20.1113   17.8177   21.9169 C   0  0  0  0  0  0  0  0  0  0  0  0
   20.7104   16.9185   22.1150 H   0  0  0  0  0  0  0  0  0  0  0  0
   19.7445   17.7142   20.8865 H   0  0  0  0  0  0  0  0  0  0  0  0
   21.0534   19.0432   22.0258 C   0  0  0  0  0  0  0  0  0  0  0  0
   21.9457   18.8469   21.4152 H   0  0  0  0  0  0  0  0  0  0  0  0
   21.4069   19.1519   23.0603 H   0  0  0  0  0  0  0  0  0  0  0  0
   20.4214   20.3768   21.5510 C   0  0  0  0  0  0  0  0  0  0  0  0
   19.9811   20.2547   20.5543 H   0  0  0  0  0  0  0  0  0  0  0  0
   19.6182   20.6845   22.2279 H   0  0  0  0  0  0  0  0  0  0  0  0
   21.4301   21.5179   21.4876 C   0  0  0  0  0  0  0  0  0  0  0  0
   21.6060   22.1851   22.4880 O   0  5  0  0  0  0  0  0  0  0  0  0
   22.0289   21.6972   20.4454 O   0  0  0  0  0  0  0  0  0  0  0  0
  1  2  1  0  0  0  0
  1  3  1  0  0  0  0
  1  4  2  0  0  0  0
  4  5  1  0  0  0  0
  4  6  1  0  0  0  0
  6  7  1  0  0  0  0
  6  8  1  0  0  0  0
  6  9  1  0  0  0  0
  9 10  1  0  0  0  0
  9 11  1  0  0  0  0
  9 12  1  0  0  0  0
 12 13  1  0  0  0  0
 12 14  1  0  0  0  0
 12 15  1  0  0  0  0
 15 16  1  0  0  0  0
 15 17  1  0  0  0  0
 15 18  1  0  0  0  0
 18 19  1  0  0  0  0
 18 20  2  0  0  0  0
M  END
> <VConfSearch Rank>
460

> <Conf_Id>
91

> <Delta U+W>
1.604

> <U+W>
-50.141

> <U>
10.644

> <W>
-60.786

> <W(PB)>
-62.965

> <W(SA)>
2.179

> <Valence>
11.230

> <Coulomb>
-1.075

> <VdW>
0.489

> <VdW6>
-7.547

> <VdW12>
8.036

> <Bond>
0.159

> <Angle>
3.006

> <Pdih>
8.064

> <Idih>
0.002

> <Tether>
0.000

$$$$
VeraChem MOL file


 20 19  0  0  0  0  0  0  0  0999 V2000     
   20.4515   22.2636   20.2589 C   0  0  0  0  0  0  0  0  0  0  0  0
   19.3759   22.3768   20.1326 H   0  0  0  0  0  0  0  0  0  0  0  0
   21.0968   22.8626   19.6186 H   0  0  0  0  0  0  0  0  0  0  0  0
   20.9634   21.4222   21.1609 C   0  0  0  0  0  0  0  0  0  0  0  0
   22.0431   21.3232   21.2709 H   0  0  0  0  0  0  0  0  0  0  0  0
   20.1313   20.5601   22.0840 C   0  0  0  0  0  0  0  0  0  0  0  0
   19.0890   20.9069   22.0915 H   0  0  0  0  0  0  0  0  0  0  0  0
   20.5039   20.6572   23.1126 H   0  0  0  0  0  0  0  0  0  0  0  0
   20.1769   19.0787   21.6546 C   0  0  0  0  0  0  0  0  0  0  0  0
   19.8073   18.9878   20.6238 H   0  0  0  0  0  0  0  0  0  0  0  0
   21.2192   18.7311   21.6517 H   0  0  0  0  0  0  0  0  0  0  0  0
   19.3342   18.1832   22.5890 C   0  0  0  0  0  0  0  0  0  0  0  0
   18.2915   18.5301   22.5920 H   0  0  0  0  0  0  0  0  0  0  0  0
   19.7027   18.2747   23.6202 H   0  0  0  0  0  0  0  0  0  0  0  0
   19.3798   16.6936   22.1563 C   0  0  0  0  0  0  0  0  0  0  0  0
   19.0074   16.5941   21.1300 H   0  0  0  0  0  0  0  0  0  0  0  0
   20.4172   16.3388   22.1572 H   0  0  0  0  0  0  0  0  0  0  0  0
   18.5694   15.7352   23.0304 C   0  0  0  0  0  0  0  0  0  0  0  0
   18.5820   14.5598   22.7235 O   0  5  0  0  0  0  0  0  0  0  0  0
   17.9506   16.1663   23.9843 O   0  0  0  0  0  0  0  0  0  0  0  0
  1  2  1  0  0  0  0
  1  3  1  0  0  0  0
  1  4  2  0  0  0  0
  4  5  1  0  0  0  0
  4  6  1  0  0  0  0
  6  7  1  0  0  0  0
  6  8  1  0  0  0  0
  6  9  1  0  0  0  0
  9 10  1  0  0  0  0
  9 11  1  0  0  0  0
  9 12  1  0  0  0  0
 12 13  1  0  0  0  0
 12 14  1  0  0  0  0
 12 15  1  0  0  0  0
 15 16  1  0  0  0  0
 15 17  1  0  0  0  0
 15 18  1  0  0  0  0
 18 19  1  0  0  0  0
 18 20  2  0  0  0  0
M  END
> <VConfSearch Rank>
461

> <Conf_Id>
33

> <Delta U+W>
0.000

> <U+W>
-51.745

> <U>
7.593

> <W>
-59.338

> <W(PB)>
-61.574

> <W(SA)>
2.236

> <Valence>
9.570

> <Coulomb>
-3.091

> <VdW>
1.114

> <VdW6>
-6.064

> <VdW12>
7.178

> <Bond>
0.117

> <Angle>
2.692

> <Pdih>
6.761

> <Idih>
0.000

> <Tether>
0.000

$$$$
VeraChem MOL file


 20 19  0  0  0  0  0  0  0  0999 V2000     
   21.9285   20.4679   19.4537 C   0  0  0  0  0  0  0  0  0  0  0  0
   21.2334   20.1841   18.6652 H   0  0  0  0  0  0  0  0  0  0  0  0
   22.9085   20.8324   19.1504 H   0  0  0  0  0  0  0  0  0  0  0  0
   21.5969   20.3719   20.7439 C   0  0  0  0  0  0  0  0  0  0  0  0
   22.3078   20.6605   21.5179 H   0  0  0  0  0  0  0  0  0  0  0  0
   20.2569   19.8763   21.2403 C   0  0  0  0  0  0  0  0  0  0  0  0
   19.5305   19.8565   20.4165 H   0  0  0  0  0  0  0  0  0  0  0  0
   19.8685   20.5782   21.9891 H   0  0  0  0  0  0  0  0  0  0  0  0
   20.3801   18.4626   21.8518 C   0  0  0  0  0  0  0  0  0  0  0  0
   20.8490   17.7977   21.1133 H   0  0  0  0  0  0  0  0  0  0  0  0
   21.0569   18.4917   22.7167 H   0  0  0  0  0  0  0  0  0  0  0  0
   19.0223   17.8520   22.2735 C   0  0  0  0  0  0  0  0  0  0  0  0
   19.1865   16.8123   22.5890 H   0  0  0  0  0  0  0  0  0  0  0  0
   18.3487   17.8099   21.4064 H   0  0  0  0  0  0  0  0  0  0  0  0
   18.3307   18.6199   23.4298 C   0  0  0  0  0  0  0  0  0  0  0  0
   19.0096   18.7056   24.2867 H   0  0  0  0  0  0  0  0  0  0  0  0
   18.0706   19.6374   23.1171 H   0  0  0  0  0  0  0  0  0  0  0  0
   17.0519   17.9404   23.9061 C   0  0  0  0  0  0  0  0  0  0  0  0
   16.0074   18.2357   23.3596 O   0  5  0  0  0  0  0  0  0  0  0  0
   17.1366   17.1190   24.7976 O   0  0  0  0  0  0  0  0  0  0  0  0
  1  2  1  0  0  0  0
  1  3  1  0  0  0  0
  1  4  2  0  0  0  0
  4  5  1  0  0  0  0
  4  6  1  0  0  0  0
  6  7  1  0  0  0  0
  6  8  1  0  0  0  0
  6  9  1  0  0  0  0
  9 10  1  0  0  0  0
  9 11  1  0  0  0  0
  9 12  1  0  0  0  0
 12 13  1  0  0  0  0
 12 14  1  0  0  0  0
 12 15  1  0  0  0  0
 15 16  1  0  0  0  0
 15 17  1  0  0  0  0
 15 18  1  0  0  0  0
 18 19  1  0  0  0  0
 18 20  2  0  0  0  0
M  END
> <VConfSearch Rank>
462

> <Conf_Id>
37

> <Delta U+W>
-0.384

> <U+W>
-52.130

> <U>
7.491

> <W>
-59.621

> <W(PB)>
-61.853

> <W(SA)>
2.232

> <Valence>
9.604

> <Coulomb>
-2.799

> <VdW>
0.686

> <VdW6>
-6.435

> <VdW12>
7.121

> <Bond>
0.124

> <Angle>
2.493

> <Pdih>
6.986

> <Idih>
0.001

> <Tether>
0.000

$$$$
VeraChem MOL file


 20 19  0  0  0  0  0  0  0  0999 V2000     
   20.2977   21.6501   23.9023 C   0  0  0  0  0  0  0  0  0  0  0  0
   20.4640   22.4957   24.5675 H   0  0  0  0  0  0  0  0  0  0  0  0
   20.2027   21.8716   22.8414 H   0  0  0  0  0  0  0  0  0  0  0  0
   20.2168   20.4055   24.3863 C   0  0  0  0  0  0  0  0  0  0  0  0
   20.3198   20.2467   25.4595 H   0  0  0  0  0  0  0  0  0  0  0  0
   19.9890   19.1331   23.5876 C   0  0  0  0  0  0  0  0  0  0  0  0
   19.0920   18.6302   23.9732 H   0  0  0  0  0  0  0  0  0  0  0  0
   20.8211   18.4425   23.7793 H   0  0  0  0  0  0  0  0  0  0  0  0
   19.8399   19.3363   22.0616 C   0  0  0  0  0  0  0  0  0  0  0  0
   18.9955   20.0102   21.8619 H   0  0  0  0  0  0  0  0  0  0  0  0
   20.7433   19.8204   21.6659 H   0  0  0  0  0  0  0  0  0  0  0  0
   19.6120   17.9978   21.3257 C   0  0  0  0  0  0  0  0  0  0  0  0
   18.7094   17.5083   21.7172 H   0  0  0  0  0  0  0  0  0  0  0  0
   20.4536   17.3189   21.5216 H   0  0  0  0  0  0  0  0  0  0  0  0
   19.4624   18.1986   19.7975 C   0  0  0  0  0  0  0  0  0  0  0  0
   18.6173   18.8639   19.5838 H   0  0  0  0  0  0  0  0  0  0  0  0
   20.3616   18.6746   19.3882 H   0  0  0  0  0  0  0  0  0  0  0  0
   19.2364   16.8904   19.0480 C   0  0  0  0  0  0  0  0  0  0  0  0
   18.0934   16.5080   18.8935 O   0  5  0  0  0  0  0  0  0  0  0  0
   20.2102   16.2785   18.6558 O   0  0  0  0  0  0  0  0  0  0  0  0
  1  2  1  0  0  0  0
  1  3  1  0  0  0  0
  1  4  2  0  0  0  0
  4  5  1  0  0  0  0
  4  6  1  0  0  0  0
  6  7  1  0  0  0  0
  6  8  1  0  0  0  0
  6  9  1  0  0  0  0
  9 10  1  0  0  0  0
  9 11  1  0  0  0  0
  9 12  1  0  0  0  0
 12 13  1  0  0  0  0
 12 14  1  0  0  0  0
 12 15  1  0  0  0  0
 15 16  1  0  0  0  0
 15 17  1  0  0  0  0
 15 18  1  0  0  0  0
 18 19  1  0  0  0  0
 18 20  2  0  0  0  0
M  END
> <VConfSearch Rank>
463

> <Conf_Id>
44

> <Delta U+W>
-1.440

> <U+W>
-53.185

> <U>
6.572

> <W>
-59.757

> <W(PB)>
-62.007

> <W(SA)>
2.249

> <Valence>
7.989

> <Coulomb>
-2.697

> <VdW>
1.281

> <VdW6>
-6.467

> <VdW12>
7.748

> <Bond>
0.136

> <Angle>
2.854

> <Pdih>
4.997

> <Idih>
0.001

> <Tether>
0.000

$$$$
VeraChem MOL file


 20 19  0  0  0  0  0  0  0  0999 V2000     
   21.3398   16.5855   20.0715 C   0  0  0  0  0  0  0  0  0  0  0  0
   20.5783   15.9832   20.5645 H   0  0  0  0  0  0  0  0  0  0  0  0
   22.1513   16.0574   19.5736 H   0  0  0  0  0  0  0  0  0  0  0  0
   21.2858   17.9199   20.0772 C   0  0  0  0  0  0  0  0  0  0  0  0
   22.0586   18.5041   19.5781 H   0  0  0  0  0  0  0  0  0  0  0  0
   20.1908   18.7213   20.7455 C   0  0  0  0  0  0  0  0  0  0  0  0
   19.3384   18.0689   20.9746 H   0  0  0  0  0  0  0  0  0  0  0  0
   19.8245   19.4905   20.0526 H   0  0  0  0  0  0  0  0  0  0  0  0
   20.7044   19.3916   22.0396 C   0  0  0  0  0  0  0  0  0  0  0  0
   21.0200   18.6185   22.7537 H   0  0  0  0  0  0  0  0  0  0  0  0
   21.6018   19.9798   21.8033 H   0  0  0  0  0  0  0  0  0  0  0  0
   19.6654   20.3243   22.7065 C   0  0  0  0  0  0  0  0  0  0  0  0
   19.3561   21.1039   21.9966 H   0  0  0  0  0  0  0  0  0  0  0  0
   20.1468   20.8437   23.5468 H   0  0  0  0  0  0  0  0  0  0  0  0
   18.4126   19.5782   23.2347 C   0  0  0  0  0  0  0  0  0  0  0  0
   17.8560   19.1233   22.4077 H   0  0  0  0  0  0  0  0  0  0  0  0
   18.7115   18.7684   23.9109 H   0  0  0  0  0  0  0  0  0  0  0  0
   17.4555   20.4946   23.9884 C   0  0  0  0  0  0  0  0  0  0  0  0
   17.6100   20.6246   25.1867 O   0  5  0  0  0  0  0  0  0  0  0  0
   16.5930   21.0698   23.3544 O   0  0  0  0  0  0  0  0  0  0  0  0
  1  2  1  0  0  0  0
  1  3  1  0  0  0  0
  1  4  2  0  0  0  0
  4  5  1  0  0  0  0
  4  6  1  0  0  0  0
  6  7  1  0  0  0  0
  6  8  1  0  0  0  0
  6  9  1  0  0  0  0
  9 10  1  0  0  0  0
  9 11  1  0  0  0  0
  9 12  1  0  0  0  0
 12 13  1  0  0  0  0
 12 14  1  0  0  0  0
 12 15  1  0  0  0  0
 15 16  1  0  0  0  0
 15 17  1  0  0  0  0
 15 18  1  0  0  0  0
 18 19  1  0  0  0  0
 18 20  2  0  0  0  0
M  END
> <VConfSearch Rank>
464

> <Conf_Id>
38

> <Delta U+W>
-0.381

> <U+W>
-52.126

> <U>
7.601

> <W>
-59.727

> <W(PB)>
-61.964

> <W(SA)>
2.236

> <Valence>
9.602

> <Coulomb>
-2.686

> <VdW>
0.685

> <VdW6>
-6.453

> <VdW12>
7.139

> <Bond>
0.125

> <Angle>
2.485

> <Pdih>
6.991

> <Idih>
0.001

> <Tether>
0.000

$$$$
VeraChem MOL file


 20 19  0  0  0  0  0  0  0  0999 V2000     
   18.0025   21.3405   24.3453 C   0  0  0  0  0  0  0  0  0  0  0  0
   18.9089   21.5543   24.9096 H   0  0  0  0  0  0  0  0  0  0  0  0
   17.1785   22.0463   24.4351 H   0  0  0  0  0  0  0  0  0  0  0  0
   17.9022   20.2574   23.5704 C   0  0  0  0  0  0  0  0  0  0  0  0
   16.9863   20.0623   23.0130 H   0  0  0  0  0  0  0  0  0  0  0  0
   19.0025   19.2341   23.3971 C   0  0  0  0  0  0  0  0  0  0  0  0
   18.5895   18.2250   23.5281 H   0  0  0  0  0  0  0  0  0  0  0  0
   19.7693   19.3652   24.1727 H   0  0  0  0  0  0  0  0  0  0  0  0
   19.6553   19.3487   22.0036 C   0  0  0  0  0  0  0  0  0  0  0  0
   18.8867   19.2149   21.2298 H   0  0  0  0  0  0  0  0  0  0  0  0
   20.0629   20.3608   21.8745 H   0  0  0  0  0  0  0  0  0  0  0  0
   20.7805   18.3074   21.8088 C   0  0  0  0  0  0  0  0  0  0  0  0
   20.3740   17.2933   21.9269 H   0  0  0  0  0  0  0  0  0  0  0  0
   21.5358   18.4388   22.5955 H   0  0  0  0  0  0  0  0  0  0  0  0
   21.4699   18.4263   20.4248 C   0  0  0  0  0  0  0  0  0  0  0  0
   21.8569   19.4423   20.2802 H   0  0  0  0  0  0  0  0  0  0  0  0
   22.3316   17.7497   20.3851 H   0  0  0  0  0  0  0  0  0  0  0  0
   20.5623   18.0788   19.2481 C   0  0  0  0  0  0  0  0  0  0  0  0
   20.1303   18.9871   18.5660 O   0  5  0  0  0  0  0  0  0  0  0  0
   20.3206   16.9062   19.0387 O   0  0  0  0  0  0  0  0  0  0  0  0
  1  2  1  0  0  0  0
  1  3  1  0  0  0  0
  1  4  2  0  0  0  0
  4  5  1  0  0  0  0
  4  6  1  0  0  0  0
  6  7  1  0  0  0  0
  6  8  1  0  0  0  0
  6  9  1  0  0  0  0
  9 10  1  0  0  0  0
  9 11  1  0  0  0  0
  9 12  1  0  0  0  0
 12 13  1  0  0  0  0
 12 14  1  0  0  0  0
 12 15  1  0  0  0  0
 15 16  1  0  0  0  0
 15 17  1  0  0  0  0
 15 18  1  0  0  0  0
 18 19  1  0  0  0  0
 18 20  2  0  0  0  0
M  END
> <VConfSearch Rank>
465

> <Conf_Id>
58

> <Delta U+W>
0.019

> <U+W>
-51.727

> <U>
8.963

> <W>
-60.690

> <W(PB)>
-62.934

> <W(SA)>
2.244

> <Valence>
9.327

> <Coulomb>
-0.780

> <VdW>
0.417

> <VdW6>
-6.635

> <VdW12>
7.052

> <Bond>
0.105

> <Angle>
2.399

> <Pdih>
6.822

> <Idih>
0.000

> <Tether>
0.000

$$$$
VeraChem MOL file


 20 19  0  0  0  0  0  0  0  0999 V2000     
   19.0416   16.6778   19.6634 C   0  0  0  0  0  0  0  0  0  0  0  0
   19.4918   15.9016   20.2802 H   0  0  0  0  0  0  0  0  0  0  0  0
   18.9517   16.4806   18.5965 H   0  0  0  0  0  0  0  0  0  0  0  0
   18.6172   17.8292   20.1904 C   0  0  0  0  0  0  0  0  0  0  0  0
   18.1702   18.5937   19.5552 H   0  0  0  0  0  0  0  0  0  0  0  0
   18.7080   18.1732   21.6605 C   0  0  0  0  0  0  0  0  0  0  0  0
   18.9246   17.2714   22.2493 H   0  0  0  0  0  0  0  0  0  0  0  0
   17.7386   18.5534   22.0094 H   0  0  0  0  0  0  0  0  0  0  0  0
   19.8014   19.2310   21.9186 C   0  0  0  0  0  0  0  0  0  0  0  0
   20.7686   18.8491   21.5640 H   0  0  0  0  0  0  0  0  0  0  0  0
   19.5812   20.1327   21.3304 H   0  0  0  0  0  0  0  0  0  0  0  0
   19.9054   19.5963   23.4166 C   0  0  0  0  0  0  0  0  0  0  0  0
   20.1099   18.6869   23.9978 H   0  0  0  0  0  0  0  0  0  0  0  0
   18.9423   19.9888   23.7719 H   0  0  0  0  0  0  0  0  0  0  0  0
   21.0201   20.6363   23.7008 C   0  0  0  0  0  0  0  0  0  0  0  0
   21.1298   20.7694   24.7835 H   0  0  0  0  0  0  0  0  0  0  0  0
   21.9839   20.2706   23.3264 H   0  0  0  0  0  0  0  0  0  0  0  0
   20.7530   22.0121   23.0967 C   0  0  0  0  0  0  0  0  0  0  0  0
   19.9335   22.7264   23.6401 O   0  5  0  0  0  0  0  0  0  0  0  0
   21.3783   22.3377   22.1068 O   0  0  0  0  0  0  0  0  0  0  0  0
  1  2  1  0  0  0  0
  1  3  1  0  0  0  0
  1  4  2  0  0  0  0
  4  5  1  0  0  0  0
  4  6  1  0  0  0  0
  6  7  1  0  0  0  0
  6  8  1  0  0  0  0
  6  9  1  0  0  0  0
  9 10  1  0  0  0  0
  9 11  1  0  0  0  0
  9 12  1  0  0  0  0
 12 13  1  0  0  0  0
 12 14  1  0  0  0  0
 12 15  1  0  0  0  0
 15 16  1  0  0  0  0
 15 17  1  0  0  0  0
 15 18  1  0  0  0  0
 18 19  1  0  0  0  0
 18 20  2  0  0  0  0
M  END
> <VConfSearch Rank>
466

> <Conf_Id>
54

> <Delta U+W>
-0.048

> <U+W>
-51.793

> <U>
8.964

> <W>
-60.756

> <W(PB)>
-63.007

> <W(SA)>
2.251

> <Valence>
9.327

> <Coulomb>
-0.780

> <VdW>
0.417

> <VdW6>
-6.635

> <VdW12>
7.052

> <Bond>
0.105

> <Angle>
2.399

> <Pdih>
6.822

> <Idih>
0.000

> <Tether>
0.000

$$$$
VeraChem MOL file


 20 19  0  0  0  0  0  0  0  0999 V2000     
   18.6709   22.2358   21.4653 C   0  0  0  0  0  0  0  0  0  0  0  0
   18.9960   23.0398   20.8071 H   0  0  0  0  0  0  0  0  0  0  0  0
   17.5998   22.1171   21.6203 H   0  0  0  0  0  0  0  0  0  0  0  0
   19.5548   21.4268   22.0552 C   0  0  0  0  0  0  0  0  0  0  0  0
   20.6227   21.5653   21.8891 H   0  0  0  0  0  0  0  0  0  0  0  0
   19.1772   20.2945   22.9864 C   0  0  0  0  0  0  0  0  0  0  0  0
   18.1620   20.4564   23.3731 H   0  0  0  0  0  0  0  0  0  0  0  0
   19.8419   20.2912   23.8607 H   0  0  0  0  0  0  0  0  0  0  0  0
   19.2267   18.9164   22.2887 C   0  0  0  0  0  0  0  0  0  0  0  0
   18.8122   18.1621   22.9714 H   0  0  0  0  0  0  0  0  0  0  0  0
   18.5740   18.9307   21.4050 H   0  0  0  0  0  0  0  0  0  0  0  0
   20.6591   18.5021   21.8757 C   0  0  0  0  0  0  0  0  0  0  0  0
   21.3155   18.5019   22.7570 H   0  0  0  0  0  0  0  0  0  0  0  0
   21.0681   19.2435   21.1767 H   0  0  0  0  0  0  0  0  0  0  0  0
   20.7042   17.1062   21.2014 C   0  0  0  0  0  0  0  0  0  0  0  0
   20.0274   17.0804   20.3387 H   0  0  0  0  0  0  0  0  0  0  0  0
   21.7139   16.9169   20.8185 H   0  0  0  0  0  0  0  0  0  0  0  0
   20.3475   15.9535   22.1356 C   0  0  0  0  0  0  0  0  0  0  0  0
   19.2534   15.4367   22.0210 O   0  5  0  0  0  0  0  0  0  0  0  0
   21.1788   15.5958   22.9467 O   0  0  0  0  0  0  0  0  0  0  0  0
  1  2  1  0  0  0  0
  1  3  1  0  0  0  0
  1  4  2  0  0  0  0
  4  5  1  0  0  0  0
  4  6  1  0  0  0  0
  6  7  1  0  0  0  0
  6  8  1  0  0  0  0
  6  9  1  0  0  0  0
  9 10  1  0  0  0  0
  9 11  1  0  0  0  0
  9 12  1  0  0  0  0
 12 13  1  0  0  0  0
 12 14  1  0  0  0  0
 12 15  1  0  0  0  0
 15 16  1  0  0  0  0
 15 17  1  0  0  0  0
 15 18  1  0  0  0  0
 18 19  1  0  0  0  0
 18 20  2  0  0  0  0
M  END
> <VConfSearch Rank>
467

> <Conf_Id>
27

> <Delta U+W>
0.478

> <U+W>
-51.267

> <U>
9.192

> <W>
-60.459

> <W(PB)>
-62.649

> <W(SA)>
2.190

> <Valence>
9.572

> <Coulomb>
-0.884

> <VdW>
0.504

> <VdW6>
-7.168

> <VdW12>
7.672

> <Bond>
0.127

> <Angle>
2.504

> <Pdih>
6.941

> <Idih>
0.001

> <Tether>
0.000

$$$$
VeraChem MOL file


 20 19  0  0  0  0  0  0  0  0999 V2000     
   19.7406   18.2932   18.6191 C   0  0  0  0  0  0  0  0  0  0  0  0
   18.9580   17.5690   18.3986 H   0  0  0  0  0  0  0  0  0  0  0  0
   20.6072   18.3107   17.9604 H   0  0  0  0  0  0  0  0  0  0  0  0
   19.6464   19.1272   19.6579 C   0  0  0  0  0  0  0  0  0  0  0  0
   20.4398   19.8465   19.8587 H   0  0  0  0  0  0  0  0  0  0  0  0
   18.4708   19.1644   20.6110 C   0  0  0  0  0  0  0  0  0  0  0  0
   17.5992   18.6873   20.1427 H   0  0  0  0  0  0  0  0  0  0  0  0
   18.1820   20.2054   20.8084 H   0  0  0  0  0  0  0  0  0  0  0  0
   18.7720   18.4448   21.9449 C   0  0  0  0  0  0  0  0  0  0  0  0
   17.8465   18.3907   22.5343 H   0  0  0  0  0  0  0  0  0  0  0  0
   19.0754   17.4088   21.7401 H   0  0  0  0  0  0  0  0  0  0  0  0
   19.8632   19.1553   22.7782 C   0  0  0  0  0  0  0  0  0  0  0  0
   19.5702   20.1986   22.9601 H   0  0  0  0  0  0  0  0  0  0  0  0
   20.8066   19.1819   22.2161 H   0  0  0  0  0  0  0  0  0  0  0  0
   20.1032   18.4476   24.1346 C   0  0  0  0  0  0  0  0  0  0  0  0
   19.1761   18.4250   24.7197 H   0  0  0  0  0  0  0  0  0  0  0  0
   20.4085   17.4073   23.9697 H   0  0  0  0  0  0  0  0  0  0  0  0
   21.1770   19.1288   24.9755 C   0  0  0  0  0  0  0  0  0  0  0  0
   22.3290   18.7678   24.8372 O   0  5  0  0  0  0  0  0  0  0  0  0
   20.8352   20.0147   25.7339 O   0  0  0  0  0  0  0  0  0  0  0  0
  1  2  1  0  0  0  0
  1  3  1  0  0  0  0
  1  4  2  0  0  0  0
  4  5  1  0  0  0  0
  4  6  1  0  0  0  0
  6  7  1  0  0  0  0
  6  8  1  0  0  0  0
  6  9  1  0  0  0  0
  9 10  1  0  0  0  0
  9 11  1  0  0  0  0
  9 12  1  0  0  0  0
 12 13  1  0  0  0  0
 12 14  1  0  0  0  0
 12 15  1  0  0  0  0
 15 16  1  0  0  0  0
 15 17  1  0  0  0  0
 15 18  1  0  0  0  0
 18 19  1  0  0  0  0
 18 20  2  0  0  0  0
M  END
> <VConfSearch Rank>
468

> <Conf_Id>
41

> <Delta U+W>
-0.634

> <U+W>
-52.379

> <U>
7.828

> <W>
-60.207

> <W(PB)>
-62.449

> <W(SA)>
2.242

> <Valence>
9.300

> <Coulomb>
-2.080

> <VdW>
0.608

> <VdW6>
-6.341

> <VdW12>
6.949

> <Bond>
0.103

> <Angle>
2.334

> <Pdih>
6.862

> <Idih>
0.001

> <Tether>
0.000

$$$$
VeraChem MOL file


 20 19  0  0  0  0  0  0  0  0999 V2000     
   16.5761   18.1851   21.8987 C   0  0  0  0  0  0  0  0  0  0  0  0
   15.5933   18.5370   21.5899 H   0  0  0  0  0  0  0  0  0  0  0  0
   16.7023   17.1131   22.0418 H   0  0  0  0  0  0  0  0  0  0  0  0
   17.5856   19.0382   22.0912 C   0  0  0  0  0  0  0  0  0  0  0  0
   17.4389   20.1077   21.9420 H   0  0  0  0  0  0  0  0  0  0  0  0
   18.9756   18.6244   22.5205 C   0  0  0  0  0  0  0  0  0  0  0  0
   18.9669   17.5908   22.8921 H   0  0  0  0  0  0  0  0  0  0  0  0
   19.2986   19.2609   23.3544 H   0  0  0  0  0  0  0  0  0  0  0  0
   19.9763   18.7435   21.3494 C   0  0  0  0  0  0  0  0  0  0  0  0
   19.5856   18.1807   20.4905 H   0  0  0  0  0  0  0  0  0  0  0  0
   20.0415   19.7919   21.0271 H   0  0  0  0  0  0  0  0  0  0  0  0
   21.3901   18.2090   21.6868 C   0  0  0  0  0  0  0  0  0  0  0  0
   22.0121   18.2590   20.7824 H   0  0  0  0  0  0  0  0  0  0  0  0
   21.3206   17.1459   21.9538 H   0  0  0  0  0  0  0  0  0  0  0  0
   22.1104   18.9750   22.8299 C   0  0  0  0  0  0  0  0  0  0  0  0
   21.5532   18.8828   23.7691 H   0  0  0  0  0  0  0  0  0  0  0  0
   23.0930   18.5225   23.0069 H   0  0  0  0  0  0  0  0  0  0  0  0
   22.3384   20.4559   22.5404 C   0  0  0  0  0  0  0  0  0  0  0  0
   23.1808   20.7550   21.7168 O   0  5  0  0  0  0  0  0  0  0  0  0
   21.6819   21.2713   23.1577 O   0  0  0  0  0  0  0  0  0  0  0  0
  1  2  1  0  0  0  0
  1  3  1  0  0  0  0
  1  4  2  0  0  0  0
  4  5  1  0  0  0  0
  4  6  1  0  0  0  0
  6  7  1  0  0  0  0
  6  8  1  0  0  0  0
  6  9  1  0  0  0  0
  9 10  1  0  0  0  0
  9 11  1  0  0  0  0
  9 12  1  0  0  0  0
 12 13  1  0  0  0  0
 12 14  1  0  0  0  0
 12 15  1  0  0  0  0
 15 16  1  0  0  0  0
 15 17  1  0  0  0  0
 15 18  1  0  0  0  0
 18 19  1  0  0  0  0
 18 20  2  0  0  0  0
M  END
> <VConfSearch Rank>
469

> <Conf_Id>
84

> <Delta U+W>
0.942

> <U+W>
-50.803

> <U>
10.196

> <W>
-60.999

> <W(PB)>
-63.182

> <W(SA)>
2.182

> <Valence>
9.837

> <Coulomb>
0.032

> <VdW>
0.328

> <VdW6>
-7.642

> <VdW12>
7.969

> <Bond>
0.151

> <Angle>
2.748

> <Pdih>
6.937

> <Idih>
0.001

> <Tether>
0.000

$$$$
VeraChem MOL file


 20 19  0  0  0  0  0  0  0  0999 V2000     
   18.7867   22.3461   23.3610 C   0  0  0  0  0  0  0  0  0  0  0  0
   18.9351   23.0568   24.1723 H   0  0  0  0  0  0  0  0  0  0  0  0
   18.8259   22.7319   22.3436 H   0  0  0  0  0  0  0  0  0  0  0  0
   18.5679   21.0521   23.6085 C   0  0  0  0  0  0  0  0  0  0  0  0
   18.5333   20.6861   24.6344 H   0  0  0  0  0  0  0  0  0  0  0  0
   18.3525   20.0083   22.5352 C   0  0  0  0  0  0  0  0  0  0  0  0
   18.1477   20.4917   21.5703 H   0  0  0  0  0  0  0  0  0  0  0  0
   17.4678   19.4059   22.7812 H   0  0  0  0  0  0  0  0  0  0  0  0
   19.5836   19.0882   22.3975 C   0  0  0  0  0  0  0  0  0  0  0  0
   20.4659   19.6980   22.1578 H   0  0  0  0  0  0  0  0  0  0  0  0
   19.7866   18.6013   23.3612 H   0  0  0  0  0  0  0  0  0  0  0  0
   19.3781   18.0131   21.3065 C   0  0  0  0  0  0  0  0  0  0  0  0
   19.1888   18.4970   20.3381 H   0  0  0  0  0  0  0  0  0  0  0  0
   18.4837   17.4216   21.5445 H   0  0  0  0  0  0  0  0  0  0  0  0
   20.5926   17.0578   21.1744 C   0  0  0  0  0  0  0  0  0  0  0  0
   20.8113   16.5871   22.1405 H   0  0  0  0  0  0  0  0  0  0  0  0
   20.3485   16.2493   20.4753 H   0  0  0  0  0  0  0  0  0  0  0  0
   21.8615   17.7347   20.6639 C   0  0  0  0  0  0  0  0  0  0  0  0
   22.7523   17.9623   21.4585 O   0  5  0  0  0  0  0  0  0  0  0  0
   21.9299   18.0044   19.4808 O   0  0  0  0  0  0  0  0  0  0  0  0
  1  2  1  0  0  0  0
  1  3  1  0  0  0  0
  1  4  2  0  0  0  0
  4  5  1  0  0  0  0
  4  6  1  0  0  0  0
  6  7  1  0  0  0  0
  6  8  1  0  0  0  0
  6  9  1  0  0  0  0
  9 10  1  0  0  0  0
  9 11  1  0  0  0  0
  9 12  1  0  0  0  0
 12 13  1  0  0  0  0
 12 14  1  0  0  0  0
 12 15  1  0  0  0  0
 15 16  1  0  0  0  0
 15 17  1  0  0  0  0
 15 18  1  0  0  0  0
 18 19  1  0  0  0  0
 18 20  2  0  0  0  0
M  END
> <VConfSearch Rank>
470

> <Conf_Id>
81

> <Delta U+W>
-0.051

> <U+W>
-51.796

> <U>
9.412

> <W>
-61.209

> <W(PB)>
-63.452

> <W(SA)>
2.243

> <Valence>
9.329

> <Coulomb>
-0.323

> <VdW>
0.406

> <VdW6>
-6.640

> <VdW12>
7.046

> <Bond>
0.105

> <Angle>
2.401

> <Pdih>
6.823

> <Idih>
0.000

> <Tether>
0.000

$$$$
VeraChem MOL file


 20 19  0  0  0  0  0  0  0  0999 V2000     
   21.5787   20.2541   19.7095 C   0  0  0  0  0  0  0  0  0  0  0  0
   21.4298   19.6399   18.8229 H   0  0  0  0  0  0  0  0  0  0  0  0
   22.0799   21.2114   19.5777 H   0  0  0  0  0  0  0  0  0  0  0  0
   21.1616   19.8535   20.9133 C   0  0  0  0  0  0  0  0  0  0  0  0
   21.3227   20.4823   21.7885 H   0  0  0  0  0  0  0  0  0  0  0  0
   20.4636   18.5357   21.1739 C   0  0  0  0  0  0  0  0  0  0  0  0
   20.8871   18.0550   22.0653 H   0  0  0  0  0  0  0  0  0  0  0  0
   20.6550   17.8446   20.3421 H   0  0  0  0  0  0  0  0  0  0  0  0
   18.9331   18.6989   21.3342 C   0  0  0  0  0  0  0  0  0  0  0  0
   18.5205   19.1004   20.3986 H   0  0  0  0  0  0  0  0  0  0  0  0
   18.4811   17.7062   21.4647 H   0  0  0  0  0  0  0  0  0  0  0  0
   18.4983   19.6165   22.5060 C   0  0  0  0  0  0  0  0  0  0  0  0
   17.4016   19.6839   22.5118 H   0  0  0  0  0  0  0  0  0  0  0  0
   18.8639   20.6365   22.3278 H   0  0  0  0  0  0  0  0  0  0  0  0
   18.9751   19.1413   23.9056 C   0  0  0  0  0  0  0  0  0  0  0  0
   20.0697   19.1351   23.9592 H   0  0  0  0  0  0  0  0  0  0  0  0
   18.6314   19.8514   24.6666 H   0  0  0  0  0  0  0  0  0  0  0  0
   18.4582   17.7621   24.3045 C   0  0  0  0  0  0  0  0  0  0  0  0
   19.2452   16.8362   24.3282 O   0  5  0  0  0  0  0  0  0  0  0  0
   17.2837   17.6540   24.5984 O   0  0  0  0  0  0  0  0  0  0  0  0
  1  2  1  0  0  0  0
  1  3  1  0  0  0  0
  1  4  2  0  0  0  0
  4  5  1  0  0  0  0
  4  6  1  0  0  0  0
  6  7  1  0  0  0  0
  6  8  1  0  0  0  0
  6  9  1  0  0  0  0
  9 10  1  0  0  0  0
  9 11  1  0  0  0  0
  9 12  1  0  0  0  0
 12 13  1  0  0  0  0
 12 14  1  0  0  0  0
 12 15  1  0  0  0  0
 15 16  1  0  0  0  0
 15 17  1  0  0  0  0
 15 18  1  0  0  0  0
 18 19  1  0  0  0  0
 18 20  2  0  0  0  0
M  END
> <VConfSearch Rank>
471

> <Conf_Id>
86

> <Delta U+W>
1.248

> <U+W>
-50.498

> <U>
10.404

> <W>
-60.901

> <W(PB)>
-63.061

> <W(SA)>
2.159

> <Valence>
10.021

> <Coulomb>
0.094

> <VdW>
0.289

> <VdW6>
-8.409

> <VdW12>
8.698

> <Bond>
0.179

> <Angle>
2.939

> <Pdih>
6.902

> <Idih>
0.001

> <Tether>
0.000

$$$$
VeraChem MOL file


 20 19  0  0  0  0  0  0  0  0999 V2000     
   18.3998   20.5683   19.6680 C   0  0  0  0  0  0  0  0  0  0  0  0
   17.3890   20.7632   19.3137 H   0  0  0  0  0  0  0  0  0  0  0  0
   19.0287   21.4294   19.8876 H   0  0  0  0  0  0  0  0  0  0  0  0
   18.8461   19.3197   19.8290 C   0  0  0  0  0  0  0  0  0  0  0  0
   18.1996   18.4714   19.6055 H   0  0  0  0  0  0  0  0  0  0  0  0
   20.2361   18.9708   20.3170 C   0  0  0  0  0  0  0  0  0  0  0  0
   20.8788   19.8616   20.3237 H   0  0  0  0  0  0  0  0  0  0  0  0
   20.6954   18.2628   19.6145 H   0  0  0  0  0  0  0  0  0  0  0  0
   20.2209   18.3355   21.7257 C   0  0  0  0  0  0  0  0  0  0  0  0
   19.5752   17.4467   21.7209 H   0  0  0  0  0  0  0  0  0  0  0  0
   21.2342   17.9846   21.9650 H   0  0  0  0  0  0  0  0  0  0  0  0
   19.7475   19.3213   22.8200 C   0  0  0  0  0  0  0  0  0  0  0  0
   18.7320   19.6676   22.5857 H   0  0  0  0  0  0  0  0  0  0  0  0
   20.3913   20.2118   22.8220 H   0  0  0  0  0  0  0  0  0  0  0  0
   19.7442   18.6856   24.2346 C   0  0  0  0  0  0  0  0  0  0  0  0
   19.2874   19.3818   24.9477 H   0  0  0  0  0  0  0  0  0  0  0  0
   19.1301   17.7770   24.2400 H   0  0  0  0  0  0  0  0  0  0  0  0
   21.1333   18.3383   24.7622 C   0  0  0  0  0  0  0  0  0  0  0  0
   21.8341   19.2440   25.1694 O   0  5  0  0  0  0  0  0  0  0  0  0
   21.4740   17.1717   24.7631 O   0  0  0  0  0  0  0  0  0  0  0  0
  1  2  1  0  0  0  0
  1  3  1  0  0  0  0
  1  4  2  0  0  0  0
  4  5  1  0  0  0  0
  4  6  1  0  0  0  0
  6  7  1  0  0  0  0
  6  8  1  0  0  0  0
  6  9  1  0  0  0  0
  9 10  1  0  0  0  0
  9 11  1  0  0  0  0
  9 12  1  0  0  0  0
 12 13  1  0  0  0  0
 12 14  1  0  0  0  0
 12 15  1  0  0  0  0
 15 16  1  0  0  0  0
 15 17  1  0  0  0  0
 15 18  1  0  0  0  0
 18 19  1  0  0  0  0
 18 20  2  0  0  0  0
M  END
> <VConfSearch Rank>
472

> <Conf_Id>
28

> <Delta U+W>
0.446

> <U+W>
-51.299

> <U>
9.295

> <W>
-60.594

> <W(PB)>
-62.806

> <W(SA)>
2.212

> <Valence>
9.495

> <Coulomb>
-0.610

> <VdW>
0.409

> <VdW6>
-7.332

> <VdW12>
7.741

> <Bond>
0.126

> <Angle>
2.497

> <Pdih>
6.872

> <Idih>
0.000

> <Tether>
0.000

$$$$
VeraChem MOL file


 20 19  0  0  0  0  0  0  0  0999 V2000     
   21.7869   17.9659   20.0917 C   0  0  0  0  0  0  0  0  0  0  0  0
   20.7863   17.9025   19.6695 H   0  0  0  0  0  0  0  0  0  0  0  0
   22.6135   17.6862   19.4407 H   0  0  0  0  0  0  0  0  0  0  0  0
   22.0123   18.3696   21.3472 C   0  0  0  0  0  0  0  0  0  0  0  0
   23.0378   18.4147   21.7130 H   0  0  0  0  0  0  0  0  0  0  0  0
   20.9681   18.7879   22.3690 C   0  0  0  0  0  0  0  0  0  0  0  0
   21.1507   19.8353   22.6416 H   0  0  0  0  0  0  0  0  0  0  0  0
   21.1239   18.2075   23.2880 H   0  0  0  0  0  0  0  0  0  0  0  0
   19.4991   18.6176   21.9089 C   0  0  0  0  0  0  0  0  0  0  0  0
   19.3069   19.2635   21.0411 H   0  0  0  0  0  0  0  0  0  0  0  0
   19.3476   17.5834   21.5711 H   0  0  0  0  0  0  0  0  0  0  0  0
   18.4646   18.9195   23.0215 C   0  0  0  0  0  0  0  0  0  0  0  0
   18.6311   18.2364   23.8654 H   0  0  0  0  0  0  0  0  0  0  0  0
   17.4593   18.6953   22.6388 H   0  0  0  0  0  0  0  0  0  0  0  0
   18.4844   20.3835   23.5400 C   0  0  0  0  0  0  0  0  0  0  0  0
   17.7311   20.4990   24.3280 H   0  0  0  0  0  0  0  0  0  0  0  0
   19.4511   20.6191   23.9991 H   0  0  0  0  0  0  0  0  0  0  0  0
   18.1834   21.4287   22.4695 C   0  0  0  0  0  0  0  0  0  0  0  0
   17.0480   21.4994   22.0415 O   0  5  0  0  0  0  0  0  0  0  0  0
   19.0854   22.1580   22.1071 O   0  0  0  0  0  0  0  0  0  0  0  0
  1  2  1  0  0  0  0
  1  3  1  0  0  0  0
  1  4  2  0  0  0  0
  4  5  1  0  0  0  0
  4  6  1  0  0  0  0
  6  7  1  0  0  0  0
  6  8  1  0  0  0  0
  6  9  1  0  0  0  0
  9 10  1  0  0  0  0
  9 11  1  0  0  0  0
  9 12  1  0  0  0  0
 12 13  1  0  0  0  0
 12 14  1  0  0  0  0
 12 15  1  0  0  0  0
 15 16  1  0  0  0  0
 15 17  1  0  0  0  0
 15 18  1  0  0  0  0
 18 19  1  0  0  0  0
 18 20  2  0  0  0  0
M  END
> <VConfSearch Rank>
473

> <Conf_Id>
53

> <Delta U+W>
0.549

> <U+W>
-51.197

> <U>
10.870

> <W>
-62.067

> <W(PB)>
-64.228

> <W(SA)>
2.161

> <Valence>
8.803

> <Coulomb>
1.020

> <VdW>
1.048

> <VdW6>
-8.312

> <VdW12>
9.360

> <Bond>
0.212

> <Angle>
3.379

> <Pdih>
5.211

> <Idih>
0.001

> <Tether>
0.000

$$$$
VeraChem MOL file


 20 19  0  0  0  0  0  0  0  0999 V2000     
   19.9858   21.2473   20.5835 C   0  0  0  0  0  0  0  0  0  0  0  0
   19.0899   21.4829   21.1537 H   0  0  0  0  0  0  0  0  0  0  0  0
   20.0947   21.7281   19.6131 H   0  0  0  0  0  0  0  0  0  0  0  0
   20.9232   20.4115   21.0435 C   0  0  0  0  0  0  0  0  0  0  0  0
   21.8036   20.2119   20.4332 H   0  0  0  0  0  0  0  0  0  0  0  0
   20.8983   19.6702   22.3700 C   0  0  0  0  0  0  0  0  0  0  0  0
   21.5154   20.2205   23.0923 H   0  0  0  0  0  0  0  0  0  0  0  0
   21.4052   18.7043   22.2488 H   0  0  0  0  0  0  0  0  0  0  0  0
   19.4945   19.4239   22.9819 C   0  0  0  0  0  0  0  0  0  0  0  0
   19.6201   18.9502   23.9651 H   0  0  0  0  0  0  0  0  0  0  0  0
   19.0083   20.3882   23.1797 H   0  0  0  0  0  0  0  0  0  0  0  0
   18.5541   18.5432   22.1177 C   0  0  0  0  0  0  0  0  0  0  0  0
   18.3606   19.0403   21.1585 H   0  0  0  0  0  0  0  0  0  0  0  0
   17.5814   18.4671   22.6227 H   0  0  0  0  0  0  0  0  0  0  0  0
   19.0853   17.1096   21.8439 C   0  0  0  0  0  0  0  0  0  0  0  0
   18.3609   16.5666   21.2259 H   0  0  0  0  0  0  0  0  0  0  0  0
   20.0167   17.1470   21.2677 H   0  0  0  0  0  0  0  0  0  0  0  0
   19.3206   16.2800   23.1028 C   0  0  0  0  0  0  0  0  0  0  0  0
   20.4667   16.0504   23.4360 O   0  5  0  0  0  0  0  0  0  0  0  0
   18.3495   15.8696   23.7077 O   0  0  0  0  0  0  0  0  0  0  0  0
  1  2  1  0  0  0  0
  1  3  1  0  0  0  0
  1  4  2  0  0  0  0
  4  5  1  0  0  0  0
  4  6  1  0  0  0  0
  6  7  1  0  0  0  0
  6  8  1  0  0  0  0
  6  9  1  0  0  0  0
  9 10  1  0  0  0  0
  9 11  1  0  0  0  0
  9 12  1  0  0  0  0
 12 13  1  0  0  0  0
 12 14  1  0  0  0  0
 12 15  1  0  0  0  0
 15 16  1  0  0  0  0
 15 17  1  0  0  0  0
 15 18  1  0  0  0  0
 18 19  1  0  0  0  0
 18 20  2  0  0  0  0
M  END
> <VConfSearch Rank>
474

> <Conf_Id>
66

> <Delta U+W>
1.737

> <U+W>
-50.008

> <U>
11.091

> <W>
-61.099

> <W(PB)>
-63.213

> <W(SA)>
2.114

> <Valence>
9.664

> <Coulomb>
0.658

> <VdW>
0.769

> <VdW6>
-9.171

> <VdW12>
9.940

> <Bond>
0.244

> <Angle>
3.658

> <Pdih>
5.762

> <Idih>
0.001

> <Tether>
0.000

$$$$
VeraChem MOL file


 20 19  0  0  0  0  0  0  0  0999 V2000     
   17.3376   19.6064   23.4138 C   0  0  0  0  0  0  0  0  0  0  0  0
   17.3021   20.3778   22.6478 H   0  0  0  0  0  0  0  0  0  0  0  0
   16.3849   19.2043   23.7539 H   0  0  0  0  0  0  0  0  0  0  0  0
   18.4904   19.1652   23.9289 C   0  0  0  0  0  0  0  0  0  0  0  0
   18.4676   18.3921   24.6964 H   0  0  0  0  0  0  0  0  0  0  0  0
   19.8872   19.6284   23.5482 C   0  0  0  0  0  0  0  0  0  0  0  0
   20.5752   18.7767   23.6186 H   0  0  0  0  0  0  0  0  0  0  0  0
   20.2402   20.3375   24.3086 H   0  0  0  0  0  0  0  0  0  0  0  0
   20.0286   20.2753   22.1454 C   0  0  0  0  0  0  0  0  0  0  0  0
   19.3857   21.1635   22.0871 H   0  0  0  0  0  0  0  0  0  0  0  0
   21.0563   20.6458   22.0310 H   0  0  0  0  0  0  0  0  0  0  0  0
   19.7072   19.3293   20.9603 C   0  0  0  0  0  0  0  0  0  0  0  0
   19.7551   19.9083   20.0278 H   0  0  0  0  0  0  0  0  0  0  0  0
   18.6767   18.9586   21.0389 H   0  0  0  0  0  0  0  0  0  0  0  0
   20.6779   18.1251   20.8477 C   0  0  0  0  0  0  0  0  0  0  0  0
   21.7162   18.4763   20.8192 H   0  0  0  0  0  0  0  0  0  0  0  0
   20.5788   17.4683   21.7193 H   0  0  0  0  0  0  0  0  0  0  0  0
   20.4304   17.2829   19.6012 C   0  0  0  0  0  0  0  0  0  0  0  0
   19.6660   16.3419   19.6853 O   0  5  0  0  0  0  0  0  0  0  0  0
   20.9981   17.5988   18.5741 O   0  0  0  0  0  0  0  0  0  0  0  0
  1  2  1  0  0  0  0
  1  3  1  0  0  0  0
  1  4  2  0  0  0  0
  4  5  1  0  0  0  0
  4  6  1  0  0  0  0
  6  7  1  0  0  0  0
  6  8  1  0  0  0  0
  6  9  1  0  0  0  0
  9 10  1  0  0  0  0
  9 11  1  0  0  0  0
  9 12  1  0  0  0  0
 12 13  1  0  0  0  0
 12 14  1  0  0  0  0
 12 15  1  0  0  0  0
 15 16  1  0  0  0  0
 15 17  1  0  0  0  0
 15 18  1  0  0  0  0
 18 19  1  0  0  0  0
 18 20  2  0  0  0  0
M  END
> <VConfSearch Rank>
475

> <Conf_Id>
64

> <Delta U+W>
0.366

> <U+W>
-51.379

> <U>
10.000

> <W>
-61.379

> <W(PB)>
-63.541

> <W(SA)>
2.162

> <Valence>
9.398

> <Coulomb>
-0.504

> <VdW>
1.105

> <VdW6>
-7.975

> <VdW12>
9.080

> <Bond>
0.216

> <Angle>
3.417

> <Pdih>
5.765

> <Idih>
0.001

> <Tether>
0.000

$$$$
VeraChem MOL file


 20 19  0  0  0  0  0  0  0  0999 V2000     
   21.7504   17.8392   20.0029 C   0  0  0  0  0  0  0  0  0  0  0  0
   21.2667   16.8882   20.2198 H   0  0  0  0  0  0  0  0  0  0  0  0
   22.8292   17.8310   19.8570 H   0  0  0  0  0  0  0  0  0  0  0  0
   21.0515   18.9746   19.9222 C   0  0  0  0  0  0  0  0  0  0  0  0
   21.5554   19.9164   19.7066 H   0  0  0  0  0  0  0  0  0  0  0  0
   19.5525   19.0647   20.1135 C   0  0  0  0  0  0  0  0  0  0  0  0
   19.1028   18.0625   20.1220 H   0  0  0  0  0  0  0  0  0  0  0  0
   19.1128   19.5940   19.2577 H   0  0  0  0  0  0  0  0  0  0  0  0
   19.1713   19.8121   21.4112 C   0  0  0  0  0  0  0  0  0  0  0  0
   19.6216   20.8142   21.4029 H   0  0  0  0  0  0  0  0  0  0  0  0
   18.0825   19.9567   21.4305 H   0  0  0  0  0  0  0  0  0  0  0  0
   19.6057   19.0533   22.6860 C   0  0  0  0  0  0  0  0  0  0  0  0
   20.6970   18.9257   22.6918 H   0  0  0  0  0  0  0  0  0  0  0  0
   19.1681   18.0454   22.6839 H   0  0  0  0  0  0  0  0  0  0  0  0
   19.1743   19.7964   23.9743 C   0  0  0  0  0  0  0  0  0  0  0  0
   19.6140   20.8008   23.9968 H   0  0  0  0  0  0  0  0  0  0  0  0
   18.0847   19.9186   23.9945 H   0  0  0  0  0  0  0  0  0  0  0  0
   19.5921   19.0672   25.2462 C   0  0  0  0  0  0  0  0  0  0  0  0
   18.8344   18.2355   25.7056 O   0  5  0  0  0  0  0  0  0  0  0  0
   20.6700   19.3399   25.7364 O   0  0  0  0  0  0  0  0  0  0  0  0
  1  2  1  0  0  0  0
  1  3  1  0  0  0  0
  1  4  2  0  0  0  0
  4  5  1  0  0  0  0
  4  6  1  0  0  0  0
  6  7  1  0  0  0  0
  6  8  1  0  0  0  0
  6  9  1  0  0  0  0
  9 10  1  0  0  0  0
  9 11  1  0  0  0  0
  9 12  1  0  0  0  0
 12 13  1  0  0  0  0
 12 14  1  0  0  0  0
 12 15  1  0  0  0  0
 15 16  1  0  0  0  0
 15 17  1  0  0  0  0
 15 18  1  0  0  0  0
 18 19  1  0  0  0  0
 18 20  2  0  0  0  0
M  END
> <VConfSearch Rank>
476

> <Conf_Id>
42

> <Delta U+W>
-0.601

> <U+W>
-52.347

> <U>
8.428

> <W>
-60.774

> <W(PB)>
-62.982

> <W(SA)>
2.208

> <Valence>
9.231

> <Coulomb>
-1.304

> <VdW>
0.501

> <VdW6>
-6.515

> <VdW12>
7.016

> <Bond>
0.103

> <Angle>
2.328

> <Pdih>
6.799

> <Idih>
0.000

> <Tether>
0.000

$$$$
VeraChem MOL file


 20 19  0  0  0  0  0  0  0  0999 V2000     
   22.4580   20.2635   22.6255 C   0  0  0  0  0  0  0  0  0  0  0  0
   22.9077   19.7183   21.7974 H   0  0  0  0  0  0  0  0  0  0  0  0
   23.0379   20.3493   23.5429 H   0  0  0  0  0  0  0  0  0  0  0  0
   21.2408   20.8043   22.5253 C   0  0  0  0  0  0  0  0  0  0  0  0
   20.8075   21.3437   23.3671 H   0  0  0  0  0  0  0  0  0  0  0  0
   20.3758   20.7254   21.2854 C   0  0  0  0  0  0  0  0  0  0  0  0
   20.9548   20.3440   20.4334 H   0  0  0  0  0  0  0  0  0  0  0  0
   20.0498   21.7372   21.0102 H   0  0  0  0  0  0  0  0  0  0  0  0
   19.1269   19.8405   21.4983 C   0  0  0  0  0  0  0  0  0  0  0  0
   18.5457   20.2278   22.3466 H   0  0  0  0  0  0  0  0  0  0  0  0
   18.4801   19.9197   20.6139 H   0  0  0  0  0  0  0  0  0  0  0  0
   19.4824   18.3539   21.7368 C   0  0  0  0  0  0  0  0  0  0  0  0
   20.0952   18.2553   22.6435 H   0  0  0  0  0  0  0  0  0  0  0  0
   20.0953   17.9900   20.9012 H   0  0  0  0  0  0  0  0  0  0  0  0
   18.2260   17.4547   21.8700 C   0  0  0  0  0  0  0  0  0  0  0  0
   17.5895   17.5585   20.9829 H   0  0  0  0  0  0  0  0  0  0  0  0
   18.5320   16.4031   21.9199 H   0  0  0  0  0  0  0  0  0  0  0  0
   17.3846   17.7453   23.1095 C   0  0  0  0  0  0  0  0  0  0  0  0
   16.3548   18.3759   22.9715 O   0  5  0  0  0  0  0  0  0  0  0  0
   17.7730   17.3170   24.1785 O   0  0  0  0  0  0  0  0  0  0  0  0
  1  2  1  0  0  0  0
  1  3  1  0  0  0  0
  1  4  2  0  0  0  0
  4  5  1  0  0  0  0
  4  6  1  0  0  0  0
  6  7  1  0  0  0  0
  6  8  1  0  0  0  0
  6  9  1  0  0  0  0
  9 10  1  0  0  0  0
  9 11  1  0  0  0  0
  9 12  1  0  0  0  0
 12 13  1  0  0  0  0
 12 14  1  0  0  0  0
 12 15  1  0  0  0  0
 15 16  1  0  0  0  0
 15 17  1  0  0  0  0
 15 18  1  0  0  0  0
 18 19  1  0  0  0  0
 18 20  2  0  0  0  0
M  END
> <VConfSearch Rank>
477

> <Conf_Id>
68

> <Delta U+W>
0.492

> <U+W>
-51.253

> <U>
10.179

> <W>
-61.432

> <W(PB)>
-63.627

> <W(SA)>
2.195

> <Valence>
9.483

> <Coulomb>
0.361

> <VdW>
0.335

> <VdW6>
-7.385

> <VdW12>
7.720

> <Bond>
0.125

> <Angle>
2.487

> <Pdih>
6.870

> <Idih>
0.001

> <Tether>
0.000

$$$$
VeraChem MOL file


 20 19  0  0  0  0  0  0  0  0999 V2000     
   20.9775   18.1931   19.3784 C   0  0  0  0  0  0  0  0  0  0  0  0
   21.9334   18.7141   19.3580 H   0  0  0  0  0  0  0  0  0  0  0  0
   20.5062   17.9731   18.4221 H   0  0  0  0  0  0  0  0  0  0  0  0
   20.4006   17.8392   20.5298 C   0  0  0  0  0  0  0  0  0  0  0  0
   19.4448   17.3160   20.5273 H   0  0  0  0  0  0  0  0  0  0  0  0
   20.9986   18.1061   21.8947 C   0  0  0  0  0  0  0  0  0  0  0  0
   22.0743   18.3052   21.7954 H   0  0  0  0  0  0  0  0  0  0  0  0
   20.9087   17.2107   22.5240 H   0  0  0  0  0  0  0  0  0  0  0  0
   20.3357   19.3096   22.6020 C   0  0  0  0  0  0  0  0  0  0  0  0
   20.8950   19.5325   23.5208 H   0  0  0  0  0  0  0  0  0  0  0  0
   20.4194   20.1986   21.9615 H   0  0  0  0  0  0  0  0  0  0  0  0
   18.8523   19.0545   22.9600 C   0  0  0  0  0  0  0  0  0  0  0  0
   18.7766   18.1366   23.5584 H   0  0  0  0  0  0  0  0  0  0  0  0
   18.2680   18.8855   22.0452 H   0  0  0  0  0  0  0  0  0  0  0  0
   18.2223   20.2272   23.7554 C   0  0  0  0  0  0  0  0  0  0  0  0
   17.2138   19.9478   24.0825 H   0  0  0  0  0  0  0  0  0  0  0  0
   18.8059   20.4276   24.6620 H   0  0  0  0  0  0  0  0  0  0  0  0
   18.1015   21.5226   22.9579 C   0  0  0  0  0  0  0  0  0  0  0  0
   17.2000   21.6142   22.1480 O   0  5  0  0  0  0  0  0  0  0  0  0
   18.8988   22.4125   23.1808 O   0  0  0  0  0  0  0  0  0  0  0  0
  1  2  1  0  0  0  0
  1  3  1  0  0  0  0
  1  4  2  0  0  0  0
  4  5  1  0  0  0  0
  4  6  1  0  0  0  0
  6  7  1  0  0  0  0
  6  8  1  0  0  0  0
  6  9  1  0  0  0  0
  9 10  1  0  0  0  0
  9 11  1  0  0  0  0
  9 12  1  0  0  0  0
 12 13  1  0  0  0  0
 12 14  1  0  0  0  0
 12 15  1  0  0  0  0
 15 16  1  0  0  0  0
 15 17  1  0  0  0  0
 15 18  1  0  0  0  0
 18 19  1  0  0  0  0
 18 20  2  0  0  0  0
M  END
> <VConfSearch Rank>
478

> <Conf_Id>
87

> <Delta U+W>
0.339

> <U+W>
-51.407

> <U>
10.461

> <W>
-61.867

> <W(PB)>
-64.045

> <W(SA)>
2.178

> <Valence>
9.555

> <Coulomb>
0.483

> <VdW>
0.423

> <VdW6>
-7.223

> <VdW12>
7.646

> <Bond>
0.126

> <Angle>
2.492

> <Pdih>
6.936

> <Idih>
0.001

> <Tether>
0.000

$$$$
VeraChem MOL file


 20 19  0  0  0  0  0  0  0  0999 V2000     
   20.5363   20.4973   24.1105 C   0  0  0  0  0  0  0  0  0  0  0  0
   19.6235   20.7826   24.6308 H   0  0  0  0  0  0  0  0  0  0  0  0
   21.4198   20.3031   24.7160 H   0  0  0  0  0  0  0  0  0  0  0  0
   20.5724   20.3868   22.7800 C   0  0  0  0  0  0  0  0  0  0  0  0
   21.4978   20.1089   22.2768 H   0  0  0  0  0  0  0  0  0  0  0  0
   19.3875   20.6538   21.8765 C   0  0  0  0  0  0  0  0  0  0  0  0
   19.7270   20.8410   20.8491 H   0  0  0  0  0  0  0  0  0  0  0  0
   18.9029   21.5835   22.2041 H   0  0  0  0  0  0  0  0  0  0  0  0
   18.3320   19.5202   21.8879 C   0  0  0  0  0  0  0  0  0  0  0  0
   18.1308   19.2045   22.9208 H   0  0  0  0  0  0  0  0  0  0  0  0
   17.3875   19.9353   21.5107 H   0  0  0  0  0  0  0  0  0  0  0  0
   18.6864   18.2900   21.0149 C   0  0  0  0  0  0  0  0  0  0  0  0
   18.9004   18.6111   19.9862 H   0  0  0  0  0  0  0  0  0  0  0  0
   17.8004   17.6425   20.9565 H   0  0  0  0  0  0  0  0  0  0  0  0
   19.8715   17.4475   21.5523 C   0  0  0  0  0  0  0  0  0  0  0  0
   20.8066   18.0126   21.4862 H   0  0  0  0  0  0  0  0  0  0  0  0
   19.7128   17.1991   22.6084 H   0  0  0  0  0  0  0  0  0  0  0  0
   20.0668   16.1461   20.7829 C   0  0  0  0  0  0  0  0  0  0  0  0
   20.7799   16.1621   19.7990 O   0  5  0  0  0  0  0  0  0  0  0  0
   19.4839   15.1545   21.1754 O   0  0  0  0  0  0  0  0  0  0  0  0
  1  2  1  0  0  0  0
  1  3  1  0  0  0  0
  1  4  2  0  0  0  0
  4  5  1  0  0  0  0
  4  6  1  0  0  0  0
  6  7  1  0  0  0  0
  6  8  1  0  0  0  0
  6  9  1  0  0  0  0
  9 10  1  0  0  0  0
  9 11  1  0  0  0  0
  9 12  1  0  0  0  0
 12 13  1  0  0  0  0
 12 14  1  0  0  0  0
 12 15  1  0  0  0  0
 15 16  1  0  0  0  0
 15 17  1  0  0  0  0
 15 18  1  0  0  0  0
 18 19  1  0  0  0  0
 18 20  2  0  0  0  0
M  END
> <VConfSearch Rank>
479

> <Conf_Id>
51

> <Delta U+W>
1.709

> <U+W>
-50.036

> <U>
10.643

> <W>
-60.679

> <W(PB)>
-62.882

> <W(SA)>
2.203

> <Valence>
11.231

> <Coulomb>
-1.077

> <VdW>
0.489

> <VdW6>
-7.546

> <VdW12>
8.035

> <Bond>
0.159

> <Angle>
3.005

> <Pdih>
8.065

> <Idih>
0.002

> <Tether>
0.000

$$$$
VeraChem MOL file


 20 19  0  0  0  0  0  0  0  0999 V2000     
   18.0818   19.9207   19.7161 C   0  0  0  0  0  0  0  0  0  0  0  0
   17.5524   20.7981   20.0840 H   0  0  0  0  0  0  0  0  0  0  0  0
   17.5545   19.2715   19.0193 H   0  0  0  0  0  0  0  0  0  0  0  0
   19.3299   19.6479   20.1054 C   0  0  0  0  0  0  0  0  0  0  0  0
   19.8463   18.7699   19.7191 H   0  0  0  0  0  0  0  0  0  0  0  0
   20.1262   20.5119   21.0599 C   0  0  0  0  0  0  0  0  0  0  0  0
   20.0036   21.5623   20.7630 H   0  0  0  0  0  0  0  0  0  0  0  0
   21.1989   20.2981   20.9618 H   0  0  0  0  0  0  0  0  0  0  0  0
   19.6896   20.3660   22.5388 C   0  0  0  0  0  0  0  0  0  0  0  0
   20.0508   21.2477   23.0854 H   0  0  0  0  0  0  0  0  0  0  0  0
   18.5938   20.3947   22.6116 H   0  0  0  0  0  0  0  0  0  0  0  0
   20.2381   19.1090   23.2601 C   0  0  0  0  0  0  0  0  0  0  0  0
   20.0178   19.2037   24.3324 H   0  0  0  0  0  0  0  0  0  0  0  0
   21.3328   19.0762   23.1731 H   0  0  0  0  0  0  0  0  0  0  0  0
   19.6376   17.7719   22.7552 C   0  0  0  0  0  0  0  0  0  0  0  0
   18.5425   17.8258   22.7490 H   0  0  0  0  0  0  0  0  0  0  0  0
   19.9608   17.5678   21.7296 H   0  0  0  0  0  0  0  0  0  0  0  0
   20.0491   16.5799   23.6116 C   0  0  0  0  0  0  0  0  0  0  0  0
   21.0777   15.9976   23.3290 O   0  5  0  0  0  0  0  0  0  0  0  0
   19.3410   16.2771   24.5517 O   0  0  0  0  0  0  0  0  0  0  0  0
  1  2  1  0  0  0  0
  1  3  1  0  0  0  0
  1  4  2  0  0  0  0
  4  5  1  0  0  0  0
  4  6  1  0  0  0  0
  6  7  1  0  0  0  0
  6  8  1  0  0  0  0
  6  9  1  0  0  0  0
  9 10  1  0  0  0  0
  9 11  1  0  0  0  0
  9 12  1  0  0  0  0
 12 13  1  0  0  0  0
 12 14  1  0  0  0  0
 12 15  1  0  0  0  0
 15 16  1  0  0  0  0
 15 17  1  0  0  0  0
 15 18  1  0  0  0  0
 18 19  1  0  0  0  0
 18 20  2  0  0  0  0
M  END
> <VConfSearch Rank>
480

> <Conf_Id>
91

> <Delta U+W>
1.604

> <U+W>
-50.141

> <U>
10.644

> <W>
-60.786

> <W(PB)>
-62.965

> <W(SA)>
2.179

> <Valence>
11.230

> <Coulomb>
-1.075

> <VdW>
0.489

> <VdW6>
-7.547

> <VdW12>
8.036

> <Bond>
0.159

> <Angle>
3.006

> <Pdih>
8.064

> <Idih>
0.002

> <Tether>
0.000

$$$$
VeraChem MOL file


 20 19  0  0  0  0  0  0  0  0999 V2000     
   18.5697   19.2473   25.3526 C   0  0  0  0  0  0  0  0  0  0  0  0
   19.6026   19.3638   25.6769 H   0  0  0  0  0  0  0  0  0  0  0  0
   17.8443   18.9241   26.0973 H   0  0  0  0  0  0  0  0  0  0  0  0
   18.2032   19.4878   24.0911 C   0  0  0  0  0  0  0  0  0  0  0  0
   17.1640   19.3644   23.7868 H   0  0  0  0  0  0  0  0  0  0  0  0
   19.1527   19.9395   23.0039 C   0  0  0  0  0  0  0  0  0  0  0  0
   20.0980   20.2851   23.4440 H   0  0  0  0  0  0  0  0  0  0  0  0
   18.7201   20.7970   22.4712 H   0  0  0  0  0  0  0  0  0  0  0  0
   19.4378   18.7993   22.0041 C   0  0  0  0  0  0  0  0  0  0  0  0
   19.8663   17.9427   22.5426 H   0  0  0  0  0  0  0  0  0  0  0  0
   18.4925   18.4571   21.5608 H   0  0  0  0  0  0  0  0  0  0  0  0
   20.4042   19.2447   20.8848 C   0  0  0  0  0  0  0  0  0  0  0  0
   21.3501   19.5867   21.3274 H   0  0  0  0  0  0  0  0  0  0  0  0
   19.9767   20.1022   20.3466 H   0  0  0  0  0  0  0  0  0  0  0  0
   20.6913   18.0975   19.8799 C   0  0  0  0  0  0  0  0  0  0  0  0
   21.1241   17.2406   20.4093 H   0  0  0  0  0  0  0  0  0  0  0  0
   19.7521   17.7555   19.4294 H   0  0  0  0  0  0  0  0  0  0  0  0
   21.6421   18.4546   18.7363 C   0  0  0  0  0  0  0  0  0  0  0  0
   21.8899   17.5818   17.9282 O   0  5  0  0  0  0  0  0  0  0  0  0
   22.1115   19.5743   18.6699 O   0  0  0  0  0  0  0  0  0  0  0  0
  1  2  1  0  0  0  0
  1  3  1  0  0  0  0
  1  4  2  0  0  0  0
  4  5  1  0  0  0  0
  4  6  1  0  0  0  0
  6  7  1  0  0  0  0
  6  8  1  0  0  0  0
  6  9  1  0  0  0  0
  9 10  1  0  0  0  0
  9 11  1  0  0  0  0
  9 12  1  0  0  0  0
 12 13  1  0  0  0  0
 12 14  1  0  0  0  0
 12 15  1  0  0  0  0
 15 16  1  0  0  0  0
 15 17  1  0  0  0  0
 15 18  1  0  0  0  0
 18 19  1  0  0  0  0
 18 20  2  0  0  0  0
M  END
> <VConfSearch Rank>
481

> <Conf_Id>
33

> <Delta U+W>
0.000

> <U+W>
-51.745

> <U>
7.593

> <W>
-59.338

> <W(PB)>
-61.574

> <W(SA)>
2.236

> <Valence>
9.570

> <Coulomb>
-3.091

> <VdW>
1.114

> <VdW6>
-6.064

> <VdW12>
7.178

> <Bond>
0.117

> <Angle>
2.692

> <Pdih>
6.761

> <Idih>
0.000

> <Tether>
0.000

$$$$
VeraChem MOL file


 20 19  0  0  0  0  0  0  0  0999 V2000     
   16.5498   20.0022   20.4437 C   0  0  0  0  0  0  0  0  0  0  0  0
   16.1098   20.0375   21.4391 H   0  0  0  0  0  0  0  0  0  0  0  0
   15.8740   20.0853   19.5941 H   0  0  0  0  0  0  0  0  0  0  0  0
   17.8660   19.8602   20.2673 C   0  0  0  0  0  0  0  0  0  0  0  0
   18.2861   19.8263   19.2623 H   0  0  0  0  0  0  0  0  0  0  0  0
   18.8647   19.7396   21.3968 C   0  0  0  0  0  0  0  0  0  0  0  0
   18.4011   20.0380   22.3469 H   0  0  0  0  0  0  0  0  0  0  0  0
   19.6960   20.4330   21.2176 H   0  0  0  0  0  0  0  0  0  0  0  0
   19.3960   18.2934   21.5154 C   0  0  0  0  0  0  0  0  0  0  0  0
   18.5413   17.6094   21.6091 H   0  0  0  0  0  0  0  0  0  0  0  0
   19.9169   18.0139   20.5894 H   0  0  0  0  0  0  0  0  0  0  0  0
   20.3351   18.0783   22.7262 C   0  0  0  0  0  0  0  0  0  0  0  0
   20.5734   17.0082   22.8013 H   0  0  0  0  0  0  0  0  0  0  0  0
   19.8111   18.3449   23.6546 H   0  0  0  0  0  0  0  0  0  0  0  0
   21.6603   18.8781   22.6316 C   0  0  0  0  0  0  0  0  0  0  0  0
   22.1721   18.6525   21.6885 H   0  0  0  0  0  0  0  0  0  0  0  0
   21.4633   19.9559   22.6456 H   0  0  0  0  0  0  0  0  0  0  0  0
   22.6187   18.5675   23.7757 C   0  0  0  0  0  0  0  0  0  0  0  0
   22.5322   19.2279   24.7921 O   0  5  0  0  0  0  0  0  0  0  0  0
   23.4135   17.6602   23.6278 O   0  0  0  0  0  0  0  0  0  0  0  0
  1  2  1  0  0  0  0
  1  3  1  0  0  0  0
  1  4  2  0  0  0  0
  4  5  1  0  0  0  0
  4  6  1  0  0  0  0
  6  7  1  0  0  0  0
  6  8  1  0  0  0  0
  6  9  1  0  0  0  0
  9 10  1  0  0  0  0
  9 11  1  0  0  0  0
  9 12  1  0  0  0  0
 12 13  1  0  0  0  0
 12 14  1  0  0  0  0
 12 15  1  0  0  0  0
 15 16  1  0  0  0  0
 15 17  1  0  0  0  0
 15 18  1  0  0  0  0
 18 19  1  0  0  0  0
 18 20  2  0  0  0  0
M  END
> <VConfSearch Rank>
482

> <Conf_Id>
37

> <Delta U+W>
-0.384

> <U+W>
-52.130

> <U>
7.491

> <W>
-59.621

> <W(PB)>
-61.853

> <W(SA)>
2.232

> <Valence>
9.604

> <Coulomb>
-2.799

> <VdW>
0.686

> <VdW6>
-6.435

> <VdW12>
7.121

> <Bond>
0.124

> <Angle>
2.493

> <Pdih>
6.986

> <Idih>
0.001

> <Tether>
0.000

$$$$
VeraChem MOL file


 20 19  0  0  0  0  0  0  0  0999 V2000     
   20.9606   17.8680   24.8205 C   0  0  0  0  0  0  0  0  0  0  0  0
   21.3345   17.5100   25.7782 H   0  0  0  0  0  0  0  0  0  0  0  0
   21.1986   17.2674   23.9452 H   0  0  0  0  0  0  0  0  0  0  0  0
   20.2444   18.9955   24.7450 C   0  0  0  0  0  0  0  0  0  0  0  0
   20.0383   19.5545   25.6575 H   0  0  0  0  0  0  0  0  0  0  0  0
   19.6589   19.6173   23.4882 C   0  0  0  0  0  0  0  0  0  0  0  0
   20.0447   20.6407   23.3882 H   0  0  0  0  0  0  0  0  0  0  0  0
   18.5734   19.7216   23.6189 H   0  0  0  0  0  0  0  0  0  0  0  0
   19.9399   18.8396   22.1812 C   0  0  0  0  0  0  0  0  0  0  0  0
   21.0249   18.7498   22.0337 H   0  0  0  0  0  0  0  0  0  0  0  0
   19.5377   17.8207   22.2668 H   0  0  0  0  0  0  0  0  0  0  0  0
   19.3122   19.5365   20.9543 C   0  0  0  0  0  0  0  0  0  0  0  0
   19.7105   20.5566   20.8632 H   0  0  0  0  0  0  0  0  0  0  0  0
   18.2264   19.6294   21.0959 H   0  0  0  0  0  0  0  0  0  0  0  0
   19.5922   18.7595   19.6443 C   0  0  0  0  0  0  0  0  0  0  0  0
   20.6728   18.6694   19.4810 H   0  0  0  0  0  0  0  0  0  0  0  0
   19.1887   17.7422   19.7137 H   0  0  0  0  0  0  0  0  0  0  0  0
   18.9820   19.4282   18.4177 C   0  0  0  0  0  0  0  0  0  0  0  0
   19.6493   20.2499   17.8209 O   0  5  0  0  0  0  0  0  0  0  0  0
   17.8483   19.1242   18.1031 O   0  0  0  0  0  0  0  0  0  0  0  0
  1  2  1  0  0  0  0
  1  3  1  0  0  0  0
  1  4  2  0  0  0  0
  4  5  1  0  0  0  0
  4  6  1  0  0  0  0
  6  7  1  0  0  0  0
  6  8  1  0  0  0  0
  6  9  1  0  0  0  0
  9 10  1  0  0  0  0
  9 11  1  0  0  0  0
  9 12  1  0  0  0  0
 12 13  1  0  0  0  0
 12 14  1  0  0  0  0
 12 15  1  0  0  0  0
 15 16  1  0  0  0  0
 15 17  1  0  0  0  0
 15 18  1  0  0  0  0
 18 19  1  0  0  0  0
 18 20  2  0  0  0  0
M  END
> <VConfSearch Rank>
483

> <Conf_Id>
44

> <Delta U+W>
-1.440

> <U+W>
-53.185

> <U>
6.572

> <W>
-59.757

> <W(PB)>
-62.007

> <W(SA)>
2.249

> <Valence>
7.989

> <Coulomb>
-2.697

> <VdW>
1.281

> <VdW6>
-6.467

> <VdW12>
7.748

> <Bond>
0.136

> <Angle>
2.854

> <Pdih>
4.997

> <Idih>
0.001

> <Tether>
0.000

$$$$
VeraChem MOL file


 20 19  0  0  0  0  0  0  0  0999 V2000     
   23.2087   19.6261   21.9322 C   0  0  0  0  0  0  0  0  0  0  0  0
   23.1094   19.1561   22.9094 H   0  0  0  0  0  0  0  0  0  0  0  0
   24.1462   20.1346   21.7139 H   0  0  0  0  0  0  0  0  0  0  0  0
   22.2206   19.5850   21.0346 C   0  0  0  0  0  0  0  0  0  0  0  0
   22.3402   20.0624   20.0623 H   0  0  0  0  0  0  0  0  0  0  0  0
   20.8932   18.8975   21.2657 C   0  0  0  0  0  0  0  0  0  0  0  0
   20.9654   18.2299   22.1339 H   0  0  0  0  0  0  0  0  0  0  0  0
   20.6512   18.2671   20.3998 H   0  0  0  0  0  0  0  0  0  0  0  0
   19.7647   19.9297   21.4870 C   0  0  0  0  0  0  0  0  0  0  0  0
   19.9809   20.5238   22.3855 H   0  0  0  0  0  0  0  0  0  0  0  0
   19.7571   20.6344   20.6441 H   0  0  0  0  0  0  0  0  0  0  0  0
   18.3599   19.2924   21.6091 C   0  0  0  0  0  0  0  0  0  0  0  0
   18.1383   18.7058   20.7068 H   0  0  0  0  0  0  0  0  0  0  0  0
   17.6111   20.0957   21.6481 H   0  0  0  0  0  0  0  0  0  0  0  0
   18.1936   18.3960   22.8636 C   0  0  0  0  0  0  0  0  0  0  0  0
   18.8646   17.5312   22.8127 H   0  0  0  0  0  0  0  0  0  0  0  0
   18.4548   18.9584   23.7680 H   0  0  0  0  0  0  0  0  0  0  0  0
   16.7721   17.8704   23.0278 C   0  0  0  0  0  0  0  0  0  0  0  0
   15.9853   18.5358   23.6718 O   0  5  0  0  0  0  0  0  0  0  0  0
   16.4834   16.8192   22.4907 O   0  0  0  0  0  0  0  0  0  0  0  0
  1  2  1  0  0  0  0
  1  3  1  0  0  0  0
  1  4  2  0  0  0  0
  4  5  1  0  0  0  0
  4  6  1  0  0  0  0
  6  7  1  0  0  0  0
  6  8  1  0  0  0  0
  6  9  1  0  0  0  0
  9 10  1  0  0  0  0
  9 11  1  0  0  0  0
  9 12  1  0  0  0  0
 12 13  1  0  0  0  0
 12 14  1  0  0  0  0
 12 15  1  0  0  0  0
 15 16  1  0  0  0  0
 15 17  1  0  0  0  0
 15 18  1  0  0  0  0
 18 19  1  0  0  0  0
 18 20  2  0  0  0  0
M  END
> <VConfSearch Rank>
484

> <Conf_Id>
38

> <Delta U+W>
-0.381

> <U+W>
-52.126

> <U>
7.601

> <W>
-59.727

> <W(PB)>
-61.964

> <W(SA)>
2.236

> <Valence>
9.602

> <Coulomb>
-2.686

> <VdW>
0.685

> <VdW6>
-6.453

> <VdW12>
7.139

> <Bond>
0.125

> <Angle>
2.485

> <Pdih>
6.991

> <Idih>
0.001

> <Tether>
0.000

$$$$
VeraChem MOL file


 20 19  0  0  0  0  0  0  0  0999 V2000     
   21.6677   16.4716   23.1663 C   0  0  0  0  0  0  0  0  0  0  0  0
   22.4576   17.1149   23.5508 H   0  0  0  0  0  0  0  0  0  0  0  0
   21.5993   15.4643   23.5736 H   0  0  0  0  0  0  0  0  0  0  0  0
   20.8126   16.8983   22.2334 C   0  0  0  0  0  0  0  0  0  0  0  0
   20.0283   16.2387   21.8627 H   0  0  0  0  0  0  0  0  0  0  0  0
   20.8461   18.2810   21.6214 C   0  0  0  0  0  0  0  0  0  0  0  0
   20.7911   18.2000   20.5275 H   0  0  0  0  0  0  0  0  0  0  0  0
   21.7982   18.7770   21.8543 H   0  0  0  0  0  0  0  0  0  0  0  0
   19.6762   19.1462   22.1351 C   0  0  0  0  0  0  0  0  0  0  0  0
   18.7251   18.6491   21.8988 H   0  0  0  0  0  0  0  0  0  0  0  0
   19.7318   19.2209   23.2299 H   0  0  0  0  0  0  0  0  0  0  0  0
   19.6939   20.5624   21.5168 C   0  0  0  0  0  0  0  0  0  0  0  0
   19.6277   20.4917   20.4221 H   0  0  0  0  0  0  0  0  0  0  0  0
   20.6539   21.0452   21.7449 H   0  0  0  0  0  0  0  0  0  0  0  0
   18.5427   21.4577   22.0440 C   0  0  0  0  0  0  0  0  0  0  0  0
   18.5786   21.5156   23.1387 H   0  0  0  0  0  0  0  0  0  0  0  0
   18.6712   22.4794   21.6677 H   0  0  0  0  0  0  0  0  0  0  0  0
   17.1517   20.9891   21.6263 C   0  0  0  0  0  0  0  0  0  0  0  0
   16.4536   20.4439   22.4583 O   0  5  0  0  0  0  0  0  0  0  0  0
   16.7994   21.1924   20.4810 O   0  0  0  0  0  0  0  0  0  0  0  0
  1  2  1  0  0  0  0
  1  3  1  0  0  0  0
  1  4  2  0  0  0  0
  4  5  1  0  0  0  0
  4  6  1  0  0  0  0
  6  7  1  0  0  0  0
  6  8  1  0  0  0  0
  6  9  1  0  0  0  0
  9 10  1  0  0  0  0
  9 11  1  0  0  0  0
  9 12  1  0  0  0  0
 12 13  1  0  0  0  0
 12 14  1  0  0  0  0
 12 15  1  0  0  0  0
 15 16  1  0  0  0  0
 15 17  1  0  0  0  0
 15 18  1  0  0  0  0
 18 19  1  0  0  0  0
 18 20  2  0  0  0  0
M  END
> <VConfSearch Rank>
485

> <Conf_Id>
58

> <Delta U+W>
0.019

> <U+W>
-51.727

> <U>
8.963

> <W>
-60.690

> <W(PB)>
-62.934

> <W(SA)>
2.244

> <Valence>
9.327

> <Coulomb>
-0.780

> <VdW>
0.417

> <VdW6>
-6.635

> <VdW12>
7.052

> <Bond>
0.105

> <Angle>
2.399

> <Pdih>
6.822

> <Idih>
0.000

> <Tether>
0.000

$$$$
VeraChem MOL file


 20 19  0  0  0  0  0  0  0  0999 V2000     
   21.1024   22.5203   21.7570 C   0  0  0  0  0  0  0  0  0  0  0  0
   21.8478   22.3410   22.5301 H   0  0  0  0  0  0  0  0  0  0  0  0
   20.8411   23.5554   21.5435 H   0  0  0  0  0  0  0  0  0  0  0  0
   20.5267   21.5128   21.0958 C   0  0  0  0  0  0  0  0  0  0  0  0
   19.7819   21.7139   20.3260 H   0  0  0  0  0  0  0  0  0  0  0  0
   20.8387   20.0526   21.3367 C   0  0  0  0  0  0  0  0  0  0  0  0
   21.7603   19.9529   21.9261 H   0  0  0  0  0  0  0  0  0  0  0  0
   21.0221   19.5528   20.3761 H   0  0  0  0  0  0  0  0  0  0  0  0
   19.6790   19.3491   22.0723 C   0  0  0  0  0  0  0  0  0  0  0  0
   19.4954   19.8547   23.0304 H   0  0  0  0  0  0  0  0  0  0  0  0
   18.7590   19.4482   21.4797 H   0  0  0  0  0  0  0  0  0  0  0  0
   19.9806   17.8544   22.3239 C   0  0  0  0  0  0  0  0  0  0  0  0
   20.9096   17.7648   22.9031 H   0  0  0  0  0  0  0  0  0  0  0  0
   20.1542   17.3433   21.3666 H   0  0  0  0  0  0  0  0  0  0  0  0
   18.8391   17.1364   23.0897 C   0  0  0  0  0  0  0  0  0  0  0  0
   19.1531   16.1174   23.3446 H   0  0  0  0  0  0  0  0  0  0  0  0
   18.6348   17.6519   24.0359 H   0  0  0  0  0  0  0  0  0  0  0  0
   17.5362   17.0288   22.3023 C   0  0  0  0  0  0  0  0  0  0  0  0
   17.4720   16.2039   21.4121 O   0  5  0  0  0  0  0  0  0  0  0  0
   16.6172   17.7636   22.6064 O   0  0  0  0  0  0  0  0  0  0  0  0
  1  2  1  0  0  0  0
  1  3  1  0  0  0  0
  1  4  2  0  0  0  0
  4  5  1  0  0  0  0
  4  6  1  0  0  0  0
  6  7  1  0  0  0  0
  6  8  1  0  0  0  0
  6  9  1  0  0  0  0
  9 10  1  0  0  0  0
  9 11  1  0  0  0  0
  9 12  1  0  0  0  0
 12 13  1  0  0  0  0
 12 14  1  0  0  0  0
 12 15  1  0  0  0  0
 15 16  1  0  0  0  0
 15 17  1  0  0  0  0
 15 18  1  0  0  0  0
 18 19  1  0  0  0  0
 18 20  2  0  0  0  0
M  END
> <VConfSearch Rank>
486

> <Conf_Id>
54

> <Delta U+W>
-0.048

> <U+W>
-51.793

> <U>
8.964

> <W>
-60.756

> <W(PB)>
-63.007

> <W(SA)>
2.251

> <Valence>
9.327

> <Coulomb>
-0.780

> <VdW>
0.417

> <VdW6>
-6.635

> <VdW12>
7.052

> <Bond>
0.105

> <Angle>
2.399

> <Pdih>
6.822

> <Idih>
0.000

> <Tether>
0.000

$$$$
VeraChem MOL file


 20 19  0  0  0  0  0  0  0  0999 V2000     
   17.2465   16.8520   22.1125 C   0  0  0  0  0  0  0  0  0  0  0  0
   16.8789   16.1043   21.4119 H   0  0  0  0  0  0  0  0  0  0  0  0
   17.2319   16.5972   23.1710 H   0  0  0  0  0  0  0  0  0  0  0  0
   17.6999   18.0337   21.6861 C   0  0  0  0  0  0  0  0  0  0  0  0
   17.7025   18.2698   20.6223 H   0  0  0  0  0  0  0  0  0  0  0  0
   18.2188   19.1226   22.6009 C   0  0  0  0  0  0  0  0  0  0  0  0
   17.8487   18.9557   23.6215 H   0  0  0  0  0  0  0  0  0  0  0  0
   17.8220   20.0969   22.2859 H   0  0  0  0  0  0  0  0  0  0  0  0
   19.7628   19.1754   22.6372 C   0  0  0  0  0  0  0  0  0  0  0  0
   20.0717   19.8854   23.4166 H   0  0  0  0  0  0  0  0  0  0  0  0
   20.1551   18.1935   22.9356 H   0  0  0  0  0  0  0  0  0  0  0  0
   20.3826   19.5981   21.2839 C   0  0  0  0  0  0  0  0  0  0  0  0
   19.9794   20.5735   20.9781 H   0  0  0  0  0  0  0  0  0  0  0  0
   20.0928   18.8783   20.5072 H   0  0  0  0  0  0  0  0  0  0  0  0
   21.9306   19.6758   21.3362 C   0  0  0  0  0  0  0  0  0  0  0  0
   22.3466   18.7184   21.6728 H   0  0  0  0  0  0  0  0  0  0  0  0
   22.3225   19.8552   20.3282 H   0  0  0  0  0  0  0  0  0  0  0  0
   22.4667   20.7842   22.2377 C   0  0  0  0  0  0  0  0  0  0  0  0
   22.9298   20.4748   23.3179 O   0  5  0  0  0  0  0  0  0  0  0  0
   22.4165   21.9281   21.8300 O   0  0  0  0  0  0  0  0  0  0  0  0
  1  2  1  0  0  0  0
  1  3  1  0  0  0  0
  1  4  2  0  0  0  0
  4  5  1  0  0  0  0
  4  6  1  0  0  0  0
  6  7  1  0  0  0  0
  6  8  1  0  0  0  0
  6  9  1  0  0  0  0
  9 10  1  0  0  0  0
  9 11  1  0  0  0  0
  9 12  1  0  0  0  0
 12 13  1  0  0  0  0
 12 14  1  0  0  0  0
 12 15  1  0  0  0  0
 15 16  1  0  0  0  0
 15 17  1  0  0  0  0
 15 18  1  0  0  0  0
 18 19  1  0  0  0  0
 18 20  2  0  0  0  0
M  END
> <VConfSearch Rank>
487

> <Conf_Id>
27

> <Delta U+W>
0.478

> <U+W>
-51.267

> <U>
9.192

> <W>
-60.459

> <W(PB)>
-62.649

> <W(SA)>
2.190

> <Valence>
9.572

> <Coulomb>
-0.884

> <VdW>
0.504

> <VdW6>
-7.168

> <VdW12>
7.672

> <Bond>
0.127

> <Angle>
2.504

> <Pdih>
6.941

> <Idih>
0.001

> <Tether>
0.000

$$$$
VeraChem MOL file


 20 19  0  0  0  0  0  0  0  0999 V2000     
   16.7227   19.4800   20.5040 C   0  0  0  0  0  0  0  0  0  0  0  0
   16.1845   18.5360   20.4352 H   0  0  0  0  0  0  0  0  0  0  0  0
   16.5048   20.2370   19.7525 H   0  0  0  0  0  0  0  0  0  0  0  0
   17.6183   19.7035   21.4692 C   0  0  0  0  0  0  0  0  0  0  0  0
   18.1434   20.6568   21.5215 H   0  0  0  0  0  0  0  0  0  0  0  0
   17.9674   18.7023   22.5497 C   0  0  0  0  0  0  0  0  0  0  0  0
   17.1674   17.9543   22.6339 H   0  0  0  0  0  0  0  0  0  0  0  0
   18.0204   19.2064   23.5239 H   0  0  0  0  0  0  0  0  0  0  0  0
   19.2998   17.9724   22.2669 C   0  0  0  0  0  0  0  0  0  0  0  0
   19.4296   17.1731   23.0094 H   0  0  0  0  0  0  0  0  0  0  0  0
   19.2464   17.4833   21.2844 H   0  0  0  0  0  0  0  0  0  0  0  0
   20.5240   18.9151   22.3171 C   0  0  0  0  0  0  0  0  0  0  0  0
   20.5612   19.4229   23.2908 H   0  0  0  0  0  0  0  0  0  0  0  0
   20.4265   19.6976   21.5523 H   0  0  0  0  0  0  0  0  0  0  0  0
   21.8501   18.1485   22.0891 C   0  0  0  0  0  0  0  0  0  0  0  0
   21.9755   17.3721   22.8532 H   0  0  0  0  0  0  0  0  0  0  0  0
   21.8335   17.6454   21.1148 H   0  0  0  0  0  0  0  0  0  0  0  0
   23.0736   19.0569   22.1324 C   0  0  0  0  0  0  0  0  0  0  0  0
   23.4484   19.5647   21.0940 O   0  5  0  0  0  0  0  0  0  0  0  0
   23.6092   19.2467   23.2066 O   0  0  0  0  0  0  0  0  0  0  0  0
  1  2  1  0  0  0  0
  1  3  1  0  0  0  0
  1  4  2  0  0  0  0
  4  5  1  0  0  0  0
  4  6  1  0  0  0  0
  6  7  1  0  0  0  0
  6  8  1  0  0  0  0
  6  9  1  0  0  0  0
  9 10  1  0  0  0  0
  9 11  1  0  0  0  0
  9 12  1  0  0  0  0
 12 13  1  0  0  0  0
 12 14  1  0  0  0  0
 12 15  1  0  0  0  0
 15 16  1  0  0  0  0
 15 17  1  0  0  0  0
 15 18  1  0  0  0  0
 18 19  1  0  0  0  0
 18 20  2  0  0  0  0
M  END
> <VConfSearch Rank>
488

> <Conf_Id>
41

> <Delta U+W>
-0.634

> <U+W>
-52.379

> <U>
7.828

> <W>
-60.207

> <W(PB)>
-62.449

> <W(SA)>
2.242

> <Valence>
9.300

> <Coulomb>
-2.080

> <VdW>
0.608

> <VdW6>
-6.341

> <VdW12>
6.949

> <Bond>
0.103

> <Angle>
2.334

> <Pdih>
6.862

> <Idih>
0.001

> <Tether>
0.000

$$$$
VeraChem MOL file


 20 19  0  0  0  0  0  0  0  0999 V2000     
   21.1565   21.4155   24.1923 C   0  0  0  0  0  0  0  0  0  0  0  0
   21.8853   21.7109   24.9453 H   0  0  0  0  0  0  0  0  0  0  0  0
   20.6517   22.2099   23.6449 H   0  0  0  0  0  0  0  0  0  0  0  0
   20.8967   20.1279   23.9510 C   0  0  0  0  0  0  0  0  0  0  0  0
   21.4134   19.3477   24.5095 H   0  0  0  0  0  0  0  0  0  0  0  0
   19.8989   19.6421   22.9234 C   0  0  0  0  0  0  0  0  0  0  0  0
   19.2519   20.4690   22.6010 H   0  0  0  0  0  0  0  0  0  0  0  0
   19.2476   18.8877   23.3835 H   0  0  0  0  0  0  0  0  0  0  0  0
   20.6165   19.0391   21.6952 C   0  0  0  0  0  0  0  0  0  0  0  0
   21.3367   19.7736   21.3094 H   0  0  0  0  0  0  0  0  0  0  0  0
   21.2047   18.1646   22.0062 H   0  0  0  0  0  0  0  0  0  0  0  0
   19.6537   18.6436   20.5485 C   0  0  0  0  0  0  0  0  0  0  0  0
   20.2480   18.2988   19.6910 H   0  0  0  0  0  0  0  0  0  0  0  0
   19.1113   19.5358   20.2078 H   0  0  0  0  0  0  0  0  0  0  0  0
   18.6299   17.5370   20.9224 C   0  0  0  0  0  0  0  0  0  0  0  0
   17.9689   17.8771   21.7277 H   0  0  0  0  0  0  0  0  0  0  0  0
   17.9862   17.3317   20.0591 H   0  0  0  0  0  0  0  0  0  0  0  0
   19.2665   16.2140   21.3384 C   0  0  0  0  0  0  0  0  0  0  0  0
   19.7895   15.5346   20.4769 O   0  5  0  0  0  0  0  0  0  0  0  0
   19.2075   15.8890   22.5080 O   0  0  0  0  0  0  0  0  0  0  0  0
  1  2  1  0  0  0  0
  1  3  1  0  0  0  0
  1  4  2  0  0  0  0
  4  5  1  0  0  0  0
  4  6  1  0  0  0  0
  6  7  1  0  0  0  0
  6  8  1  0  0  0  0
  6  9  1  0  0  0  0
  9 10  1  0  0  0  0
  9 11  1  0  0  0  0
  9 12  1  0  0  0  0
 12 13  1  0  0  0  0
 12 14  1  0  0  0  0
 12 15  1  0  0  0  0
 15 16  1  0  0  0  0
 15 17  1  0  0  0  0
 15 18  1  0  0  0  0
 18 19  1  0  0  0  0
 18 20  2  0  0  0  0
M  END
> <VConfSearch Rank>
489

> <Conf_Id>
84

> <Delta U+W>
0.942

> <U+W>
-50.803

> <U>
10.196

> <W>
-60.999

> <W(PB)>
-63.182

> <W(SA)>
2.182

> <Valence>
9.837

> <Coulomb>
0.032

> <VdW>
0.328

> <VdW6>
-7.642

> <VdW12>
7.969

> <Bond>
0.151

> <Angle>
2.748

> <Pdih>
6.937

> <Idih>
0.001

> <Tether>
0.000

$$$$
VeraChem MOL file


 20 19  0  0  0  0  0  0  0  0999 V2000     
   20.3257   22.5317   22.9248 C   0  0  0  0  0  0  0  0  0  0  0  0
   19.9089   23.5225   23.0976 H   0  0  0  0  0  0  0  0  0  0  0  0
   21.0362   22.1523   23.6575 H   0  0  0  0  0  0  0  0  0  0  0  0
   19.9746   21.8120   21.8559 C   0  0  0  0  0  0  0  0  0  0  0  0
   19.2610   22.2099   21.1348 H   0  0  0  0  0  0  0  0  0  0  0  0
   20.5113   20.4315   21.5498 C   0  0  0  0  0  0  0  0  0  0  0  0
   21.3949   20.2213   22.1677 H   0  0  0  0  0  0  0  0  0  0  0  0
   20.8403   20.3893   20.5029 H   0  0  0  0  0  0  0  0  0  0  0  0
   19.4405   19.3490   21.8003 C   0  0  0  0  0  0  0  0  0  0  0  0
   19.1114   19.4013   22.8476 H   0  0  0  0  0  0  0  0  0  0  0  0
   18.5580   19.5563   21.1796 H   0  0  0  0  0  0  0  0  0  0  0  0
   19.9723   17.9318   21.4887 C   0  0  0  0  0  0  0  0  0  0  0  0
   20.8468   17.7158   22.1181 H   0  0  0  0  0  0  0  0  0  0  0  0
   20.3163   17.8951   20.4462 H   0  0  0  0  0  0  0  0  0  0  0  0
   18.9005   16.8320   21.7039 C   0  0  0  0  0  0  0  0  0  0  0  0
   18.0094   17.0482   21.1023 H   0  0  0  0  0  0  0  0  0  0  0  0
   19.2906   15.8675   21.3582 H   0  0  0  0  0  0  0  0  0  0  0  0
   18.4750   16.6568   23.1590 C   0  0  0  0  0  0  0  0  0  0  0  0
   17.3910   17.0891   23.4981 O   0  5  0  0  0  0  0  0  0  0  0  0
   19.2350   16.0802   23.9120 O   0  0  0  0  0  0  0  0  0  0  0  0
  1  2  1  0  0  0  0
  1  3  1  0  0  0  0
  1  4  2  0  0  0  0
  4  5  1  0  0  0  0
  4  6  1  0  0  0  0
  6  7  1  0  0  0  0
  6  8  1  0  0  0  0
  6  9  1  0  0  0  0
  9 10  1  0  0  0  0
  9 11  1  0  0  0  0
  9 12  1  0  0  0  0
 12 13  1  0  0  0  0
 12 14  1  0  0  0  0
 12 15  1  0  0  0  0
 15 16  1  0  0  0  0
 15 17  1  0  0  0  0
 15 18  1  0  0  0  0
 18 19  1  0  0  0  0
 18 20  2  0  0  0  0
M  END
> <VConfSearch Rank>
490

> <Conf_Id>
81

> <Delta U+W>
-0.051

> <U+W>
-51.796

> <U>
9.412

> <W>
-61.209

> <W(PB)>
-63.452

> <W(SA)>
2.243

> <Valence>
9.329

> <Coulomb>
-0.323

> <VdW>
0.406

> <VdW6>
-6.640

> <VdW12>
7.046

> <Bond>
0.105

> <Angle>
2.401

> <Pdih>
6.823

> <Idih>
0.000

> <Tether>
0.000

$$$$
VeraChem MOL file


 20 19  0  0  0  0  0  0  0  0999 V2000     
   20.7737   16.0588   21.7537 C   0  0  0  0  0  0  0  0  0  0  0  0
   21.3316   16.0043   20.8203 H   0  0  0  0  0  0  0  0  0  0  0  0
   20.9219   15.2560   22.4738 H   0  0  0  0  0  0  0  0  0  0  0  0
   19.9413   17.0711   22.0104 C   0  0  0  0  0  0  0  0  0  0  0  0
   19.3905   17.1056   22.9499 H   0  0  0  0  0  0  0  0  0  0  0  0
   19.6808   18.2177   21.0569 C   0  0  0  0  0  0  0  0  0  0  0  0
   18.6039   18.4225   20.9994 H   0  0  0  0  0  0  0  0  0  0  0  0
   19.9853   17.9311   20.0414 H   0  0  0  0  0  0  0  0  0  0  0  0
   20.4459   19.5027   21.4545 C   0  0  0  0  0  0  0  0  0  0  0  0
   21.5244   19.2967   21.4207 H   0  0  0  0  0  0  0  0  0  0  0  0
   20.2601   20.2763   20.6969 H   0  0  0  0  0  0  0  0  0  0  0  0
   20.0882   20.0629   22.8554 C   0  0  0  0  0  0  0  0  0  0  0  0
   20.7038   20.9528   23.0460 H   0  0  0  0  0  0  0  0  0  0  0  0
   20.3669   19.3308   23.6248 H   0  0  0  0  0  0  0  0  0  0  0  0
   18.5932   20.4445   23.0324 C   0  0  0  0  0  0  0  0  0  0  0  0
   17.9535   19.5614   22.9233 H   0  0  0  0  0  0  0  0  0  0  0  0
   18.4324   20.8200   24.0497 H   0  0  0  0  0  0  0  0  0  0  0  0
   18.1071   21.5226   22.0680 C   0  0  0  0  0  0  0  0  0  0  0  0
   17.3508   21.1975   21.1739 O   0  5  0  0  0  0  0  0  0  0  0  0
   18.4849   22.6638   22.2477 O   0  0  0  0  0  0  0  0  0  0  0  0
  1  2  1  0  0  0  0
  1  3  1  0  0  0  0
  1  4  2  0  0  0  0
  4  5  1  0  0  0  0
  4  6  1  0  0  0  0
  6  7  1  0  0  0  0
  6  8  1  0  0  0  0
  6  9  1  0  0  0  0
  9 10  1  0  0  0  0
  9 11  1  0  0  0  0
  9 12  1  0  0  0  0
 12 13  1  0  0  0  0
 12 14  1  0  0  0  0
 12 15  1  0  0  0  0
 15 16  1  0  0  0  0
 15 17  1  0  0  0  0
 15 18  1  0  0  0  0
 18 19  1  0  0  0  0
 18 20  2  0  0  0  0
M  END
> <VConfSearch Rank>
491

> <Conf_Id>
86

> <Delta U+W>
1.248

> <U+W>
-50.498

> <U>
10.404

> <W>
-60.901

> <W(PB)>
-63.061

> <W(SA)>
2.159

> <Valence>
10.021

> <Coulomb>
0.094

> <VdW>
0.289

> <VdW6>
-8.409

> <VdW12>
8.698

> <Bond>
0.179

> <Angle>
2.939

> <Pdih>
6.902

> <Idih>
0.001

> <Tether>
0.000

$$$$
VeraChem MOL file


 20 19  0  0  0  0  0  0  0  0999 V2000     
   17.6836   21.1285   21.0269 C   0  0  0  0  0  0  0  0  0  0  0  0
   16.6475   21.3939   21.2300 H   0  0  0  0  0  0  0  0  0  0  0  0
   18.4339   21.9079   21.1491 H   0  0  0  0  0  0  0  0  0  0  0  0
   18.0177   19.8926   20.6462 C   0  0  0  0  0  0  0  0  0  0  0  0
   17.2515   19.1262   20.5319 H   0  0  0  0  0  0  0  0  0  0  0  0
   19.4342   19.4496   20.3471 C   0  0  0  0  0  0  0  0  0  0  0  0
   20.1064   20.3164   20.2884 H   0  0  0  0  0  0  0  0  0  0  0  0
   19.4590   18.9711   19.3590 H   0  0  0  0  0  0  0  0  0  0  0  0
   19.9708   18.4513   21.3975 C   0  0  0  0  0  0  0  0  0  0  0  0
   19.2969   17.5859   21.4597 H   0  0  0  0  0  0  0  0  0  0  0  0
   20.9418   18.0677   21.0554 H   0  0  0  0  0  0  0  0  0  0  0  0
   20.1355   19.0888   22.7975 C   0  0  0  0  0  0  0  0  0  0  0  0
   19.1642   19.4667   23.1437 H   0  0  0  0  0  0  0  0  0  0  0  0
   20.8065   19.9566   22.7342 H   0  0  0  0  0  0  0  0  0  0  0  0
   20.6852   18.0887   23.8476 C   0  0  0  0  0  0  0  0  0  0  0  0
   20.6660   18.5530   24.8405 H   0  0  0  0  0  0  0  0  0  0  0  0
   20.0418   17.2020   23.8991 H   0  0  0  0  0  0  0  0  0  0  0  0
   22.1184   17.6364   23.5830 C   0  0  0  0  0  0  0  0  0  0  0  0
   23.0199   18.4085   23.8445 O   0  5  0  0  0  0  0  0  0  0  0  0
   22.2969   16.5213   23.1339 O   0  0  0  0  0  0  0  0  0  0  0  0
  1  2  1  0  0  0  0
  1  3  1  0  0  0  0
  1  4  2  0  0  0  0
  4  5  1  0  0  0  0
  4  6  1  0  0  0  0
  6  7  1  0  0  0  0
  6  8  1  0  0  0  0
  6  9  1  0  0  0  0
  9 10  1  0  0  0  0
  9 11  1  0  0  0  0
  9 12  1  0  0  0  0
 12 13  1  0  0  0  0
 12 14  1  0  0  0  0
 12 15  1  0  0  0  0
 15 16  1  0  0  0  0
 15 17  1  0  0  0  0
 15 18  1  0  0  0  0
 18 19  1  0  0  0  0
 18 20  2  0  0  0  0
M  END
> <VConfSearch Rank>
492

> <Conf_Id>
28

> <Delta U+W>
0.446

> <U+W>
-51.299

> <U>
9.295

> <W>
-60.594

> <W(PB)>
-62.806

> <W(SA)>
2.212

> <Valence>
9.495

> <Coulomb>
-0.610

> <VdW>
0.409

> <VdW6>
-7.332

> <VdW12>
7.741

> <Bond>
0.126

> <Angle>
2.497

> <Pdih>
6.872

> <Idih>
0.000

> <Tether>
0.000

$$$$
VeraChem MOL file


 20 19  0  0  0  0  0  0  0  0999 V2000     
   18.0384   16.7873   22.9367 C   0  0  0  0  0  0  0  0  0  0  0  0
   19.0795   16.4884   23.0376 H   0  0  0  0  0  0  0  0  0  0  0  0
   17.2888   16.0879   23.3028 H   0  0  0  0  0  0  0  0  0  0  0  0
   17.6760   17.9558   22.3950 C   0  0  0  0  0  0  0  0  0  0  0  0
   16.6165   18.2005   22.3233 H   0  0  0  0  0  0  0  0  0  0  0  0
   18.6010   19.0272   21.8420 C   0  0  0  0  0  0  0  0  0  0  0  0
   18.4576   19.9443   22.4277 H   0  0  0  0  0  0  0  0  0  0  0  0
   18.2832   19.2718   20.8197 H   0  0  0  0  0  0  0  0  0  0  0  0
   20.1027   18.6488   21.8255 C   0  0  0  0  0  0  0  0  0  0  0  0
   20.4542   18.4882   22.8540 H   0  0  0  0  0  0  0  0  0  0  0  0
   20.2249   17.6928   21.2983 H   0  0  0  0  0  0  0  0  0  0  0  0
   20.9977   19.7034   21.1284 C   0  0  0  0  0  0  0  0  0  0  0  0
   20.6722   19.8222   20.0861 H   0  0  0  0  0  0  0  0  0  0  0  0
   22.0269   19.3209   21.0870 H   0  0  0  0  0  0  0  0  0  0  0  0
   21.0117   21.0946   21.8191 C   0  0  0  0  0  0  0  0  0  0  0  0
   21.6590   21.7740   21.2523 H   0  0  0  0  0  0  0  0  0  0  0  0
   20.0112   21.5416   21.8107 H   0  0  0  0  0  0  0  0  0  0  0  0
   21.5258   21.0729   23.2558 C   0  0  0  0  0  0  0  0  0  0  0  0
   22.7105   20.8698   23.4370 O   0  5  0  0  0  0  0  0  0  0  0  0
   20.7339   21.2802   24.1540 O   0  0  0  0  0  0  0  0  0  0  0  0
  1  2  1  0  0  0  0
  1  3  1  0  0  0  0
  1  4  2  0  0  0  0
  4  5  1  0  0  0  0
  4  6  1  0  0  0  0
  6  7  1  0  0  0  0
  6  8  1  0  0  0  0
  6  9  1  0  0  0  0
  9 10  1  0  0  0  0
  9 11  1  0  0  0  0
  9 12  1  0  0  0  0
 12 13  1  0  0  0  0
 12 14  1  0  0  0  0
 12 15  1  0  0  0  0
 15 16  1  0  0  0  0
 15 17  1  0  0  0  0
 15 18  1  0  0  0  0
 18 19  1  0  0  0  0
 18 20  2  0  0  0  0
M  END
> <VConfSearch Rank>
493

> <Conf_Id>
53

> <Delta U+W>
0.549

> <U+W>
-51.197

> <U>
10.870

> <W>
-62.067

> <W(PB)>
-64.228

> <W(SA)>
2.161

> <Valence>
8.803

> <Coulomb>
1.020

> <VdW>
1.048

> <VdW6>
-8.312

> <VdW12>
9.360

> <Bond>
0.212

> <Angle>
3.379

> <Pdih>
5.211

> <Idih>
0.001

> <Tether>
0.000

$$$$
VeraChem MOL file


 20 19  0  0  0  0  0  0  0  0999 V2000     
   19.3553   16.2260   21.1952 C   0  0  0  0  0  0  0  0  0  0  0  0
   20.1013   16.5665   20.4804 H   0  0  0  0  0  0  0  0  0  0  0  0
   18.6802   15.4376   20.8672 H   0  0  0  0  0  0  0  0  0  0  0  0
   19.2634   16.7386   22.4271 C   0  0  0  0  0  0  0  0  0  0  0  0
   18.4995   16.3596   23.1054 H   0  0  0  0  0  0  0  0  0  0  0  0
   20.1312   17.8404   23.0126 C   0  0  0  0  0  0  0  0  0  0  0  0
   20.9156   17.3809   23.6281 H   0  0  0  0  0  0  0  0  0  0  0  0
   19.5320   18.4298   23.7184 H   0  0  0  0  0  0  0  0  0  0  0  0
   20.7858   18.8034   21.9880 C   0  0  0  0  0  0  0  0  0  0  0  0
   21.4394   19.4997   22.5310 H   0  0  0  0  0  0  0  0  0  0  0  0
   21.4494   18.2339   21.3241 H   0  0  0  0  0  0  0  0  0  0  0  0
   19.7832   19.6214   21.1321 C   0  0  0  0  0  0  0  0  0  0  0  0
   19.1715   18.9395   20.5276 H   0  0  0  0  0  0  0  0  0  0  0  0
   20.3495   20.2357   20.4187 H   0  0  0  0  0  0  0  0  0  0  0  0
   18.8441   20.5490   21.9506 C   0  0  0  0  0  0  0  0  0  0  0  0
   18.1722   21.0796   21.2661 H   0  0  0  0  0  0  0  0  0  0  0  0
   18.2042   19.9591   22.6167 H   0  0  0  0  0  0  0  0  0  0  0  0
   19.5741   21.6026   22.7785 C   0  0  0  0  0  0  0  0  0  0  0  0
   19.5968   21.4724   23.9867 O   0  5  0  0  0  0  0  0  0  0  0  0
   20.0859   22.5369   22.1932 O   0  0  0  0  0  0  0  0  0  0  0  0
  1  2  1  0  0  0  0
  1  3  1  0  0  0  0
  1  4  2  0  0  0  0
  4  5  1  0  0  0  0
  4  6  1  0  0  0  0
  6  7  1  0  0  0  0
  6  8  1  0  0  0  0
  6  9  1  0  0  0  0
  9 10  1  0  0  0  0
  9 11  1  0  0  0  0
  9 12  1  0  0  0  0
 12 13  1  0  0  0  0
 12 14  1  0  0  0  0
 12 15  1  0  0  0  0
 15 16  1  0  0  0  0
 15 17  1  0  0  0  0
 15 18  1  0  0  0  0
 18 19  1  0  0  0  0
 18 20  2  0  0  0  0
M  END
> <VConfSearch Rank>
494

> <Conf_Id>
66

> <Delta U+W>
1.737

> <U+W>
-50.008

> <U>
11.091

> <W>
-61.099

> <W(PB)>
-63.213

> <W(SA)>
2.114

> <Valence>
9.664

> <Coulomb>
0.658

> <VdW>
0.769

> <VdW6>
-9.171

> <VdW12>
9.940

> <Bond>
0.244

> <Angle>
3.658

> <Pdih>
5.762

> <Idih>
0.001

> <Tether>
0.000

$$$$
VeraChem MOL file


 20 19  0  0  0  0  0  0  0  0999 V2000     
   18.8471   19.9355   19.5110 C   0  0  0  0  0  0  0  0  0  0  0  0
   19.7361   19.3512   19.2842 H   0  0  0  0  0  0  0  0  0  0  0  0
   18.0496   19.9286   18.7702 H   0  0  0  0  0  0  0  0  0  0  0  0
   18.7261   20.6404   20.6413 C   0  0  0  0  0  0  0  0  0  0  0  0
   17.8141   21.2104   20.8165 H   0  0  0  0  0  0  0  0  0  0  0  0
   19.7498   20.7375   21.7607 C   0  0  0  0  0  0  0  0  0  0  0  0
   19.2217   20.8204   22.7187 H   0  0  0  0  0  0  0  0  0  0  0  0
   20.2929   21.6862   21.6571 H   0  0  0  0  0  0  0  0  0  0  0  0
   20.7718   19.5738   21.8482 C   0  0  0  0  0  0  0  0  0  0  0  0
   21.3454   19.5213   20.9134 H   0  0  0  0  0  0  0  0  0  0  0  0
   21.5047   19.8076   22.6323 H   0  0  0  0  0  0  0  0  0  0  0  0
   20.1496   18.1862   22.1483 C   0  0  0  0  0  0  0  0  0  0  0  0
   20.9447   17.4293   22.1033 H   0  0  0  0  0  0  0  0  0  0  0  0
   19.4257   17.9177   21.3676 H   0  0  0  0  0  0  0  0  0  0  0  0
   19.4619   18.1023   23.5357 C   0  0  0  0  0  0  0  0  0  0  0  0
   20.1572   18.4163   24.3232 H   0  0  0  0  0  0  0  0  0  0  0  0
   18.5964   18.7731   23.5772 H   0  0  0  0  0  0  0  0  0  0  0  0
   18.9759   16.6962   23.8688 C   0  0  0  0  0  0  0  0  0  0  0  0
   17.8398   16.3927   23.5624 O   0  5  0  0  0  0  0  0  0  0  0  0
   19.7517   15.9358   24.4137 O   0  0  0  0  0  0  0  0  0  0  0  0
  1  2  1  0  0  0  0
  1  3  1  0  0  0  0
  1  4  2  0  0  0  0
  4  5  1  0  0  0  0
  4  6  1  0  0  0  0
  6  7  1  0  0  0  0
  6  8  1  0  0  0  0
  6  9  1  0  0  0  0
  9 10  1  0  0  0  0
  9 11  1  0  0  0  0
  9 12  1  0  0  0  0
 12 13  1  0  0  0  0
 12 14  1  0  0  0  0
 12 15  1  0  0  0  0
 15 16  1  0  0  0  0
 15 17  1  0  0  0  0
 15 18  1  0  0  0  0
 18 19  1  0  0  0  0
 18 20  2  0  0  0  0
M  END
> <VConfSearch Rank>
495

> <Conf_Id>
64

> <Delta U+W>
0.366

> <U+W>
-51.379

> <U>
10.000

> <W>
-61.379

> <W(PB)>
-63.541

> <W(SA)>
2.162

> <Valence>
9.398

> <Coulomb>
-0.504

> <VdW>
1.105

> <VdW6>
-7.975

> <VdW12>
9.080

> <Bond>
0.216

> <Angle>
3.417

> <Pdih>
5.765

> <Idih>
0.001

> <Tether>
0.000

$$$$
VeraChem MOL file


 20 19  0  0  0  0  0  0  0  0999 V2000     
   21.6481   20.9429   20.4090 C   0  0  0  0  0  0  0  0  0  0  0  0
   20.8437   21.6746   20.4636 H   0  0  0  0  0  0  0  0  0  0  0  0
   22.1833   20.8559   19.4650 H   0  0  0  0  0  0  0  0  0  0  0  0
   21.9662   20.1770   21.4560 C   0  0  0  0  0  0  0  0  0  0  0  0
   22.7733   19.4488   21.3797 H   0  0  0  0  0  0  0  0  0  0  0  0
   21.2683   20.2402   22.7979 C   0  0  0  0  0  0  0  0  0  0  0  0
   20.6188   21.1243   22.8547 H   0  0  0  0  0  0  0  0  0  0  0  0
   22.0211   20.3579   23.5887 H   0  0  0  0  0  0  0  0  0  0  0  0
   20.4369   18.9700   23.0863 C   0  0  0  0  0  0  0  0  0  0  0  0
   21.0864   18.0858   23.0289 H   0  0  0  0  0  0  0  0  0  0  0  0
   20.0616   19.0182   24.1177 H   0  0  0  0  0  0  0  0  0  0  0  0
   19.2427   18.8064   22.1184 C   0  0  0  0  0  0  0  0  0  0  0  0
   19.6069   18.7299   21.0846 H   0  0  0  0  0  0  0  0  0  0  0  0
   18.6037   19.6990   22.1649 H   0  0  0  0  0  0  0  0  0  0  0  0
   18.3971   17.5530   22.4531 C   0  0  0  0  0  0  0  0  0  0  0  0
   19.0191   16.6515   22.3985 H   0  0  0  0  0  0  0  0  0  0  0  0
   18.0104   17.6190   23.4771 H   0  0  0  0  0  0  0  0  0  0  0  0
   17.2125   17.3695   21.5112 C   0  0  0  0  0  0  0  0  0  0  0  0
   16.1638   17.9133   21.7961 O   0  5  0  0  0  0  0  0  0  0  0  0
   17.3733   16.6992   20.5105 O   0  0  0  0  0  0  0  0  0  0  0  0
  1  2  1  0  0  0  0
  1  3  1  0  0  0  0
  1  4  2  0  0  0  0
  4  5  1  0  0  0  0
  4  6  1  0  0  0  0
  6  7  1  0  0  0  0
  6  8  1  0  0  0  0
  6  9  1  0  0  0  0
  9 10  1  0  0  0  0
  9 11  1  0  0  0  0
  9 12  1  0  0  0  0
 12 13  1  0  0  0  0
 12 14  1  0  0  0  0
 12 15  1  0  0  0  0
 15 16  1  0  0  0  0
 15 17  1  0  0  0  0
 15 18  1  0  0  0  0
 18 19  1  0  0  0  0
 18 20  2  0  0  0  0
M  END
> <VConfSearch Rank>
496

> <Conf_Id>
42

> <Delta U+W>
-0.601

> <U+W>
-52.347

> <U>
8.428

> <W>
-60.774

> <W(PB)>
-62.982

> <W(SA)>
2.208

> <Valence>
9.231

> <Coulomb>
-1.304

> <VdW>
0.501

> <VdW6>
-6.515

> <VdW12>
7.016

> <Bond>
0.103

> <Angle>
2.328

> <Pdih>
6.799

> <Idih>
0.000

> <Tether>
0.000

$$$$
VeraChem MOL file


 20 19  0  0  0  0  0  0  0  0999 V2000     
   22.0829   19.4770   20.2639 C   0  0  0  0  0  0  0  0  0  0  0  0
   21.5794   19.0343   19.4060 H   0  0  0  0  0  0  0  0  0  0  0  0
   23.1343   19.2347   20.4080 H   0  0  0  0  0  0  0  0  0  0  0  0
   21.4380   20.2833   21.1113 C   0  0  0  0  0  0  0  0  0  0  0  0
   21.9597   20.7138   21.9657 H   0  0  0  0  0  0  0  0  0  0  0  0
   19.9789   20.6641   20.9775 C   0  0  0  0  0  0  0  0  0  0  0  0
   19.5863   20.3537   19.9997 H   0  0  0  0  0  0  0  0  0  0  0  0
   19.8886   21.7579   21.0145 H   0  0  0  0  0  0  0  0  0  0  0  0
   19.1095   20.0544   22.1002 C   0  0  0  0  0  0  0  0  0  0  0  0
   19.4999   20.3716   23.0770 H   0  0  0  0  0  0  0  0  0  0  0  0
   18.0922   20.4615   22.0227 H   0  0  0  0  0  0  0  0  0  0  0  0
   19.0457   18.5101   22.0335 C   0  0  0  0  0  0  0  0  0  0  0  0
   20.0529   18.0873   22.1518 H   0  0  0  0  0  0  0  0  0  0  0  0
   18.6909   18.2054   21.0397 H   0  0  0  0  0  0  0  0  0  0  0  0
   18.1087   17.9053   23.1110 C   0  0  0  0  0  0  0  0  0  0  0  0
   17.1031   18.3341   23.0232 H   0  0  0  0  0  0  0  0  0  0  0  0
   18.0091   16.8261   22.9457 H   0  0  0  0  0  0  0  0  0  0  0  0
   18.5998   18.1053   24.5420 C   0  0  0  0  0  0  0  0  0  0  0  0
   18.0680   18.9634   25.2187 O   0  5  0  0  0  0  0  0  0  0  0  0
   19.4899   17.3841   24.9478 O   0  0  0  0  0  0  0  0  0  0  0  0
  1  2  1  0  0  0  0
  1  3  1  0  0  0  0
  1  4  2  0  0  0  0
  4  5  1  0  0  0  0
  4  6  1  0  0  0  0
  6  7  1  0  0  0  0
  6  8  1  0  0  0  0
  6  9  1  0  0  0  0
  9 10  1  0  0  0  0
  9 11  1  0  0  0  0
  9 12  1  0  0  0  0
 12 13  1  0  0  0  0
 12 14  1  0  0  0  0
 12 15  1  0  0  0  0
 15 16  1  0  0  0  0
 15 17  1  0  0  0  0
 15 18  1  0  0  0  0
 18 19  1  0  0  0  0
 18 20  2  0  0  0  0
M  END
> <VConfSearch Rank>
497

> <Conf_Id>
68

> <Delta U+W>
0.492

> <U+W>
-51.253

> <U>
10.179

> <W>
-61.432

> <W(PB)>
-63.627

> <W(SA)>
2.195

> <Valence>
9.483

> <Coulomb>
0.361

> <VdW>
0.335

> <VdW6>
-7.385

> <VdW12>
7.720

> <Bond>
0.125

> <Angle>
2.487

> <Pdih>
6.870

> <Idih>
0.001

> <Tether>
0.000

$$$$
VeraChem MOL file


 20 19  0  0  0  0  0  0  0  0999 V2000     
   21.0985   21.6403   20.5391 C   0  0  0  0  0  0  0  0  0  0  0  0
   21.2923   22.3591   21.3336 H   0  0  0  0  0  0  0  0  0  0  0  0
   20.9014   22.0346   19.5436 H   0  0  0  0  0  0  0  0  0  0  0  0
   21.0981   20.3254   20.7731 C   0  0  0  0  0  0  0  0  0  0  0  0
   20.9044   19.6232   19.9627 H   0  0  0  0  0  0  0  0  0  0  0  0
   21.3690   19.7054   22.1273 C   0  0  0  0  0  0  0  0  0  0  0  0
   21.8815   20.4324   22.7718 H   0  0  0  0  0  0  0  0  0  0  0  0
   22.0545   18.8543   22.0187 H   0  0  0  0  0  0  0  0  0  0  0  0
   20.0736   19.2452   22.8332 C   0  0  0  0  0  0  0  0  0  0  0  0
   20.3207   18.9279   23.8554 H   0  0  0  0  0  0  0  0  0  0  0  0
   19.3884   20.0991   22.9278 H   0  0  0  0  0  0  0  0  0  0  0  0
   19.3684   18.0814   22.0969 C   0  0  0  0  0  0  0  0  0  0  0  0
   20.0778   17.2534   21.9648 H   0  0  0  0  0  0  0  0  0  0  0  0
   19.0641   18.4016   21.0911 H   0  0  0  0  0  0  0  0  0  0  0  0
   18.1241   17.5606   22.8620 C   0  0  0  0  0  0  0  0  0  0  0  0
   17.7331   16.6675   22.3607 H   0  0  0  0  0  0  0  0  0  0  0  0
   18.4030   17.2576   23.8785 H   0  0  0  0  0  0  0  0  0  0  0  0
   16.9837   18.5708   22.9509 C   0  0  0  0  0  0  0  0  0  0  0  0
   16.2864   18.7345   21.9691 O   0  5  0  0  0  0  0  0  0  0  0  0
   16.8104   19.1524   24.0039 O   0  0  0  0  0  0  0  0  0  0  0  0
  1  2  1  0  0  0  0
  1  3  1  0  0  0  0
  1  4  2  0  0  0  0
  4  5  1  0  0  0  0
  4  6  1  0  0  0  0
  6  7  1  0  0  0  0
  6  8  1  0  0  0  0
  6  9  1  0  0  0  0
  9 10  1  0  0  0  0
  9 11  1  0  0  0  0
  9 12  1  0  0  0  0
 12 13  1  0  0  0  0
 12 14  1  0  0  0  0
 12 15  1  0  0  0  0
 15 16  1  0  0  0  0
 15 17  1  0  0  0  0
 15 18  1  0  0  0  0
 18 19  1  0  0  0  0
 18 20  2  0  0  0  0
M  END
> <VConfSearch Rank>
498

> <Conf_Id>
87

> <Delta U+W>
0.339

> <U+W>
-51.407

> <U>
10.461

> <W>
-61.867

> <W(PB)>
-64.045

> <W(SA)>
2.178

> <Valence>
9.555

> <Coulomb>
0.483

> <VdW>
0.423

> <VdW6>
-7.223

> <VdW12>
7.646

> <Bond>
0.126

> <Angle>
2.492

> <Pdih>
6.936

> <Idih>
0.001

> <Tether>
0.000

$$$$
VeraChem MOL file


 20 19  0  0  0  0  0  0  0  0999 V2000     
   19.9818   20.7423   24.0919 C   0  0  0  0  0  0  0  0  0  0  0  0
   19.1958   20.4730   24.7955 H   0  0  0  0  0  0  0  0  0  0  0  0
   20.9376   21.0607   24.5044 H   0  0  0  0  0  0  0  0  0  0  0  0
   19.7840   20.6828   22.7725 C   0  0  0  0  0  0  0  0  0  0  0  0
   20.5800   20.9651   22.0844 H   0  0  0  0  0  0  0  0  0  0  0  0
   18.4790   20.2621   22.1309 C   0  0  0  0  0  0  0  0  0  0  0  0
   18.4346   20.6151   21.0920 H   0  0  0  0  0  0  0  0  0  0  0  0
   17.6558   20.7683   22.6529 H   0  0  0  0  0  0  0  0  0  0  0  0
   18.2273   18.7346   22.1830 C   0  0  0  0  0  0  0  0  0  0  0  0
   18.4547   18.3504   23.1868 H   0  0  0  0  0  0  0  0  0  0  0  0
   17.1526   18.5648   22.0320 H   0  0  0  0  0  0  0  0  0  0  0  0
   18.9878   17.9111   21.1131 C   0  0  0  0  0  0  0  0  0  0  0  0
   18.7690   18.3070   20.1119 H   0  0  0  0  0  0  0  0  0  0  0  0
   18.5989   16.8835   21.1289 H   0  0  0  0  0  0  0  0  0  0  0  0
   20.5225   17.8551   21.3244 C   0  0  0  0  0  0  0  0  0  0  0  0
   20.9689   18.8422   21.1681 H   0  0  0  0  0  0  0  0  0  0  0  0
   20.7535   17.5502   22.3520 H   0  0  0  0  0  0  0  0  0  0  0  0
   21.2137   16.8836   20.3746 C   0  0  0  0  0  0  0  0  0  0  0  0
   21.5753   17.2991   19.2913 O   0  5  0  0  0  0  0  0  0  0  0  0
   21.3537   15.7312   20.7342 O   0  0  0  0  0  0  0  0  0  0  0  0
  1  2  1  0  0  0  0
  1  3  1  0  0  0  0
  1  4  2  0  0  0  0
  4  5  1  0  0  0  0
  4  6  1  0  0  0  0
  6  7  1  0  0  0  0
  6  8  1  0  0  0  0
  6  9  1  0  0  0  0
  9 10  1  0  0  0  0
  9 11  1  0  0  0  0
  9 12  1  0  0  0  0
 12 13  1  0  0  0  0
 12 14  1  0  0  0  0
 12 15  1  0  0  0  0
 15 16  1  0  0  0  0
 15 17  1  0  0  0  0
 15 18  1  0  0  0  0
 18 19  1  0  0  0  0
 18 20  2  0  0  0  0
M  END
> <VConfSearch Rank>
499

> <Conf_Id>
51

> <Delta U+W>
1.709

> <U+W>
-50.036

> <U>
10.643

> <W>
-60.679

> <W(PB)>
-62.882

> <W(SA)>
2.203

> <Valence>
11.231

> <Coulomb>
-1.077

> <VdW>
0.489

> <VdW6>
-7.546

> <VdW12>
8.035

> <Bond>
0.159

> <Angle>
3.005

> <Pdih>
8.065

> <Idih>
0.002

> <Tether>
0.000

$$$$
VeraChem MOL file


 20 19  0  0  0  0  0  0  0  0999 V2000     
   17.0536   18.3668   22.9213 C   0  0  0  0  0  0  0  0  0  0  0  0
   16.4474   18.3441   22.0172 H   0  0  0  0  0  0  0  0  0  0  0  0
   16.5774   18.7138   23.8367 H   0  0  0  0  0  0  0  0  0  0  0  0
   18.3338   17.9864   22.9097 C   0  0  0  0  0  0  0  0  0  0  0  0
   18.9216   18.0078   23.8266 H   0  0  0  0  0  0  0  0  0  0  0  0
   19.0552   17.4821   21.6780 C   0  0  0  0  0  0  0  0  0  0  0  0
   18.4033   16.7637   21.1630 H   0  0  0  0  0  0  0  0  0  0  0  0
   19.9514   16.9170   21.9668 H   0  0  0  0  0  0  0  0  0  0  0  0
   19.4346   18.6038   20.6795 C   0  0  0  0  0  0  0  0  0  0  0  0
   19.6174   18.1371   19.7020 H   0  0  0  0  0  0  0  0  0  0  0  0
   18.5824   19.2819   20.5346 H   0  0  0  0  0  0  0  0  0  0  0  0
   20.7006   19.4133   21.0577 C   0  0  0  0  0  0  0  0  0  0  0  0
   20.9723   20.0472   20.2022 H   0  0  0  0  0  0  0  0  0  0  0  0
   21.5470   18.7309   21.2155 H   0  0  0  0  0  0  0  0  0  0  0  0
   20.5278   20.3216   22.3021 C   0  0  0  0  0  0  0  0  0  0  0  0
   19.6303   20.9428   22.1971 H   0  0  0  0  0  0  0  0  0  0  0  0
   20.4030   19.7167   23.2057 H   0  0  0  0  0  0  0  0  0  0  0  0
   21.7197   21.2444   22.5288 C   0  0  0  0  0  0  0  0  0  0  0  0
   22.6445   20.8331   23.2014 O   0  5  0  0  0  0  0  0  0  0  0  0
   21.7016   22.3432   22.0099 O   0  0  0  0  0  0  0  0  0  0  0  0
  1  2  1  0  0  0  0
  1  3  1  0  0  0  0
  1  4  2  0  0  0  0
  4  5  1  0  0  0  0
  4  6  1  0  0  0  0
  6  7  1  0  0  0  0
  6  8  1  0  0  0  0
  6  9  1  0  0  0  0
  9 10  1  0  0  0  0
  9 11  1  0  0  0  0
  9 12  1  0  0  0  0
 12 13  1  0  0  0  0
 12 14  1  0  0  0  0
 12 15  1  0  0  0  0
 15 16  1  0  0  0  0
 15 17  1  0  0  0  0
 15 18  1  0  0  0  0
 18 19  1  0  0  0  0
 18 20  2  0  0  0  0
M  END
> <VConfSearch Rank>
500

> <Conf_Id>
91

> <Delta U+W>
1.604

> <U+W>
-50.141

> <U>
10.644

> <W>
-60.786

> <W(PB)>
-62.965

> <W(SA)>
2.179

> <Valence>
11.230

> <Coulomb>
-1.075

> <VdW>
0.489

> <VdW6>
-7.547

> <VdW12>
8.036

> <Bond>
0.159

> <Angle>
3.006

> <Pdih>
8.064

> <Idih>
0.002

> <Tether>
0.000

$$$$
VeraChem MOL file


 20 19  0  0  0  0  0  0  0  0999 V2000     
   19.3166   21.0401   18.8368 C   0  0  0  0  0  0  0  0  0  0  0  0
   19.7359   20.2163   18.2614 H   0  0  0  0  0  0  0  0  0  0  0  0
   19.3190   22.0260   18.3750 H   0  0  0  0  0  0  0  0  0  0  0  0
   18.8201   20.8534   20.0625 C   0  0  0  0  0  0  0  0  0  0  0  0
   18.4056   21.6917   20.6220 H   0  0  0  0  0  0  0  0  0  0  0  0
   18.7819   19.5155   20.7669 C   0  0  0  0  0  0  0  0  0  0  0  0
   18.9693   18.7034   20.0512 H   0  0  0  0  0  0  0  0  0  0  0  0
   17.7787   19.3466   21.1807 H   0  0  0  0  0  0  0  0  0  0  0  0
   19.8267   19.4527   21.9006 C   0  0  0  0  0  0  0  0  0  0  0  0
   20.8277   19.6265   21.4820 H   0  0  0  0  0  0  0  0  0  0  0  0
   19.6360   20.2623   22.6185 H   0  0  0  0  0  0  0  0  0  0  0  0
   19.7992   18.0933   22.6329 C   0  0  0  0  0  0  0  0  0  0  0  0
   19.9904   17.2830   21.9155 H   0  0  0  0  0  0  0  0  0  0  0  0
   18.7980   17.9183   23.0506 H   0  0  0  0  0  0  0  0  0  0  0  0
   20.8507   18.0303   23.7725 C   0  0  0  0  0  0  0  0  0  0  0  0
   21.8533   18.1977   23.3616 H   0  0  0  0  0  0  0  0  0  0  0  0
   20.6622   18.8324   24.4957 H   0  0  0  0  0  0  0  0  0  0  0  0
   20.8909   16.7144   24.5511 C   0  0  0  0  0  0  0  0  0  0  0  0
   21.7010   16.6280   25.4524 O   0  5  0  0  0  0  0  0  0  0  0  0
   20.1297   15.8141   24.2532 O   0  0  0  0  0  0  0  0  0  0  0  0
  1  2  1  0  0  0  0
  1  3  1  0  0  0  0
  1  4  2  0  0  0  0
  4  5  1  0  0  0  0
  4  6  1  0  0  0  0
  6  7  1  0  0  0  0
  6  8  1  0  0  0  0
  6  9  1  0  0  0  0
  9 10  1  0  0  0  0
  9 11  1  0  0  0  0
  9 12  1  0  0  0  0
 12 13  1  0  0  0  0
 12 14  1  0  0  0  0
 12 15  1  0  0  0  0
 15 16  1  0  0  0  0
 15 17  1  0  0  0  0
 15 18  1  0  0  0  0
 18 19  1  0  0  0  0
 18 20  2  0  0  0  0
M  END
> <VConfSearch Rank>
501

> <Conf_Id>
33

> <Delta U+W>
0.000

> <U+W>
-51.745

> <U>
7.593

> <W>
-59.338

> <W(PB)>
-61.574

> <W(SA)>
2.236

> <Valence>
9.570

> <Coulomb>
-3.091

> <VdW>
1.114

> <VdW6>
-6.064

> <VdW12>
7.178

> <Bond>
0.117

> <Angle>
2.692

> <Pdih>
6.761

> <Idih>
0.000

> <Tether>
0.000

$$$$
VeraChem MOL file


 20 19  0  0  0  0  0  0  0  0999 V2000     
   21.0180   16.8771   24.4989 C   0  0  0  0  0  0  0  0  0  0  0  0
   21.6662   16.3988   23.7664 H   0  0  0  0  0  0  0  0  0  0  0  0
   20.9506   16.4179   25.4837 H   0  0  0  0  0  0  0  0  0  0  0  0
   20.3289   17.9825   24.2043 C   0  0  0  0  0  0  0  0  0  0  0  0
   19.6848   18.4453   24.9518 H   0  0  0  0  0  0  0  0  0  0  0  0
   20.3726   18.6762   22.8610 C   0  0  0  0  0  0  0  0  0  0  0  0
   21.2213   18.3059   22.2700 H   0  0  0  0  0  0  0  0  0  0  0  0
   20.5380   19.7499   23.0156 H   0  0  0  0  0  0  0  0  0  0  0  0
   19.0610   18.4489   22.0762 C   0  0  0  0  0  0  0  0  0  0  0  0
   18.8729   17.3686   22.0076 H   0  0  0  0  0  0  0  0  0  0  0  0
   18.2171   18.8757   22.6354 H   0  0  0  0  0  0  0  0  0  0  0  0
   19.0880   19.0369   20.6453 C   0  0  0  0  0  0  0  0  0  0  0  0
   18.1698   18.7346   20.1229 H   0  0  0  0  0  0  0  0  0  0  0  0
   19.9237   18.6011   20.0804 H   0  0  0  0  0  0  0  0  0  0  0  0
   19.1925   20.5839   20.6136 C   0  0  0  0  0  0  0  0  0  0  0  0
   18.3877   21.0300   21.2099 H   0  0  0  0  0  0  0  0  0  0  0  0
   20.1422   20.9163   21.0476 H   0  0  0  0  0  0  0  0  0  0  0  0
   19.1048   21.1513   19.2014 C   0  0  0  0  0  0  0  0  0  0  0  0
   20.1341   21.2739   18.5673 O   0  5  0  0  0  0  0  0  0  0  0  0
   18.0072   21.4373   18.7653 O   0  0  0  0  0  0  0  0  0  0  0  0
  1  2  1  0  0  0  0
  1  3  1  0  0  0  0
  1  4  2  0  0  0  0
  4  5  1  0  0  0  0
  4  6  1  0  0  0  0
  6  7  1  0  0  0  0
  6  8  1  0  0  0  0
  6  9  1  0  0  0  0
  9 10  1  0  0  0  0
  9 11  1  0  0  0  0
  9 12  1  0  0  0  0
 12 13  1  0  0  0  0
 12 14  1  0  0  0  0
 12 15  1  0  0  0  0
 15 16  1  0  0  0  0
 15 17  1  0  0  0  0
 15 18  1  0  0  0  0
 18 19  1  0  0  0  0
 18 20  2  0  0  0  0
M  END
> <VConfSearch Rank>
502

> <Conf_Id>
37

> <Delta U+W>
-0.384

> <U+W>
-52.130

> <U>
7.491

> <W>
-59.621

> <W(PB)>
-61.853

> <W(SA)>
2.232

> <Valence>
9.604

> <Coulomb>
-2.799

> <VdW>
0.686

> <VdW6>
-6.435

> <VdW12>
7.121

> <Bond>
0.124

> <Angle>
2.493

> <Pdih>
6.986

> <Idih>
0.001

> <Tether>
0.000

$$$$
VeraChem MOL file


 20 19  0  0  0  0  0  0  0  0999 V2000     
   16.5937   19.7432   21.2028 C   0  0  0  0  0  0  0  0  0  0  0  0
   15.5528   19.9839   20.9939 H   0  0  0  0  0  0  0  0  0  0  0  0
   17.2075   19.4427   20.3563 H   0  0  0  0  0  0  0  0  0  0  0  0
   17.0759   19.8196   22.4485 C   0  0  0  0  0  0  0  0  0  0  0  0
   16.4116   20.1270   23.2559 H   0  0  0  0  0  0  0  0  0  0  0  0
   18.4972   19.5169   22.8927 C   0  0  0  0  0  0  0  0  0  0  0  0
   18.4670   18.7345   23.6629 H   0  0  0  0  0  0  0  0  0  0  0  0
   18.9084   20.4058   23.3895 H   0  0  0  0  0  0  0  0  0  0  0  0
   19.4568   19.0785   21.7618 C   0  0  0  0  0  0  0  0  0  0  0  0
   19.0615   18.1769   21.2739 H   0  0  0  0  0  0  0  0  0  0  0  0
   19.5076   19.8662   20.9977 H   0  0  0  0  0  0  0  0  0  0  0  0
   20.8770   18.7907   22.2959 C   0  0  0  0  0  0  0  0  0  0  0  0
   20.8330   18.0032   23.0611 H   0  0  0  0  0  0  0  0  0  0  0  0
   21.2782   19.6891   22.7853 H   0  0  0  0  0  0  0  0  0  0  0  0
   21.8399   18.3516   21.1653 C   0  0  0  0  0  0  0  0  0  0  0  0
   21.4605   17.4472   20.6747 H   0  0  0  0  0  0  0  0  0  0  0  0
   21.9056   19.1331   20.3989 H   0  0  0  0  0  0  0  0  0  0  0  0
   23.2496   18.0615   21.6679 C   0  0  0  0  0  0  0  0  0  0  0  0
   23.5069   16.9317   22.0339 O   0  5  0  0  0  0  0  0  0  0  0  0
   24.0473   18.9777   21.6988 O   0  0  0  0  0  0  0  0  0  0  0  0
  1  2  1  0  0  0  0
  1  3  1  0  0  0  0
  1  4  2  0  0  0  0
  4  5  1  0  0  0  0
  4  6  1  0  0  0  0
  6  7  1  0  0  0  0
  6  8  1  0  0  0  0
  6  9  1  0  0  0  0
  9 10  1  0  0  0  0
  9 11  1  0  0  0  0
  9 12  1  0  0  0  0
 12 13  1  0  0  0  0
 12 14  1  0  0  0  0
 12 15  1  0  0  0  0
 15 16  1  0  0  0  0
 15 17  1  0  0  0  0
 15 18  1  0  0  0  0
 18 19  1  0  0  0  0
 18 20  2  0  0  0  0
M  END
> <VConfSearch Rank>
503

> <Conf_Id>
44

> <Delta U+W>
-1.440

> <U+W>
-53.185

> <U>
6.572

> <W>
-59.757

> <W(PB)>
-62.007

> <W(SA)>
2.249

> <Valence>
7.989

> <Coulomb>
-2.697

> <VdW>
1.281

> <VdW6>
-6.467

> <VdW12>
7.748

> <Bond>
0.136

> <Angle>
2.854

> <Pdih>
4.997

> <Idih>
0.001

> <Tether>
0.000

$$$$
VeraChem MOL file


 20 19  0  0  0  0  0  0  0  0999 V2000     
   20.4532   17.2722   19.0418 C   0  0  0  0  0  0  0  0  0  0  0  0
   21.1338   18.1078   18.8866 H   0  0  0  0  0  0  0  0  0  0  0  0
   20.2524   16.6248   18.1899 H   0  0  0  0  0  0  0  0  0  0  0  0
   19.8826   17.0483   20.2284 C   0  0  0  0  0  0  0  0  0  0  0  0
   19.2036   16.2064   20.3624 H   0  0  0  0  0  0  0  0  0  0  0  0
   20.1142   17.9021   21.4553 C   0  0  0  0  0  0  0  0  0  0  0  0
   20.9961   18.5381   21.3057 H   0  0  0  0  0  0  0  0  0  0  0  0
   20.3313   17.2558   22.3161 H   0  0  0  0  0  0  0  0  0  0  0  0
   18.8789   18.7780   21.7632 C   0  0  0  0  0  0  0  0  0  0  0  0
   18.6952   19.4626   20.9238 H   0  0  0  0  0  0  0  0  0  0  0  0
   17.9935   18.1313   21.8349 H   0  0  0  0  0  0  0  0  0  0  0  0
   19.0065   19.5861   23.0766 C   0  0  0  0  0  0  0  0  0  0  0  0
   19.1806   18.9018   23.9185 H   0  0  0  0  0  0  0  0  0  0  0  0
   18.0487   20.0862   23.2767 H   0  0  0  0  0  0  0  0  0  0  0  0
   20.1282   20.6563   23.0385 C   0  0  0  0  0  0  0  0  0  0  0  0
   21.1108   20.1832   22.9314 H   0  0  0  0  0  0  0  0  0  0  0  0
   19.9899   21.3191   22.1760 H   0  0  0  0  0  0  0  0  0  0  0  0
   20.1635   21.5176   24.2958 C   0  0  0  0  0  0  0  0  0  0  0  0
   19.4988   22.5348   24.3131 O   0  5  0  0  0  0  0  0  0  0  0  0
   20.8390   21.1387   25.2322 O   0  0  0  0  0  0  0  0  0  0  0  0
  1  2  1  0  0  0  0
  1  3  1  0  0  0  0
  1  4  2  0  0  0  0
  4  5  1  0  0  0  0
  4  6  1  0  0  0  0
  6  7  1  0  0  0  0
  6  8  1  0  0  0  0
  6  9  1  0  0  0  0
  9 10  1  0  0  0  0
  9 11  1  0  0  0  0
  9 12  1  0  0  0  0
 12 13  1  0  0  0  0
 12 14  1  0  0  0  0
 12 15  1  0  0  0  0
 15 16  1  0  0  0  0
 15 17  1  0  0  0  0
 15 18  1  0  0  0  0
 18 19  1  0  0  0  0
 18 20  2  0  0  0  0
M  END
> <VConfSearch Rank>
504

> <Conf_Id>
38

> <Delta U+W>
-0.381

> <U+W>
-52.126

> <U>
7.601

> <W>
-59.727

> <W(PB)>
-61.964

> <W(SA)>
2.236

> <Valence>
9.602

> <Coulomb>
-2.686

> <VdW>
0.685

> <VdW6>
-6.453

> <VdW12>
7.139

> <Bond>
0.125

> <Angle>
2.485

> <Pdih>
6.991

> <Idih>
0.001

> <Tether>
0.000

$$$$
VeraChem MOL file


 20 19  0  0  0  0  0  0  0  0999 V2000     
   23.1436   18.3630   21.5936 C   0  0  0  0  0  0  0  0  0  0  0  0
   23.0275   18.2229   20.5201 H   0  0  0  0  0  0  0  0  0  0  0  0
   24.1474   18.5568   21.9679 H   0  0  0  0  0  0  0  0  0  0  0  0
   22.0979   18.3026   22.4222 C   0  0  0  0  0  0  0  0  0  0  0  0
   22.2356   18.4466   23.4937 H   0  0  0  0  0  0  0  0  0  0  0  0
   20.6771   18.0372   21.9764 C   0  0  0  0  0  0  0  0  0  0  0  0
   20.2343   17.2548   22.6071 H   0  0  0  0  0  0  0  0  0  0  0  0
   20.6668   17.6565   20.9461 H   0  0  0  0  0  0  0  0  0  0  0  0
   19.8186   19.3166   22.0608 C   0  0  0  0  0  0  0  0  0  0  0  0
   19.8288   19.6941   23.0927 H   0  0  0  0  0  0  0  0  0  0  0  0
   20.2674   20.0984   21.4325 H   0  0  0  0  0  0  0  0  0  0  0  0
   18.3621   19.0621   21.6112 C   0  0  0  0  0  0  0  0  0  0  0  0
   17.9068   18.2880   22.2446 H   0  0  0  0  0  0  0  0  0  0  0  0
   18.3630   18.6706   20.5849 H   0  0  0  0  0  0  0  0  0  0  0  0
   17.4904   20.3438   21.6601 C   0  0  0  0  0  0  0  0  0  0  0  0
   17.9470   21.1359   21.0543 H   0  0  0  0  0  0  0  0  0  0  0  0
   16.5074   20.1354   21.2216 H   0  0  0  0  0  0  0  0  0  0  0  0
   17.2568   20.8814   23.0690 C   0  0  0  0  0  0  0  0  0  0  0  0
   17.8683   21.8727   23.4160 O   0  5  0  0  0  0  0  0  0  0  0  0
   16.4599   20.2997   23.7787 O   0  0  0  0  0  0  0  0  0  0  0  0
  1  2  1  0  0  0  0
  1  3  1  0  0  0  0
  1  4  2  0  0  0  0
  4  5  1  0  0  0  0
  4  6  1  0  0  0  0
  6  7  1  0  0  0  0
  6  8  1  0  0  0  0
  6  9  1  0  0  0  0
  9 10  1  0  0  0  0
  9 11  1  0  0  0  0
  9 12  1  0  0  0  0
 12 13  1  0  0  0  0
 12 14  1  0  0  0  0
 12 15  1  0  0  0  0
 15 16  1  0  0  0  0
 15 17  1  0  0  0  0
 15 18  1  0  0  0  0
 18 19  1  0  0  0  0
 18 20  2  0  0  0  0
M  END
> <VConfSearch Rank>
505

> <Conf_Id>
58

> <Delta U+W>
0.019

> <U+W>
-51.727

> <U>
8.963

> <W>
-60.690

> <W(PB)>
-62.934

> <W(SA)>
2.244

> <Valence>
9.327

> <Coulomb>
-0.780

> <VdW>
0.417

> <VdW6>
-6.635

> <VdW12>
7.052

> <Bond>
0.105

> <Angle>
2.399

> <Pdih>
6.822

> <Idih>
0.000

> <Tether>
0.000

$$$$
VeraChem MOL file


 20 19  0  0  0  0  0  0  0  0999 V2000     
   20.4945   17.9949   18.7861 C   0  0  0  0  0  0  0  0  0  0  0  0
   20.5904   16.9689   19.1377 H   0  0  0  0  0  0  0  0  0  0  0  0
   20.9819   18.2502   17.8467 H   0  0  0  0  0  0  0  0  0  0  0  0
   19.8088   18.9084   19.4783 C   0  0  0  0  0  0  0  0  0  0  0  0
   19.7256   19.9304   19.1092 H   0  0  0  0  0  0  0  0  0  0  0  0
   19.1060   18.6280   20.7879 C   0  0  0  0  0  0  0  0  0  0  0  0
   19.0226   17.5448   20.9504 H   0  0  0  0  0  0  0  0  0  0  0  0
   18.0814   19.0212   20.7465 H   0  0  0  0  0  0  0  0  0  0  0  0
   19.8584   19.2696   21.9725 C   0  0  0  0  0  0  0  0  0  0  0  0
   20.8841   18.8774   22.0078 H   0  0  0  0  0  0  0  0  0  0  0  0
   19.9383   20.3532   21.8086 H   0  0  0  0  0  0  0  0  0  0  0  0
   19.1513   18.9950   23.3190 C   0  0  0  0  0  0  0  0  0  0  0  0
   19.0620   17.9102   23.4666 H   0  0  0  0  0  0  0  0  0  0  0  0
   18.1283   19.3956   23.2909 H   0  0  0  0  0  0  0  0  0  0  0  0
   19.9091   19.6063   24.5260 C   0  0  0  0  0  0  0  0  0  0  0  0
   19.4332   19.2832   25.4593 H   0  0  0  0  0  0  0  0  0  0  0  0
   20.9416   19.2371   24.5516 H   0  0  0  0  0  0  0  0  0  0  0  0
   19.9370   21.1321   24.5324 C   0  0  0  0  0  0  0  0  0  0  0  0
   18.9247   21.7216   24.8560 O   0  5  0  0  0  0  0  0  0  0  0  0
   20.9717   21.6905   24.2249 O   0  0  0  0  0  0  0  0  0  0  0  0
  1  2  1  0  0  0  0
  1  3  1  0  0  0  0
  1  4  2  0  0  0  0
  4  5  1  0  0  0  0
  4  6  1  0  0  0  0
  6  7  1  0  0  0  0
  6  8  1  0  0  0  0
  6  9  1  0  0  0  0
  9 10  1  0  0  0  0
  9 11  1  0  0  0  0
  9 12  1  0  0  0  0
 12 13  1  0  0  0  0
 12 14  1  0  0  0  0
 12 15  1  0  0  0  0
 15 16  1  0  0  0  0
 15 17  1  0  0  0  0
 15 18  1  0  0  0  0
 18 19  1  0  0  0  0
 18 20  2  0  0  0  0
M  END
> <VConfSearch Rank>
506

> <Conf_Id>
54

> <Delta U+W>
-0.048

> <U+W>
-51.793

> <U>
8.964

> <W>
-60.756

> <W(PB)>
-63.007

> <W(SA)>
2.251

> <Valence>
9.327

> <Coulomb>
-0.780

> <VdW>
0.417

> <VdW6>
-6.635

> <VdW12>
7.052

> <Bond>
0.105

> <Angle>
2.399

> <Pdih>
6.822

> <Idih>
0.000

> <Tether>
0.000

$$$$
VeraChem MOL file


 20 19  0  0  0  0  0  0  0  0999 V2000     
   22.5182   20.1292   23.6741 C   0  0  0  0  0  0  0  0  0  0  0  0
   23.2964   20.8577   23.4533 H   0  0  0  0  0  0  0  0  0  0  0  0
   22.1817   20.0526   24.7068 H   0  0  0  0  0  0  0  0  0  0  0  0
   21.9969   19.3631   22.7123 C   0  0  0  0  0  0  0  0  0  0  0  0
   22.3507   19.4535   21.6857 H   0  0  0  0  0  0  0  0  0  0  0  0
   20.9192   18.3259   22.9457 C   0  0  0  0  0  0  0  0  0  0  0  0
   20.8926   18.0530   24.0094 H   0  0  0  0  0  0  0  0  0  0  0  0
   21.1610   17.4050   22.3985 H   0  0  0  0  0  0  0  0  0  0  0  0
   19.5183   18.8277   22.5288 C   0  0  0  0  0  0  0  0  0  0  0  0
   18.7709   18.0892   22.8497 H   0  0  0  0  0  0  0  0  0  0  0  0
   19.2888   19.7584   23.0657 H   0  0  0  0  0  0  0  0  0  0  0  0
   19.3904   19.0571   21.0040 C   0  0  0  0  0  0  0  0  0  0  0  0
   19.6341   18.1304   20.4661 H   0  0  0  0  0  0  0  0  0  0  0  0
   20.1222   19.8104   20.6839 H   0  0  0  0  0  0  0  0  0  0  0  0
   17.9738   19.5338   20.5902 C   0  0  0  0  0  0  0  0  0  0  0  0
   17.7025   20.4404   21.1445 H   0  0  0  0  0  0  0  0  0  0  0  0
   17.9730   19.7998   19.5266 H   0  0  0  0  0  0  0  0  0  0  0  0
   16.8813   18.4891   20.7995 C   0  0  0  0  0  0  0  0  0  0  0  0
   16.1243   18.6278   21.7402 O   0  5  0  0  0  0  0  0  0  0  0  0
   16.8099   17.5690   20.0086 O   0  0  0  0  0  0  0  0  0  0  0  0
  1  2  1  0  0  0  0
  1  3  1  0  0  0  0
  1  4  2  0  0  0  0
  4  5  1  0  0  0  0
  4  6  1  0  0  0  0
  6  7  1  0  0  0  0
  6  8  1  0  0  0  0
  6  9  1  0  0  0  0
  9 10  1  0  0  0  0
  9 11  1  0  0  0  0
  9 12  1  0  0  0  0
 12 13  1  0  0  0  0
 12 14  1  0  0  0  0
 12 15  1  0  0  0  0
 15 16  1  0  0  0  0
 15 17  1  0  0  0  0
 15 18  1  0  0  0  0
 18 19  1  0  0  0  0
 18 20  2  0  0  0  0
M  END
> <VConfSearch Rank>
507

> <Conf_Id>
27

> <Delta U+W>
0.478

> <U+W>
-51.267

> <U>
9.192

> <W>
-60.459

> <W(PB)>
-62.649

> <W(SA)>
2.190

> <Valence>
9.572

> <Coulomb>
-0.884

> <VdW>
0.504

> <VdW6>
-7.168

> <VdW12>
7.672

> <Bond>
0.127

> <Angle>
2.504

> <Pdih>
6.941

> <Idih>
0.001

> <Tether>
0.000

$$$$
VeraChem MOL file


 20 19  0  0  0  0  0  0  0  0999 V2000     
   19.1567   15.5756   21.2194 C   0  0  0  0  0  0  0  0  0  0  0  0
   18.6214   15.1495   22.0664 H   0  0  0  0  0  0  0  0  0  0  0  0
   19.7995   14.9096   20.6464 H   0  0  0  0  0  0  0  0  0  0  0  0
   19.0349   16.8654   20.8948 C   0  0  0  0  0  0  0  0  0  0  0  0
   19.5774   17.2707   20.0411 H   0  0  0  0  0  0  0  0  0  0  0  0
   18.1566   17.8476   21.6402 C   0  0  0  0  0  0  0  0  0  0  0  0
   17.4039   17.3016   22.2248 H   0  0  0  0  0  0  0  0  0  0  0  0
   17.5996   18.4684   20.9257 H   0  0  0  0  0  0  0  0  0  0  0  0
   18.9660   18.7520   22.5967 C   0  0  0  0  0  0  0  0  0  0  0  0
   18.2653   19.3451   23.2002 H   0  0  0  0  0  0  0  0  0  0  0  0
   19.5332   18.1252   23.2986 H   0  0  0  0  0  0  0  0  0  0  0  0
   19.9276   19.7064   21.8519 C   0  0  0  0  0  0  0  0  0  0  0  0
   19.3624   20.3142   21.1318 H   0  0  0  0  0  0  0  0  0  0  0  0
   20.6597   19.1257   21.2744 H   0  0  0  0  0  0  0  0  0  0  0  0
   20.6819   20.6411   22.8293 C   0  0  0  0  0  0  0  0  0  0  0  0
   19.9686   21.2430   23.4049 H   0  0  0  0  0  0  0  0  0  0  0  0
   21.2611   20.0489   23.5479 H   0  0  0  0  0  0  0  0  0  0  0  0
   21.6385   21.5921   22.1190 C   0  0  0  0  0  0  0  0  0  0  0  0
   22.7830   21.2258   21.9383 O   0  5  0  0  0  0  0  0  0  0  0  0
   21.2092   22.6671   21.7494 O   0  0  0  0  0  0  0  0  0  0  0  0
  1  2  1  0  0  0  0
  1  3  1  0  0  0  0
  1  4  2  0  0  0  0
  4  5  1  0  0  0  0
  4  6  1  0  0  0  0
  6  7  1  0  0  0  0
  6  8  1  0  0  0  0
  6  9  1  0  0  0  0
  9 10  1  0  0  0  0
  9 11  1  0  0  0  0
  9 12  1  0  0  0  0
 12 13  1  0  0  0  0
 12 14  1  0  0  0  0
 12 15  1  0  0  0  0
 15 16  1  0  0  0  0
 15 17  1  0  0  0  0
 15 18  1  0  0  0  0
 18 19  1  0  0  0  0
 18 20  2  0  0  0  0
M  END
> <VConfSearch Rank>
508

> <Conf_Id>
41

> <Delta U+W>
-0.634

> <U+W>
-52.379

> <U>
7.828

> <W>
-60.207

> <W(PB)>
-62.449

> <W(SA)>
2.242

> <Valence>
9.300

> <Coulomb>
-2.080

> <VdW>
0.608

> <VdW6>
-6.341

> <VdW12>
6.949

> <Bond>
0.103

> <Angle>
2.334

> <Pdih>
6.862

> <Idih>
0.001

> <Tether>
0.000

$$$$
VeraChem MOL file


 20 19  0  0  0  0  0  0  0  0999 V2000     
   16.8464   18.7983   20.6170 C   0  0  0  0  0  0  0  0  0  0  0  0
   16.2873   18.7825   19.6829 H   0  0  0  0  0  0  0  0  0  0  0  0
   16.3272   18.4735   21.5173 H   0  0  0  0  0  0  0  0  0  0  0  0
   18.1199   19.1990   20.6523 C   0  0  0  0  0  0  0  0  0  0  0  0
   18.6219   19.5197   19.7398 H   0  0  0  0  0  0  0  0  0  0  0  0
   18.9587   19.2489   21.9099 C   0  0  0  0  0  0  0  0  0  0  0  0
   18.3181   19.1629   22.7980 H   0  0  0  0  0  0  0  0  0  0  0  0
   19.4586   20.2244   21.9701 H   0  0  0  0  0  0  0  0  0  0  0  0
   20.0105   18.1172   21.9205 C   0  0  0  0  0  0  0  0  0  0  0  0
   19.5004   17.1576   21.7590 H   0  0  0  0  0  0  0  0  0  0  0  0
   20.6983   18.2471   21.0736 H   0  0  0  0  0  0  0  0  0  0  0  0
   20.8142   18.0318   23.2415 C   0  0  0  0  0  0  0  0  0  0  0  0
   21.4799   17.1589   23.1945 H   0  0  0  0  0  0  0  0  0  0  0  0
   20.1226   17.8464   24.0744 H   0  0  0  0  0  0  0  0  0  0  0  0
   21.6659   19.2916   23.5577 C   0  0  0  0  0  0  0  0  0  0  0  0
   21.0242   20.1707   23.6859 H   0  0  0  0  0  0  0  0  0  0  0  0
   22.1874   19.1470   24.5111 H   0  0  0  0  0  0  0  0  0  0  0  0
   22.7244   19.6083   22.5051 C   0  0  0  0  0  0  0  0  0  0  0  0
   23.6978   18.8837   22.4361 O   0  5  0  0  0  0  0  0  0  0  0  0
   22.5575   20.5800   21.7946 O   0  0  0  0  0  0  0  0  0  0  0  0
  1  2  1  0  0  0  0
  1  3  1  0  0  0  0
  1  4  2  0  0  0  0
  4  5  1  0  0  0  0
  4  6  1  0  0  0  0
  6  7  1  0  0  0  0
  6  8  1  0  0  0  0
  6  9  1  0  0  0  0
  9 10  1  0  0  0  0
  9 11  1  0  0  0  0
  9 12  1  0  0  0  0
 12 13  1  0  0  0  0
 12 14  1  0  0  0  0
 12 15  1  0  0  0  0
 15 16  1  0  0  0  0
 15 17  1  0  0  0  0
 15 18  1  0  0  0  0
 18 19  1  0  0  0  0
 18 20  2  0  0  0  0
M  END
> <VConfSearch Rank>
509

> <Conf_Id>
84

> <Delta U+W>
0.942

> <U+W>
-50.803

> <U>
10.196

> <W>
-60.999

> <W(PB)>
-63.182

> <W(SA)>
2.182

> <Valence>
9.837

> <Coulomb>
0.032

> <VdW>
0.328

> <VdW6>
-7.642

> <VdW12>
7.969

> <Bond>
0.151

> <Angle>
2.748

> <Pdih>
6.937

> <Idih>
0.001

> <Tether>
0.000

$$$$
VeraChem MOL file


 20 19  0  0  0  0  0  0  0  0999 V2000     
   22.5196   20.0727   20.3238 C   0  0  0  0  0  0  0  0  0  0  0  0
   23.3587   19.6996   19.7391 H   0  0  0  0  0  0  0  0  0  0  0  0
   21.9825   20.9363   19.9346 H   0  0  0  0  0  0  0  0  0  0  0  0
   22.1646   19.4896   21.4716 C   0  0  0  0  0  0  0  0  0  0  0  0
   22.7150   18.6255   21.8433 H   0  0  0  0  0  0  0  0  0  0  0  0
   21.0130   19.9516   22.3366 C   0  0  0  0  0  0  0  0  0  0  0  0
   20.6878   20.9558   22.0322 H   0  0  0  0  0  0  0  0  0  0  0  0
   21.3461   20.0300   23.3802 H   0  0  0  0  0  0  0  0  0  0  0  0
   19.8209   18.9762   22.2452 C   0  0  0  0  0  0  0  0  0  0  0  0
   19.4972   18.8977   21.1980 H   0  0  0  0  0  0  0  0  0  0  0  0
   20.1445   17.9725   22.5534 H   0  0  0  0  0  0  0  0  0  0  0  0
   18.6363   19.4324   23.1266 C   0  0  0  0  0  0  0  0  0  0  0  0
   18.3009   20.4304   22.8118 H   0  0  0  0  0  0  0  0  0  0  0  0
   18.9743   19.5264   24.1675 H   0  0  0  0  0  0  0  0  0  0  0  0
   17.4393   18.4479   23.0733 C   0  0  0  0  0  0  0  0  0  0  0  0
   17.7644   17.4402   23.3592 H   0  0  0  0  0  0  0  0  0  0  0  0
   16.6796   18.7550   23.8016 H   0  0  0  0  0  0  0  0  0  0  0  0
   16.7593   18.3718   21.7092 C   0  0  0  0  0  0  0  0  0  0  0  0
   16.9613   17.3922   21.0189 O   0  5  0  0  0  0  0  0  0  0  0  0
   16.0343   19.2897   21.3792 O   0  0  0  0  0  0  0  0  0  0  0  0
  1  2  1  0  0  0  0
  1  3  1  0  0  0  0
  1  4  2  0  0  0  0
  4  5  1  0  0  0  0
  4  6  1  0  0  0  0
  6  7  1  0  0  0  0
  6  8  1  0  0  0  0
  6  9  1  0  0  0  0
  9 10  1  0  0  0  0
  9 11  1  0  0  0  0
  9 12  1  0  0  0  0
 12 13  1  0  0  0  0
 12 14  1  0  0  0  0
 12 15  1  0  0  0  0
 15 16  1  0  0  0  0
 15 17  1  0  0  0  0
 15 18  1  0  0  0  0
 18 19  1  0  0  0  0
 18 20  2  0  0  0  0
M  END
> <VConfSearch Rank>
510

> <Conf_Id>
81

> <Delta U+W>
-0.051

> <U+W>
-51.796

> <U>
9.412

> <W>
-61.209

> <W(PB)>
-63.452

> <W(SA)>
2.243

> <Valence>
9.329

> <Coulomb>
-0.323

> <VdW>
0.406

> <VdW6>
-6.640

> <VdW12>
7.046

> <Bond>
0.105

> <Angle>
2.401

> <Pdih>
6.823

> <Idih>
0.000

> <Tether>
0.000

$$$$
VeraChem MOL file


 20 19  0  0  0  0  0  0  0  0999 V2000     
   19.6822   22.2010   22.9266 C   0  0  0  0  0  0  0  0  0  0  0  0
   20.5113   22.6791   22.4075 H   0  0  0  0  0  0  0  0  0  0  0  0
   18.9320   22.8490   23.3765 H   0  0  0  0  0  0  0  0  0  0  0  0
   19.5840   20.8715   23.0079 C   0  0  0  0  0  0  0  0  0  0  0  0
   18.7473   20.4131   23.5342 H   0  0  0  0  0  0  0  0  0  0  0  0
   20.5894   19.9089   22.4130 C   0  0  0  0  0  0  0  0  0  0  0  0
   20.8252   19.1165   23.1351 H   0  0  0  0  0  0  0  0  0  0  0  0
   21.5362   20.4324   22.2238 H   0  0  0  0  0  0  0  0  0  0  0  0
   20.0980   19.2877   21.0836 C   0  0  0  0  0  0  0  0  0  0  0  0
   19.9520   20.0923   20.3500 H   0  0  0  0  0  0  0  0  0  0  0  0
   20.8907   18.6451   20.6765 H   0  0  0  0  0  0  0  0  0  0  0  0
   18.7851   18.4705   21.1962 C   0  0  0  0  0  0  0  0  0  0  0  0
   18.5144   18.1004   20.1977 H   0  0  0  0  0  0  0  0  0  0  0  0
   17.9664   19.1333   21.5062 H   0  0  0  0  0  0  0  0  0  0  0  0
   18.8608   17.2635   22.1707 C   0  0  0  0  0  0  0  0  0  0  0  0
   19.0552   17.6049   23.1938 H   0  0  0  0  0  0  0  0  0  0  0  0
   17.8908   16.7536   22.1929 H   0  0  0  0  0  0  0  0  0  0  0  0
   19.9124   16.2239   21.7940 C   0  0  0  0  0  0  0  0  0  0  0  0
   20.9110   16.1388   22.4814 O   0  5  0  0  0  0  0  0  0  0  0  0
   19.6960   15.5138   20.8315 O   0  0  0  0  0  0  0  0  0  0  0  0
  1  2  1  0  0  0  0
  1  3  1  0  0  0  0
  1  4  2  0  0  0  0
  4  5  1  0  0  0  0
  4  6  1  0  0  0  0
  6  7  1  0  0  0  0
  6  8  1  0  0  0  0
  6  9  1  0  0  0  0
  9 10  1  0  0  0  0
  9 11  1  0  0  0  0
  9 12  1  0  0  0  0
 12 13  1  0  0  0  0
 12 14  1  0  0  0  0
 12 15  1  0  0  0  0
 15 16  1  0  0  0  0
 15 17  1  0  0  0  0
 15 18  1  0  0  0  0
 18 19  1  0  0  0  0
 18 20  2  0  0  0  0
M  END
> <VConfSearch Rank>
511

> <Conf_Id>
86

> <Delta U+W>
1.248

> <U+W>
-50.498

> <U>
10.404

> <W>
-60.901

> <W(PB)>
-63.061

> <W(SA)>
2.159

> <Valence>
10.021

> <Coulomb>
0.094

> <VdW>
0.289

> <VdW6>
-8.409

> <VdW12>
8.698

> <Bond>
0.179

> <Angle>
2.939

> <Pdih>
6.902

> <Idih>
0.001

> <Tether>
0.000

$$$$
VeraChem MOL file


 20 19  0  0  0  0  0  0  0  0999 V2000     
   22.5508   20.4662   21.4893 C   0  0  0  0  0  0  0  0  0  0  0  0
   22.9238   21.4555   21.2299 H   0  0  0  0  0  0  0  0  0  0  0  0
   22.9202   20.0165   22.4095 H   0  0  0  0  0  0  0  0  0  0  0  0
   21.6713   19.8334   20.7081 C   0  0  0  0  0  0  0  0  0  0  0  0
   21.3124   20.3021   19.7921 H   0  0  0  0  0  0  0  0  0  0  0  0
   21.1082   18.4593   21.0027 C   0  0  0  0  0  0  0  0  0  0  0  0
   21.6645   17.9801   21.8197 H   0  0  0  0  0  0  0  0  0  0  0  0
   21.2426   17.8201   20.1200 H   0  0  0  0  0  0  0  0  0  0  0  0
   19.6054   18.5055   21.3599 C   0  0  0  0  0  0  0  0  0  0  0  0
   19.0488   18.9881   20.5449 H   0  0  0  0  0  0  0  0  0  0  0  0
   19.2280   17.4761   21.4296 H   0  0  0  0  0  0  0  0  0  0  0  0
   19.3308   19.2440   22.6913 C   0  0  0  0  0  0  0  0  0  0  0  0
   19.7015   20.2754   22.6205 H   0  0  0  0  0  0  0  0  0  0  0  0
   19.8906   18.7634   23.5054 H   0  0  0  0  0  0  0  0  0  0  0  0
   17.8234   19.2791   23.0541 C   0  0  0  0  0  0  0  0  0  0  0  0
   17.6734   19.9150   23.9345 H   0  0  0  0  0  0  0  0  0  0  0  0
   17.2474   19.7284   22.2360 H   0  0  0  0  0  0  0  0  0  0  0  0
   17.2299   17.9100   23.3736 C   0  0  0  0  0  0  0  0  0  0  0  0
   17.4802   17.4160   24.4555 O   0  5  0  0  0  0  0  0  0  0  0  0
   16.5245   17.3789   22.5385 O   0  0  0  0  0  0  0  0  0  0  0  0
  1  2  1  0  0  0  0
  1  3  1  0  0  0  0
  1  4  2  0  0  0  0
  4  5  1  0  0  0  0
  4  6  1  0  0  0  0
  6  7  1  0  0  0  0
  6  8  1  0  0  0  0
  6  9  1  0  0  0  0
  9 10  1  0  0  0  0
  9 11  1  0  0  0  0
  9 12  1  0  0  0  0
 12 13  1  0  0  0  0
 12 14  1  0  0  0  0
 12 15  1  0  0  0  0
 15 16  1  0  0  0  0
 15 17  1  0  0  0  0
 15 18  1  0  0  0  0
 18 19  1  0  0  0  0
 18 20  2  0  0  0  0
M  END
> <VConfSearch Rank>
512

> <Conf_Id>
28

> <Delta U+W>
0.446

> <U+W>
-51.299

> <U>
9.295

> <W>
-60.594

> <W(PB)>
-62.806

> <W(SA)>
2.212

> <Valence>
9.495

> <Coulomb>
-0.610

> <VdW>
0.409

> <VdW6>
-7.332

> <VdW12>
7.741

> <Bond>
0.126

> <Angle>
2.497

> <Pdih>
6.872

> <Idih>
0.000

> <Tether>
0.000

$$$$
VeraChem MOL file


 20 19  0  0  0  0  0  0  0  0999 V2000     
   19.5420   20.6226   24.9622 C   0  0  0  0  0  0  0  0  0  0  0  0
   19.8817   19.6022   25.1263 H   0  0  0  0  0  0  0  0  0  0  0  0
   19.5293   21.2814   25.8288 H   0  0  0  0  0  0  0  0  0  0  0  0
   19.1577   21.0670   23.7603 C   0  0  0  0  0  0  0  0  0  0  0  0
   18.8294   22.1011   23.6580 H   0  0  0  0  0  0  0  0  0  0  0  0
   19.1193   20.2710   22.4663 C   0  0  0  0  0  0  0  0  0  0  0  0
   19.8053   20.7413   21.7501 H   0  0  0  0  0  0  0  0  0  0  0  0
   18.1174   20.3638   22.0267 H   0  0  0  0  0  0  0  0  0  0  0  0
   19.4678   18.7691   22.6127 C   0  0  0  0  0  0  0  0  0  0  0  0
   20.5019   18.6632   22.9685 H   0  0  0  0  0  0  0  0  0  0  0  0
   18.8229   18.3257   23.3835 H   0  0  0  0  0  0  0  0  0  0  0  0
   19.2826   17.9618   21.3039 C   0  0  0  0  0  0  0  0  0  0  0  0
   18.2350   18.0311   20.9812 H   0  0  0  0  0  0  0  0  0  0  0  0
   19.4691   16.8997   21.5151 H   0  0  0  0  0  0  0  0  0  0  0  0
   20.2054   18.4062   20.1363 C   0  0  0  0  0  0  0  0  0  0  0  0
   19.9965   17.7895   19.2544 H   0  0  0  0  0  0  0  0  0  0  0  0
   19.9932   19.4417   19.8471 H   0  0  0  0  0  0  0  0  0  0  0  0
   21.6963   18.2776   20.4357 C   0  0  0  0  0  0  0  0  0  0  0  0
   22.1718   17.1612   20.5071 O   0  5  0  0  0  0  0  0  0  0  0  0
   22.3469   19.2954   20.5685 O   0  0  0  0  0  0  0  0  0  0  0  0
  1  2  1  0  0  0  0
  1  3  1  0  0  0  0
  1  4  2  0  0  0  0
  4  5  1  0  0  0  0
  4  6  1  0  0  0  0
  6  7  1  0  0  0  0
  6  8  1  0  0  0  0
  6  9  1  0  0  0  0
  9 10  1  0  0  0  0
  9 11  1  0  0  0  0
  9 12  1  0  0  0  0
 12 13  1  0  0  0  0
 12 14  1  0  0  0  0
 12 15  1  0  0  0  0
 15 16  1  0  0  0  0
 15 17  1  0  0  0  0
 15 18  1  0  0  0  0
 18 19  1  0  0  0  0
 18 20  2  0  0  0  0
M  END
> <VConfSearch Rank>
513

> <Conf_Id>
53

> <Delta U+W>
0.549

> <U+W>
-51.197

> <U>
10.870

> <W>
-62.067

> <W(PB)>
-64.228

> <W(SA)>
2.161

> <Valence>
8.803

> <Coulomb>
1.020

> <VdW>
1.048

> <VdW6>
-8.312

> <VdW12>
9.360

> <Bond>
0.212

> <Angle>
3.379

> <Pdih>
5.211

> <Idih>
0.001

> <Tether>
0.000

$$$$
VeraChem MOL file


 20 19  0  0  0  0  0  0  0  0999 V2000     
   17.9271   19.8857   23.9883 C   0  0  0  0  0  0  0  0  0  0  0  0
   17.3591   19.0272   23.6369 H   0  0  0  0  0  0  0  0  0  0  0  0
   17.3586   20.7305   24.3731 H   0  0  0  0  0  0  0  0  0  0  0  0
   19.2639   19.9144   23.9613 C   0  0  0  0  0  0  0  0  0  0  0  0
   19.7846   20.7984   24.3284 H   0  0  0  0  0  0  0  0  0  0  0  0
   20.1795   18.8149   23.4488 C   0  0  0  0  0  0  0  0  0  0  0  0
   20.5464   18.2347   24.3056 H   0  0  0  0  0  0  0  0  0  0  0  0
   21.0786   19.2719   23.0157 H   0  0  0  0  0  0  0  0  0  0  0  0
   19.5593   17.8482   22.4064 C   0  0  0  0  0  0  0  0  0  0  0  0
   20.2940   17.0646   22.1761 H   0  0  0  0  0  0  0  0  0  0  0  0
   18.7039   17.3270   22.8556 H   0  0  0  0  0  0  0  0  0  0  0  0
   19.1120   18.5207   21.0818 C   0  0  0  0  0  0  0  0  0  0  0  0
   18.3239   19.2561   21.2886 H   0  0  0  0  0  0  0  0  0  0  0  0
   18.6545   17.7576   20.4372 H   0  0  0  0  0  0  0  0  0  0  0  0
   20.2556   19.2160   20.2938 C   0  0  0  0  0  0  0  0  0  0  0  0
   19.8465   19.6640   19.3809 H   0  0  0  0  0  0  0  0  0  0  0  0
   20.6813   20.0395   20.8783 H   0  0  0  0  0  0  0  0  0  0  0  0
   21.3840   18.2786   19.8737 C   0  0  0  0  0  0  0  0  0  0  0  0
   22.4551   18.3759   20.4397 O   0  5  0  0  0  0  0  0  0  0  0  0
   21.1666   17.4868   18.9775 O   0  0  0  0  0  0  0  0  0  0  0  0
  1  2  1  0  0  0  0
  1  3  1  0  0  0  0
  1  4  2  0  0  0  0
  4  5  1  0  0  0  0
  4  6  1  0  0  0  0
  6  7  1  0  0  0  0
  6  8  1  0  0  0  0
  6  9  1  0  0  0  0
  9 10  1  0  0  0  0
  9 11  1  0  0  0  0
  9 12  1  0  0  0  0
 12 13  1  0  0  0  0
 12 14  1  0  0  0  0
 12 15  1  0  0  0  0
 15 16  1  0  0  0  0
 15 17  1  0  0  0  0
 15 18  1  0  0  0  0
 18 19  1  0  0  0  0
 18 20  2  0  0  0  0
M  END
> <VConfSearch Rank>
514

> <Conf_Id>
66

> <Delta U+W>
1.737

> <U+W>
-50.008

> <U>
11.091

> <W>
-61.099

> <W(PB)>
-63.213

> <W(SA)>
2.114

> <Valence>
9.664

> <Coulomb>
0.658

> <VdW>
0.769

> <VdW6>
-9.171

> <VdW12>
9.940

> <Bond>
0.244

> <Angle>
3.658

> <Pdih>
5.762

> <Idih>
0.001

> <Tether>
0.000

$$$$
VeraChem MOL file


 20 19  0  0  0  0  0  0  0  0999 V2000     
   16.9269   18.4357   22.0021 C   0  0  0  0  0  0  0  0  0  0  0  0
   17.1608   18.3534   20.9430 H   0  0  0  0  0  0  0  0  0  0  0  0
   16.1874   17.7427   22.3996 H   0  0  0  0  0  0  0  0  0  0  0  0
   17.5080   19.3449   22.7923 C   0  0  0  0  0  0  0  0  0  0  0  0
   17.2344   19.3849   23.8463 H   0  0  0  0  0  0  0  0  0  0  0  0
   18.5550   20.3662   22.3783 C   0  0  0  0  0  0  0  0  0  0  0  0
   19.2488   20.5221   23.2137 H   0  0  0  0  0  0  0  0  0  0  0  0
   18.0612   21.3370   22.2392 H   0  0  0  0  0  0  0  0  0  0  0  0
   19.3702   20.0234   21.1038 C   0  0  0  0  0  0  0  0  0  0  0  0
   18.6871   19.9229   20.2502 H   0  0  0  0  0  0  0  0  0  0  0  0
   20.0212   20.8748   20.8632 H   0  0  0  0  0  0  0  0  0  0  0  0
   20.2431   18.7475   21.2168 C   0  0  0  0  0  0  0  0  0  0  0  0
   20.7058   18.5527   20.2394 H   0  0  0  0  0  0  0  0  0  0  0  0
   19.6140   17.8752   21.4379 H   0  0  0  0  0  0  0  0  0  0  0  0
   21.3633   18.8554   22.2838 C   0  0  0  0  0  0  0  0  0  0  0  0
   21.9708   19.7507   22.1068 H   0  0  0  0  0  0  0  0  0  0  0  0
   20.9315   18.9463   23.2869 H   0  0  0  0  0  0  0  0  0  0  0  0
   22.2932   17.6473   22.2866 C   0  0  0  0  0  0  0  0  0  0  0  0
   22.0247   16.7165   23.0202 O   0  5  0  0  0  0  0  0  0  0  0  0
   23.2550   17.6627   21.5438 O   0  0  0  0  0  0  0  0  0  0  0  0
  1  2  1  0  0  0  0
  1  3  1  0  0  0  0
  1  4  2  0  0  0  0
  4  5  1  0  0  0  0
  4  6  1  0  0  0  0
  6  7  1  0  0  0  0
  6  8  1  0  0  0  0
  6  9  1  0  0  0  0
  9 10  1  0  0  0  0
  9 11  1  0  0  0  0
  9 12  1  0  0  0  0
 12 13  1  0  0  0  0
 12 14  1  0  0  0  0
 12 15  1  0  0  0  0
 15 16  1  0  0  0  0
 15 17  1  0  0  0  0
 15 18  1  0  0  0  0
 18 19  1  0  0  0  0
 18 20  2  0  0  0  0
M  END
> <VConfSearch Rank>
515

> <Conf_Id>
64

> <Delta U+W>
0.366

> <U+W>
-51.379

> <U>
10.000

> <W>
-61.379

> <W(PB)>
-63.541

> <W(SA)>
2.162

> <Valence>
9.398

> <Coulomb>
-0.504

> <VdW>
1.105

> <VdW6>
-7.975

> <VdW12>
9.080

> <Bond>
0.216

> <Angle>
3.417

> <Pdih>
5.765

> <Idih>
0.001

> <Tether>
0.000

$$$$
VeraChem MOL file


 20 19  0  0  0  0  0  0  0  0999 V2000     
   19.4913   22.0495   21.8677 C   0  0  0  0  0  0  0  0  0  0  0  0
   19.7426   22.0959   22.9260 H   0  0  0  0  0  0  0  0  0  0  0  0
   18.6769   22.6815   21.5178 H   0  0  0  0  0  0  0  0  0  0  0  0
   20.1512   21.2465   21.0288 C   0  0  0  0  0  0  0  0  0  0  0  0
   19.8822   21.2131   19.9734 H   0  0  0  0  0  0  0  0  0  0  0  0
   21.2917   20.3403   21.4411 C   0  0  0  0  0  0  0  0  0  0  0  0
   21.6293   20.5819   22.4581 H   0  0  0  0  0  0  0  0  0  0  0  0
   22.1496   20.5196   20.7794 H   0  0  0  0  0  0  0  0  0  0  0  0
   20.9084   18.8452   21.3662 C   0  0  0  0  0  0  0  0  0  0  0  0
   20.5701   18.6038   20.3492 H   0  0  0  0  0  0  0  0  0  0  0  0
   21.8059   18.2392   21.5514 H   0  0  0  0  0  0  0  0  0  0  0  0
   19.8145   18.4581   22.3877 C   0  0  0  0  0  0  0  0  0  0  0  0
   18.9016   19.0387   22.1961 H   0  0  0  0  0  0  0  0  0  0  0  0
   20.1479   18.7161   23.4024 H   0  0  0  0  0  0  0  0  0  0  0  0
   19.4781   16.9478   22.3273 C   0  0  0  0  0  0  0  0  0  0  0  0
   19.1315   16.6774   21.3226 H   0  0  0  0  0  0  0  0  0  0  0  0
   20.3749   16.3512   22.5328 H   0  0  0  0  0  0  0  0  0  0  0  0
   18.4005   16.5411   23.3260 C   0  0  0  0  0  0  0  0  0  0  0  0
   18.7479   16.2200   24.4454 O   0  5  0  0  0  0  0  0  0  0  0  0
   17.2412   16.5695   22.9629 O   0  0  0  0  0  0  0  0  0  0  0  0
  1  2  1  0  0  0  0
  1  3  1  0  0  0  0
  1  4  2  0  0  0  0
  4  5  1  0  0  0  0
  4  6  1  0  0  0  0
  6  7  1  0  0  0  0
  6  8  1  0  0  0  0
  6  9  1  0  0  0  0
  9 10  1  0  0  0  0
  9 11  1  0  0  0  0
  9 12  1  0  0  0  0
 12 13  1  0  0  0  0
 12 14  1  0  0  0  0
 12 15  1  0  0  0  0
 15 16  1  0  0  0  0
 15 17  1  0  0  0  0
 15 18  1  0  0  0  0
 18 19  1  0  0  0  0
 18 20  2  0  0  0  0
M  END
> <VConfSearch Rank>
516

> <Conf_Id>
42

> <Delta U+W>
-0.601

> <U+W>
-52.347

> <U>
8.428

> <W>
-60.774

> <W(PB)>
-62.982

> <W(SA)>
2.208

> <Valence>
9.231

> <Coulomb>
-1.304

> <VdW>
0.501

> <VdW6>
-6.515

> <VdW12>
7.016

> <Bond>
0.103

> <Angle>
2.328

> <Pdih>
6.799

> <Idih>
0.000

> <Tether>
0.000

$$$$
VeraChem MOL file


 20 19  0  0  0  0  0  0  0  0999 V2000     
   17.2580   17.8272   23.1966 C   0  0  0  0  0  0  0  0  0  0  0  0
   17.8469   17.1087   23.7644 H   0  0  0  0  0  0  0  0  0  0  0  0
   16.3372   17.4700   22.7386 H   0  0  0  0  0  0  0  0  0  0  0  0
   17.6486   19.0973   23.0614 C   0  0  0  0  0  0  0  0  0  0  0  0
   17.0460   19.7998   22.4864 H   0  0  0  0  0  0  0  0  0  0  0  0
   18.9145   19.6656   23.6666 C   0  0  0  0  0  0  0  0  0  0  0  0
   19.3536   18.9566   24.3815 H   0  0  0  0  0  0  0  0  0  0  0  0
   18.6645   20.5683   24.2396 H   0  0  0  0  0  0  0  0  0  0  0  0
   19.9634   20.0321   22.5925 C   0  0  0  0  0  0  0  0  0  0  0  0
   19.5242   20.7465   21.8825 H   0  0  0  0  0  0  0  0  0  0  0  0
   20.8029   20.5488   23.0772 H   0  0  0  0  0  0  0  0  0  0  0  0
   20.4979   18.7945   21.8336 C   0  0  0  0  0  0  0  0  0  0  0  0
   19.6740   18.2912   21.3089 H   0  0  0  0  0  0  0  0  0  0  0  0
   20.8988   18.0719   22.5570 H   0  0  0  0  0  0  0  0  0  0  0  0
   21.6081   19.1552   20.8127 C   0  0  0  0  0  0  0  0  0  0  0  0
   22.4294   19.6802   21.3152 H   0  0  0  0  0  0  0  0  0  0  0  0
   22.0303   18.2355   20.3907 H   0  0  0  0  0  0  0  0  0  0  0  0
   21.1232   20.0125   19.6471 C   0  0  0  0  0  0  0  0  0  0  0  0
   21.3851   21.1993   19.6572 O   0  5  0  0  0  0  0  0  0  0  0  0
   20.5115   19.4662   18.7502 O   0  0  0  0  0  0  0  0  0  0  0  0
  1  2  1  0  0  0  0
  1  3  1  0  0  0  0
  1  4  2  0  0  0  0
  4  5  1  0  0  0  0
  4  6  1  0  0  0  0
  6  7  1  0  0  0  0
  6  8  1  0  0  0  0
  6  9  1  0  0  0  0
  9 10  1  0  0  0  0
  9 11  1  0  0  0  0
  9 12  1  0  0  0  0
 12 13  1  0  0  0  0
 12 14  1  0  0  0  0
 12 15  1  0  0  0  0
 15 16  1  0  0  0  0
 15 17  1  0  0  0  0
 15 18  1  0  0  0  0
 18 19  1  0  0  0  0
 18 20  2  0  0  0  0
M  END
> <VConfSearch Rank>
517

> <Conf_Id>
68

> <Delta U+W>
0.492

> <U+W>
-51.253

> <U>
10.179

> <W>
-61.432

> <W(PB)>
-63.627

> <W(SA)>
2.195

> <Valence>
9.483

> <Coulomb>
0.361

> <VdW>
0.335

> <VdW6>
-7.385

> <VdW12>
7.720

> <Bond>
0.125

> <Angle>
2.487

> <Pdih>
6.870

> <Idih>
0.001

> <Tether>
0.000

$$$$
VeraChem MOL file


 20 19  0  0  0  0  0  0  0  0999 V2000     
   17.1004   17.3515   22.3385 C   0  0  0  0  0  0  0  0  0  0  0  0
   16.2917   18.0622   22.5007 H   0  0  0  0  0  0  0  0  0  0  0  0
   17.0077   16.3719   22.8045 H   0  0  0  0  0  0  0  0  0  0  0  0
   18.1680   17.6663   21.6004 C   0  0  0  0  0  0  0  0  0  0  0  0
   18.9649   16.9389   21.4487 H   0  0  0  0  0  0  0  0  0  0  0  0
   18.3624   19.0038   20.9185 C   0  0  0  0  0  0  0  0  0  0  0  0
   17.3965   19.5197   20.8326 H   0  0  0  0  0  0  0  0  0  0  0  0
   18.7218   18.8516   19.8920 H   0  0  0  0  0  0  0  0  0  0  0  0
   19.3450   19.9175   21.6851 C   0  0  0  0  0  0  0  0  0  0  0  0
   19.3432   20.9113   21.2171 H   0  0  0  0  0  0  0  0  0  0  0  0
   18.9851   20.0557   22.7142 H   0  0  0  0  0  0  0  0  0  0  0  0
   20.7908   19.3666   21.7010 C   0  0  0  0  0  0  0  0  0  0  0  0
   21.1212   19.1862   20.6692 H   0  0  0  0  0  0  0  0  0  0  0  0
   20.8185   18.3971   22.2168 H   0  0  0  0  0  0  0  0  0  0  0  0
   21.7888   20.3353   22.3869 C   0  0  0  0  0  0  0  0  0  0  0  0
   22.8098   19.9536   22.2683 H   0  0  0  0  0  0  0  0  0  0  0  0
   21.7588   21.3179   21.9007 H   0  0  0  0  0  0  0  0  0  0  0  0
   21.5420   20.5237   23.8810 C   0  0  0  0  0  0  0  0  0  0  0  0
   21.9071   19.6446   24.6366 O   0  5  0  0  0  0  0  0  0  0  0  0
   21.0097   21.5515   24.2516 O   0  0  0  0  0  0  0  0  0  0  0  0
  1  2  1  0  0  0  0
  1  3  1  0  0  0  0
  1  4  2  0  0  0  0
  4  5  1  0  0  0  0
  4  6  1  0  0  0  0
  6  7  1  0  0  0  0
  6  8  1  0  0  0  0
  6  9  1  0  0  0  0
  9 10  1  0  0  0  0
  9 11  1  0  0  0  0
  9 12  1  0  0  0  0
 12 13  1  0  0  0  0
 12 14  1  0  0  0  0
 12 15  1  0  0  0  0
 15 16  1  0  0  0  0
 15 17  1  0  0  0  0
 15 18  1  0  0  0  0
 18 19  1  0  0  0  0
 18 20  2  0  0  0  0
M  END
> <VConfSearch Rank>
518

> <Conf_Id>
87

> <Delta U+W>
0.339

> <U+W>
-51.407

> <U>
10.461

> <W>
-61.867

> <W(PB)>
-64.045

> <W(SA)>
2.178

> <Valence>
9.555

> <Coulomb>
0.483

> <VdW>
0.423

> <VdW6>
-7.223

> <VdW12>
7.646

> <Bond>
0.126

> <Angle>
2.492

> <Pdih>
6.936

> <Idih>
0.001

> <Tether>
0.000

$$$$
VeraChem MOL file


 20 19  0  0  0  0  0  0  0  0999 V2000     
   17.0535   18.9179   23.2359 C   0  0  0  0  0  0  0  0  0  0  0  0
   16.4102   18.4259   22.5083 H   0  0  0  0  0  0  0  0  0  0  0  0
   16.8584   18.7262   24.2896 H   0  0  0  0  0  0  0  0  0  0  0  0
   18.0464   19.7247   22.8526 C   0  0  0  0  0  0  0  0  0  0  0  0
   18.6738   20.2152   23.5960 H   0  0  0  0  0  0  0  0  0  0  0  0
   18.3658   20.0456   21.4081 C   0  0  0  0  0  0  0  0  0  0  0  0
   18.9627   20.9652   21.3457 H   0  0  0  0  0  0  0  0  0  0  0  0
   17.4255   20.2649   20.8845 H   0  0  0  0  0  0  0  0  0  0  0  0
   19.0856   18.8945   20.6624 C   0  0  0  0  0  0  0  0  0  0  0  0
   18.5903   17.9383   20.8797 H   0  0  0  0  0  0  0  0  0  0  0  0
   18.9592   19.0607   19.5839 H   0  0  0  0  0  0  0  0  0  0  0  0
   20.6050   18.7832   20.9456 C   0  0  0  0  0  0  0  0  0  0  0  0
   21.0947   19.7451   20.7404 H   0  0  0  0  0  0  0  0  0  0  0  0
   21.0354   18.0621   20.2369 H   0  0  0  0  0  0  0  0  0  0  0  0
   20.9528   18.3207   22.3837 C   0  0  0  0  0  0  0  0  0  0  0  0
   20.6715   19.0869   23.1130 H   0  0  0  0  0  0  0  0  0  0  0  0
   20.3966   17.4097   22.6346 H   0  0  0  0  0  0  0  0  0  0  0  0
   22.4388   18.0353   22.5684 C   0  0  0  0  0  0  0  0  0  0  0  0
   23.1631   18.9534   22.8991 O   0  5  0  0  0  0  0  0  0  0  0  0
   22.8371   16.9069   22.3563 O   0  0  0  0  0  0  0  0  0  0  0  0
  1  2  1  0  0  0  0
  1  3  1  0  0  0  0
  1  4  2  0  0  0  0
  4  5  1  0  0  0  0
  4  6  1  0  0  0  0
  6  7  1  0  0  0  0
  6  8  1  0  0  0  0
  6  9  1  0  0  0  0
  9 10  1  0  0  0  0
  9 11  1  0  0  0  0
  9 12  1  0  0  0  0
 12 13  1  0  0  0  0
 12 14  1  0  0  0  0
 12 15  1  0  0  0  0
 15 16  1  0  0  0  0
 15 17  1  0  0  0  0
 15 18  1  0  0  0  0
 18 19  1  0  0  0  0
 18 20  2  0  0  0  0
M  END
> <VConfSearch Rank>
519

> <Conf_Id>
51

> <Delta U+W>
1.709

> <U+W>
-50.036

> <U>
10.643

> <W>
-60.679

> <W(PB)>
-62.882

> <W(SA)>
2.203

> <Valence>
11.231

> <Coulomb>
-1.077

> <VdW>
0.489

> <VdW6>
-7.546

> <VdW12>
8.035

> <Bond>
0.159

> <Angle>
3.005

> <Pdih>
8.065

> <Idih>
0.002

> <Tether>
0.000

$$$$
VeraChem MOL file


 20 19  0  0  0  0  0  0  0  0999 V2000     
   19.5115   18.5350   19.1862 C   0  0  0  0  0  0  0  0  0  0  0  0
   19.2253   19.4894   18.7474 H   0  0  0  0  0  0  0  0  0  0  0  0
   19.1189   17.6314   18.7232 H   0  0  0  0  0  0  0  0  0  0  0  0
   20.3116   18.4728   20.2538 C   0  0  0  0  0  0  0  0  0  0  0  0
   20.5940   17.5078   20.6732 H   0  0  0  0  0  0  0  0  0  0  0  0
   20.9029   19.6859   20.9395 C   0  0  0  0  0  0  0  0  0  0  0  0
   21.2897   20.3668   20.1692 H   0  0  0  0  0  0  0  0  0  0  0  0
   21.7726   19.3952   21.5437 H   0  0  0  0  0  0  0  0  0  0  0  0
   19.8856   20.4609   21.8133 C   0  0  0  0  0  0  0  0  0  0  0  0
   20.2806   21.4735   21.9725 H   0  0  0  0  0  0  0  0  0  0  0  0
   18.9413   20.5887   21.2666 H   0  0  0  0  0  0  0  0  0  0  0  0
   19.6141   19.8383   23.2061 C   0  0  0  0  0  0  0  0  0  0  0  0
   19.0285   20.5568   23.7962 H   0  0  0  0  0  0  0  0  0  0  0  0
   20.5618   19.6990   23.7442 H   0  0  0  0  0  0  0  0  0  0  0  0
   18.8397   18.4960   23.1639 C   0  0  0  0  0  0  0  0  0  0  0  0
   17.9368   18.5977   22.5501 H   0  0  0  0  0  0  0  0  0  0  0  0
   19.4548   17.7108   22.7131 H   0  0  0  0  0  0  0  0  0  0  0  0
   18.4209   18.0129   24.5477 C   0  0  0  0  0  0  0  0  0  0  0  0
   19.1980   17.3187   25.1731 O   0  5  0  0  0  0  0  0  0  0  0  0
   17.3367   18.3603   24.9729 O   0  0  0  0  0  0  0  0  0  0  0  0
  1  2  1  0  0  0  0
  1  3  1  0  0  0  0
  1  4  2  0  0  0  0
  4  5  1  0  0  0  0
  4  6  1  0  0  0  0
  6  7  1  0  0  0  0
  6  8  1  0  0  0  0
  6  9  1  0  0  0  0
  9 10  1  0  0  0  0
  9 11  1  0  0  0  0
  9 12  1  0  0  0  0
 12 13  1  0  0  0  0
 12 14  1  0  0  0  0
 12 15  1  0  0  0  0
 15 16  1  0  0  0  0
 15 17  1  0  0  0  0
 15 18  1  0  0  0  0
 18 19  1  0  0  0  0
 18 20  2  0  0  0  0
M  END
> <VConfSearch Rank>
520

> <Conf_Id>
91

> <Delta U+W>
1.604

> <U+W>
-50.141

> <U>
10.644

> <W>
-60.786

> <W(PB)>
-62.965

> <W(SA)>
2.179

> <Valence>
11.230

> <Coulomb>
-1.075

> <VdW>
0.489

> <VdW6>
-7.547

> <VdW12>
8.036

> <Bond>
0.159

> <Angle>
3.006

> <Pdih>
8.064

> <Idih>
0.002

> <Tether>
0.000

$$$$
VeraChem MOL file


 20 19  0  0  0  0  0  0  0  0999 V2000     
   17.5699   20.1858   24.5753 C   0  0  0  0  0  0  0  0  0  0  0  0
   18.3103   19.8400   25.2948 H   0  0  0  0  0  0  0  0  0  0  0  0
   16.5512   20.3261   24.9330 H   0  0  0  0  0  0  0  0  0  0  0  0
   17.8936   20.4271   23.3022 C   0  0  0  0  0  0  0  0  0  0  0  0
   17.1371   20.7720   22.5978 H   0  0  0  0  0  0  0  0  0  0  0  0
   19.2850   20.2560   22.7344 C   0  0  0  0  0  0  0  0  0  0  0  0
   20.0188   20.1650   23.5468 H   0  0  0  0  0  0  0  0  0  0  0  0
   19.5598   21.1504   22.1593 H   0  0  0  0  0  0  0  0  0  0  0  0
   19.3669   19.0113   21.8261 C   0  0  0  0  0  0  0  0  0  0  0  0
   19.0871   18.1202   22.4049 H   0  0  0  0  0  0  0  0  0  0  0  0
   18.6360   19.1050   21.0111 H   0  0  0  0  0  0  0  0  0  0  0  0
   20.7812   18.8232   21.2350 C   0  0  0  0  0  0  0  0  0  0  0  0
   21.5128   18.7290   22.0496 H   0  0  0  0  0  0  0  0  0  0  0  0
   21.0621   19.7146   20.6571 H   0  0  0  0  0  0  0  0  0  0  0  0
   20.8633   17.5708   20.3222 C   0  0  0  0  0  0  0  0  0  0  0  0
   20.5903   16.6765   20.8944 H   0  0  0  0  0  0  0  0  0  0  0  0
   20.1401   17.6610   19.5031 H   0  0  0  0  0  0  0  0  0  0  0  0
   22.2333   17.3099   19.6942 C   0  0  0  0  0  0  0  0  0  0  0  0
   22.3361   16.3385   18.9718 O   0  5  0  0  0  0  0  0  0  0  0  0
   23.1580   18.0635   19.9301 O   0  0  0  0  0  0  0  0  0  0  0  0
  1  2  1  0  0  0  0
  1  3  1  0  0  0  0
  1  4  2  0  0  0  0
  4  5  1  0  0  0  0
  4  6  1  0  0  0  0
  6  7  1  0  0  0  0
  6  8  1  0  0  0  0
  6  9  1  0  0  0  0
  9 10  1  0  0  0  0
  9 11  1  0  0  0  0
  9 12  1  0  0  0  0
 12 13  1  0  0  0  0
 12 14  1  0  0  0  0
 12 15  1  0  0  0  0
 15 16  1  0  0  0  0
 15 17  1  0  0  0  0
 15 18  1  0  0  0  0
 18 19  1  0  0  0  0
 18 20  2  0  0  0  0
M  END
> <VConfSearch Rank>
521

> <Conf_Id>
33

> <Delta U+W>
0.000

> <U+W>
-51.745

> <U>
7.593

> <W>
-59.338

> <W(PB)>
-61.574

> <W(SA)>
2.236

> <Valence>
9.570

> <Coulomb>
-3.091

> <VdW>
1.114

> <VdW6>
-6.064

> <VdW12>
7.178

> <Bond>
0.117

> <Angle>
2.692

> <Pdih>
6.761

> <Idih>
0.000

> <Tether>
0.000

$$$$
VeraChem MOL file


 20 19  0  0  0  0  0  0  0  0999 V2000     
   16.3038   18.1183   21.0765 C   0  0  0  0  0  0  0  0  0  0  0  0
   16.6753   17.4704   20.2841 H   0  0  0  0  0  0  0  0  0  0  0  0
   15.2315   18.3034   21.1107 H   0  0  0  0  0  0  0  0  0  0  0  0
   17.1280   18.6682   21.9719 C   0  0  0  0  0  0  0  0  0  0  0  0
   16.7359   19.3146   22.7569 H   0  0  0  0  0  0  0  0  0  0  0  0
   18.6255   18.4566   21.9881 C   0  0  0  0  0  0  0  0  0  0  0  0
   18.8961   17.6092   21.3436 H   0  0  0  0  0  0  0  0  0  0  0  0
   18.9410   18.1947   23.0059 H   0  0  0  0  0  0  0  0  0  0  0  0
   19.3701   19.7239   21.5113 C   0  0  0  0  0  0  0  0  0  0  0  0
   18.9776   20.0153   20.5273 H   0  0  0  0  0  0  0  0  0  0  0  0
   19.1521   20.5586   22.1917 H   0  0  0  0  0  0  0  0  0  0  0  0
   20.9012   19.5332   21.3950 C   0  0  0  0  0  0  0  0  0  0  0  0
   21.3355   20.4370   20.9454 H   0  0  0  0  0  0  0  0  0  0  0  0
   21.1212   18.7073   20.7045 H   0  0  0  0  0  0  0  0  0  0  0  0
   21.5974   19.2701   22.7555 C   0  0  0  0  0  0  0  0  0  0  0  0
   21.3505   20.0668   23.4675 H   0  0  0  0  0  0  0  0  0  0  0  0
   21.2516   18.3257   23.1906 H   0  0  0  0  0  0  0  0  0  0  0  0
   23.1154   19.1968   22.6360 C   0  0  0  0  0  0  0  0  0  0  0  0
   23.6210   18.1169   22.4016 O   0  5  0  0  0  0  0  0  0  0  0  0
   23.7509   20.2250   22.7607 O   0  0  0  0  0  0  0  0  0  0  0  0
  1  2  1  0  0  0  0
  1  3  1  0  0  0  0
  1  4  2  0  0  0  0
  4  5  1  0  0  0  0
  4  6  1  0  0  0  0
  6  7  1  0  0  0  0
  6  8  1  0  0  0  0
  6  9  1  0  0  0  0
  9 10  1  0  0  0  0
  9 11  1  0  0  0  0
  9 12  1  0  0  0  0
 12 13  1  0  0  0  0
 12 14  1  0  0  0  0
 12 15  1  0  0  0  0
 15 16  1  0  0  0  0
 15 17  1  0  0  0  0
 15 18  1  0  0  0  0
 18 19  1  0  0  0  0
 18 20  2  0  0  0  0
M  END
> <VConfSearch Rank>
522

> <Conf_Id>
37

> <Delta U+W>
-0.384

> <U+W>
-52.130

> <U>
7.491

> <W>
-59.621

> <W(PB)>
-61.853

> <W(SA)>
2.232

> <Valence>
9.604

> <Coulomb>
-2.799

> <VdW>
0.686

> <VdW6>
-6.435

> <VdW12>
7.121

> <Bond>
0.124

> <Angle>
2.493

> <Pdih>
6.986

> <Idih>
0.001

> <Tether>
0.000

$$$$
VeraChem MOL file


 20 19  0  0  0  0  0  0  0  0999 V2000     
   18.3563   21.7784   20.6651 C   0  0  0  0  0  0  0  0  0  0  0  0
   17.9081   22.6841   20.2602 H   0  0  0  0  0  0  0  0  0  0  0  0
   17.6736   21.0068   21.0144 H   0  0  0  0  0  0  0  0  0  0  0  0
   19.6859   21.6404   20.7217 C   0  0  0  0  0  0  0  0  0  0  0  0
   20.3185   22.4489   20.3561 H   0  0  0  0  0  0  0  0  0  0  0  0
   20.4530   20.4427   21.2566 C   0  0  0  0  0  0  0  0  0  0  0  0
   21.1196   20.7813   22.0610 H   0  0  0  0  0  0  0  0  0  0  0  0
   21.1132   20.0643   20.4647 H   0  0  0  0  0  0  0  0  0  0  0  0
   19.5737   19.2834   21.7808 C   0  0  0  0  0  0  0  0  0  0  0  0
   18.9252   19.6507   22.5880 H   0  0  0  0  0  0  0  0  0  0  0  0
   18.9187   18.9260   20.9744 H   0  0  0  0  0  0  0  0  0  0  0  0
   20.4283   18.1087   22.3049 C   0  0  0  0  0  0  0  0  0  0  0  0
   21.0861   18.4599   23.1121 H   0  0  0  0  0  0  0  0  0  0  0  0
   21.0796   17.7367   21.5018 H   0  0  0  0  0  0  0  0  0  0  0  0
   19.5501   16.9466   22.8304 C   0  0  0  0  0  0  0  0  0  0  0  0
   18.9027   17.2983   23.6427 H   0  0  0  0  0  0  0  0  0  0  0  0
   18.8962   16.5751   22.0323 H   0  0  0  0  0  0  0  0  0  0  0  0
   20.3715   15.7738   23.3537 C   0  0  0  0  0  0  0  0  0  0  0  0
   20.6932   15.7764   24.5256 O   0  5  0  0  0  0  0  0  0  0  0  0
   20.6848   14.8985   22.5712 O   0  0  0  0  0  0  0  0  0  0  0  0
  1  2  1  0  0  0  0
  1  3  1  0  0  0  0
  1  4  2  0  0  0  0
  4  5  1  0  0  0  0
  4  6  1  0  0  0  0
  6  7  1  0  0  0  0
  6  8  1  0  0  0  0
  6  9  1  0  0  0  0
  9 10  1  0  0  0  0
  9 11  1  0  0  0  0
  9 12  1  0  0  0  0
 12 13  1  0  0  0  0
 12 14  1  0  0  0  0
 12 15  1  0  0  0  0
 15 16  1  0  0  0  0
 15 17  1  0  0  0  0
 15 18  1  0  0  0  0
 18 19  1  0  0  0  0
 18 20  2  0  0  0  0
M  END
> <VConfSearch Rank>
523

> <Conf_Id>
44

> <Delta U+W>
-1.440

> <U+W>
-53.185

> <U>
6.572

> <W>
-59.757

> <W(PB)>
-62.007

> <W(SA)>
2.249

> <Valence>
7.989

> <Coulomb>
-2.697

> <VdW>
1.281

> <VdW6>
-6.467

> <VdW12>
7.748

> <Bond>
0.136

> <Angle>
2.854

> <Pdih>
4.997

> <Idih>
0.001

> <Tether>
0.000

$$$$
VeraChem MOL file


 20 19  0  0  0  0  0  0  0  0999 V2000     
   16.3469   18.7802   21.9616 C   0  0  0  0  0  0  0  0  0  0  0  0
   16.4317   19.8449   21.7498 H   0  0  0  0  0  0  0  0  0  0  0  0
   15.3695   18.4052   22.2604 H   0  0  0  0  0  0  0  0  0  0  0  0
   17.3988   17.9632   21.8627 C   0  0  0  0  0  0  0  0  0  0  0  0
   17.2926   16.9006   22.0798 H   0  0  0  0  0  0  0  0  0  0  0  0
   18.7844   18.4107   21.4530 C   0  0  0  0  0  0  0  0  0  0  0  0
   18.7349   19.4094   21.0004 H   0  0  0  0  0  0  0  0  0  0  0  0
   19.1761   17.7325   20.6833 H   0  0  0  0  0  0  0  0  0  0  0  0
   19.7430   18.4282   22.6649 C   0  0  0  0  0  0  0  0  0  0  0  0
   19.3790   19.1480   23.4111 H   0  0  0  0  0  0  0  0  0  0  0  0
   19.7216   17.4423   23.1493 H   0  0  0  0  0  0  0  0  0  0  0  0
   21.2067   18.7615   22.2900 C   0  0  0  0  0  0  0  0  0  0  0  0
   21.5753   18.0366   21.5509 H   0  0  0  0  0  0  0  0  0  0  0  0
   21.8352   18.6402   23.1831 H   0  0  0  0  0  0  0  0  0  0  0  0
   21.3933   20.2002   21.7420 C   0  0  0  0  0  0  0  0  0  0  0  0
   20.8509   20.3282   20.7985 H   0  0  0  0  0  0  0  0  0  0  0  0
   20.9888   20.9312   22.4522 H   0  0  0  0  0  0  0  0  0  0  0  0
   22.8554   20.5482   21.4865 C   0  0  0  0  0  0  0  0  0  0  0  0
   23.4927   21.0485   22.3923 O   0  5  0  0  0  0  0  0  0  0  0  0
   23.3240   20.2917   20.3951 O   0  0  0  0  0  0  0  0  0  0  0  0
  1  2  1  0  0  0  0
  1  3  1  0  0  0  0
  1  4  2  0  0  0  0
  4  5  1  0  0  0  0
  4  6  1  0  0  0  0
  6  7  1  0  0  0  0
  6  8  1  0  0  0  0
  6  9  1  0  0  0  0
  9 10  1  0  0  0  0
  9 11  1  0  0  0  0
  9 12  1  0  0  0  0
 12 13  1  0  0  0  0
 12 14  1  0  0  0  0
 12 15  1  0  0  0  0
 15 16  1  0  0  0  0
 15 17  1  0  0  0  0
 15 18  1  0  0  0  0
 18 19  1  0  0  0  0
 18 20  2  0  0  0  0
M  END
> <VConfSearch Rank>
524

> <Conf_Id>
38

> <Delta U+W>
-0.381

> <U+W>
-52.126

> <U>
7.601

> <W>
-59.727

> <W(PB)>
-61.964

> <W(SA)>
2.236

> <Valence>
9.602

> <Coulomb>
-2.686

> <VdW>
0.685

> <VdW6>
-6.453

> <VdW12>
7.139

> <Bond>
0.125

> <Angle>
2.485

> <Pdih>
6.991

> <Idih>
0.001

> <Tether>
0.000

$$$$
VeraChem MOL file


 20 19  0  0  0  0  0  0  0  0999 V2000     
   21.6167   21.7012   20.3077 C   0  0  0  0  0  0  0  0  0  0  0  0
   22.1941   21.9588   21.1942 H   0  0  0  0  0  0  0  0  0  0  0  0
   22.0485   21.9484   19.3393 H   0  0  0  0  0  0  0  0  0  0  0  0
   20.4262   21.1030   20.4000 C   0  0  0  0  0  0  0  0  0  0  0  0
   19.8647   20.8526   19.5001 H   0  0  0  0  0  0  0  0  0  0  0  0
   19.7638   20.7303   21.7076 C   0  0  0  0  0  0  0  0  0  0  0  0
   18.7216   21.0768   21.7034 H   0  0  0  0  0  0  0  0  0  0  0  0
   20.2624   21.2376   22.5447 H   0  0  0  0  0  0  0  0  0  0  0  0
   19.8001   19.2046   21.9355 C   0  0  0  0  0  0  0  0  0  0  0  0
   19.2988   18.6997   21.0982 H   0  0  0  0  0  0  0  0  0  0  0  0
   20.8438   18.8609   21.9343 H   0  0  0  0  0  0  0  0  0  0  0  0
   19.1242   18.8061   23.2669 C   0  0  0  0  0  0  0  0  0  0  0  0
   18.0769   19.1390   23.2672 H   0  0  0  0  0  0  0  0  0  0  0  0
   19.6218   19.3273   24.0960 H   0  0  0  0  0  0  0  0  0  0  0  0
   19.1774   17.2785   23.5288 C   0  0  0  0  0  0  0  0  0  0  0  0
   20.2156   16.9257   23.5039 H   0  0  0  0  0  0  0  0  0  0  0  0
   18.7936   17.0653   24.5334 H   0  0  0  0  0  0  0  0  0  0  0  0
   18.3580   16.4514   22.5423 C   0  0  0  0  0  0  0  0  0  0  0  0
   18.9491   15.8304   21.6809 O   0  5  0  0  0  0  0  0  0  0  0  0
   17.1493   16.4416   22.6691 O   0  0  0  0  0  0  0  0  0  0  0  0
  1  2  1  0  0  0  0
  1  3  1  0  0  0  0
  1  4  2  0  0  0  0
  4  5  1  0  0  0  0
  4  6  1  0  0  0  0
  6  7  1  0  0  0  0
  6  8  1  0  0  0  0
  6  9  1  0  0  0  0
  9 10  1  0  0  0  0
  9 11  1  0  0  0  0
  9 12  1  0  0  0  0
 12 13  1  0  0  0  0
 12 14  1  0  0  0  0
 12 15  1  0  0  0  0
 15 16  1  0  0  0  0
 15 17  1  0  0  0  0
 15 18  1  0  0  0  0
 18 19  1  0  0  0  0
 18 20  2  0  0  0  0
M  END
> <VConfSearch Rank>
525

> <Conf_Id>
58

> <Delta U+W>
0.019

> <U+W>
-51.727

> <U>
8.963

> <W>
-60.690

> <W(PB)>
-62.934

> <W(SA)>
2.244

> <Valence>
9.327

> <Coulomb>
-0.780

> <VdW>
0.417

> <VdW6>
-6.635

> <VdW12>
7.052

> <Bond>
0.105

> <Angle>
2.399

> <Pdih>
6.822

> <Idih>
0.000

> <Tether>
0.000

$$$$
VeraChem MOL file


 20 19  0  0  0  0  0  0  0  0999 V2000     
   18.9930   16.7607   24.4941 C   0  0  0  0  0  0  0  0  0  0  0  0
   18.9314   15.9650   23.7533 H   0  0  0  0  0  0  0  0  0  0  0  0
   18.4857   16.6009   25.4441 H   0  0  0  0  0  0  0  0  0  0  0  0
   19.6613   17.8909   24.2502 C   0  0  0  0  0  0  0  0  0  0  0  0
   19.7099   18.6755   25.0050 H   0  0  0  0  0  0  0  0  0  0  0  0
   20.3895   18.1831   22.9571 C   0  0  0  0  0  0  0  0  0  0  0  0
   20.5062   17.2620   22.3700 H   0  0  0  0  0  0  0  0  0  0  0  0
   21.4016   18.5466   23.1795 H   0  0  0  0  0  0  0  0  0  0  0  0
   19.6349   19.2357   22.1182 C   0  0  0  0  0  0  0  0  0  0  0  0
   18.6214   18.8705   21.9018 H   0  0  0  0  0  0  0  0  0  0  0  0
   19.5215   20.1566   22.7068 H   0  0  0  0  0  0  0  0  0  0  0  0
   20.3677   19.5481   20.7940 C   0  0  0  0  0  0  0  0  0  0  0  0
   20.4902   18.6196   20.2200 H   0  0  0  0  0  0  0  0  0  0  0  0
   21.3782   19.9238   21.0072 H   0  0  0  0  0  0  0  0  0  0  0  0
   19.6088   20.5821   19.9222 C   0  0  0  0  0  0  0  0  0  0  0  0
   20.1064   20.6772   18.9499 H   0  0  0  0  0  0  0  0  0  0  0  0
   18.5879   20.2339   19.7238 H   0  0  0  0  0  0  0  0  0  0  0  0
   19.5370   21.9772   20.5364 C   0  0  0  0  0  0  0  0  0  0  0  0
   20.5361   22.6684   20.5051 O   0  5  0  0  0  0  0  0  0  0  0  0
   18.4826   22.3403   21.0195 O   0  0  0  0  0  0  0  0  0  0  0  0
  1  2  1  0  0  0  0
  1  3  1  0  0  0  0
  1  4  2  0  0  0  0
  4  5  1  0  0  0  0
  4  6  1  0  0  0  0
  6  7  1  0  0  0  0
  6  8  1  0  0  0  0
  6  9  1  0  0  0  0
  9 10  1  0  0  0  0
  9 11  1  0  0  0  0
  9 12  1  0  0  0  0
 12 13  1  0  0  0  0
 12 14  1  0  0  0  0
 12 15  1  0  0  0  0
 15 16  1  0  0  0  0
 15 17  1  0  0  0  0
 15 18  1  0  0  0  0
 18 19  1  0  0  0  0
 18 20  2  0  0  0  0
M  END
> <VConfSearch Rank>
526

> <Conf_Id>
54

> <Delta U+W>
-0.048

> <U+W>
-51.793

> <U>
8.964

> <W>
-60.756

> <W(PB)>
-63.007

> <W(SA)>
2.251

> <Valence>
9.327

> <Coulomb>
-0.780

> <VdW>
0.417

> <VdW6>
-6.635

> <VdW12>
7.052

> <Bond>
0.105

> <Angle>
2.399

> <Pdih>
6.822

> <Idih>
0.000

> <Tether>
0.000

$$$$
VeraChem MOL file


 20 19  0  0  0  0  0  0  0  0999 V2000     
   21.2766   20.6866   24.5692 C   0  0  0  0  0  0  0  0  0  0  0  0
   21.8589   20.3450   25.4233 H   0  0  0  0  0  0  0  0  0  0  0  0
   21.5819   21.6178   24.0946 H   0  0  0  0  0  0  0  0  0  0  0  0
   20.2310   19.9862   24.1223 C   0  0  0  0  0  0  0  0  0  0  0  0
   19.9403   19.0585   24.6143 H   0  0  0  0  0  0  0  0  0  0  0  0
   19.3723   20.4023   22.9469 C   0  0  0  0  0  0  0  0  0  0  0  0
   19.4976   21.4773   22.7594 H   0  0  0  0  0  0  0  0  0  0  0  0
   18.3110   20.2543   23.1875 H   0  0  0  0  0  0  0  0  0  0  0  0
   19.7267   19.6305   21.6559 C   0  0  0  0  0  0  0  0  0  0  0  0
   19.1701   20.0727   20.8183 H   0  0  0  0  0  0  0  0  0  0  0  0
   20.7931   19.7673   21.4295 H   0  0  0  0  0  0  0  0  0  0  0  0
   19.4001   18.1209   21.7482 C   0  0  0  0  0  0  0  0  0  0  0  0
   18.3367   17.9839   21.9891 H   0  0  0  0  0  0  0  0  0  0  0  0
   19.9713   17.6719   22.5714 H   0  0  0  0  0  0  0  0  0  0  0  0
   19.7326   17.3584   20.4393 C   0  0  0  0  0  0  0  0  0  0  0  0
   20.7838   17.5134   20.1675 H   0  0  0  0  0  0  0  0  0  0  0  0
   19.6015   16.2818   20.5993 H   0  0  0  0  0  0  0  0  0  0  0  0
   18.8588   17.7525   19.2520 C   0  0  0  0  0  0  0  0  0  0  0  0
   19.3427   18.4600   18.3904 O   0  5  0  0  0  0  0  0  0  0  0  0
   17.7191   17.3318   19.2153 O   0  0  0  0  0  0  0  0  0  0  0  0
  1  2  1  0  0  0  0
  1  3  1  0  0  0  0
  1  4  2  0  0  0  0
  4  5  1  0  0  0  0
  4  6  1  0  0  0  0
  6  7  1  0  0  0  0
  6  8  1  0  0  0  0
  6  9  1  0  0  0  0
  9 10  1  0  0  0  0
  9 11  1  0  0  0  0
  9 12  1  0  0  0  0
 12 13  1  0  0  0  0
 12 14  1  0  0  0  0
 12 15  1  0  0  0  0
 15 16  1  0  0  0  0
 15 17  1  0  0  0  0
 15 18  1  0  0  0  0
 18 19  1  0  0  0  0
 18 20  2  0  0  0  0
M  END
> <VConfSearch Rank>
527

> <Conf_Id>
27

> <Delta U+W>
0.478

> <U+W>
-51.267

> <U>
9.192

> <W>
-60.459

> <W(PB)>
-62.649

> <W(SA)>
2.190

> <Valence>
9.572

> <Coulomb>
-0.884

> <VdW>
0.504

> <VdW6>
-7.168

> <VdW12>
7.672

> <Bond>
0.127

> <Angle>
2.504

> <Pdih>
6.941

> <Idih>
0.001

> <Tether>
0.000

$$$$
VeraChem MOL file


 20 19  0  0  0  0  0  0  0  0999 V2000     
   18.7104   15.6021   21.8367 C   0  0  0  0  0  0  0  0  0  0  0  0
   18.3509   15.3525   22.8337 H   0  0  0  0  0  0  0  0  0  0  0  0
   19.1375   14.7966   21.2418 H   0  0  0  0  0  0  0  0  0  0  0  0
   18.6351   16.8473   21.3597 C   0  0  0  0  0  0  0  0  0  0  0  0
   18.9981   17.0747   20.3578 H   0  0  0  0  0  0  0  0  0  0  0  0
   18.0493   18.0143   22.1257 C   0  0  0  0  0  0  0  0  0  0  0  0
   17.4071   17.6411   22.9349 H   0  0  0  0  0  0  0  0  0  0  0  0
   17.4003   18.6064   21.4667 H   0  0  0  0  0  0  0  0  0  0  0  0
   19.1394   18.9228   22.7377 C   0  0  0  0  0  0  0  0  0  0  0  0
   18.6566   19.6672   23.3854 H   0  0  0  0  0  0  0  0  0  0  0  0
   19.7948   18.3220   23.3833 H   0  0  0  0  0  0  0  0  0  0  0  0
   19.9839   19.6526   21.6680 C   0  0  0  0  0  0  0  0  0  0  0  0
   19.3245   20.2323   21.0072 H   0  0  0  0  0  0  0  0  0  0  0  0
   20.5043   18.9197   21.0366 H   0  0  0  0  0  0  0  0  0  0  0  0
   21.0283   20.6003   22.3076 C   0  0  0  0  0  0  0  0  0  0  0  0
   20.5276   21.3516   22.9300 H   0  0  0  0  0  0  0  0  0  0  0  0
   21.7024   20.0341   22.9616 H   0  0  0  0  0  0  0  0  0  0  0  0
   21.8757   21.3317   21.2728 C   0  0  0  0  0  0  0  0  0  0  0  0
   22.9077   20.8078   20.9024 O   0  5  0  0  0  0  0  0  0  0  0  0
   21.4726   22.3978   20.8514 O   0  0  0  0  0  0  0  0  0  0  0  0
  1  2  1  0  0  0  0
  1  3  1  0  0  0  0
  1  4  2  0  0  0  0
  4  5  1  0  0  0  0
  4  6  1  0  0  0  0
  6  7  1  0  0  0  0
  6  8  1  0  0  0  0
  6  9  1  0  0  0  0
  9 10  1  0  0  0  0
  9 11  1  0  0  0  0
  9 12  1  0  0  0  0
 12 13  1  0  0  0  0
 12 14  1  0  0  0  0
 12 15  1  0  0  0  0
 15 16  1  0  0  0  0
 15 17  1  0  0  0  0
 15 18  1  0  0  0  0
 18 19  1  0  0  0  0
 18 20  2  0  0  0  0
M  END
> <VConfSearch Rank>
528

> <Conf_Id>
41

> <Delta U+W>
-0.634

> <U+W>
-52.379

> <U>
7.828

> <W>
-60.207

> <W(PB)>
-62.449

> <W(SA)>
2.242

> <Valence>
9.300

> <Coulomb>
-2.080

> <VdW>
0.608

> <VdW6>
-6.341

> <VdW12>
6.949

> <Bond>
0.103

> <Angle>
2.334

> <Pdih>
6.862

> <Idih>
0.001

> <Tether>
0.000

$$$$
VeraChem MOL file


 20 19  0  0  0  0  0  0  0  0999 V2000     
   18.5555   21.0126   19.7816 C   0  0  0  0  0  0  0  0  0  0  0  0
   18.3305   21.1890   18.7311 H   0  0  0  0  0  0  0  0  0  0  0  0
   17.9927   21.5848   20.5175 H   0  0  0  0  0  0  0  0  0  0  0  0
   19.4846   20.1265   20.1490 C   0  0  0  0  0  0  0  0  0  0  0  0
   20.0366   19.5632   19.3968 H   0  0  0  0  0  0  0  0  0  0  0  0
   19.8518   19.8290   21.5858 C   0  0  0  0  0  0  0  0  0  0  0  0
   19.4479   20.6049   22.2500 H   0  0  0  0  0  0  0  0  0  0  0  0
   20.9442   19.8559   21.6906 H   0  0  0  0  0  0  0  0  0  0  0  0
   19.3156   18.4468   22.0207 C   0  0  0  0  0  0  0  0  0  0  0  0
   18.2371   18.4042   21.8149 H   0  0  0  0  0  0  0  0  0  0  0  0
   19.7781   17.6631   21.4049 H   0  0  0  0  0  0  0  0  0  0  0  0
   19.5435   18.1387   23.5211 C   0  0  0  0  0  0  0  0  0  0  0  0
   19.0667   17.1783   23.7613 H   0  0  0  0  0  0  0  0  0  0  0  0
   19.0303   18.8969   24.1280 H   0  0  0  0  0  0  0  0  0  0  0  0
   21.0366   18.0734   23.9438 C   0  0  0  0  0  0  0  0  0  0  0  0
   21.5262   19.0413   23.7872 H   0  0  0  0  0  0  0  0  0  0  0  0
   21.1007   17.8639   25.0179 H   0  0  0  0  0  0  0  0  0  0  0  0
   21.8417   16.9961   23.2226 C   0  0  0  0  0  0  0  0  0  0  0  0
   21.6367   15.8349   23.5173 O   0  5  0  0  0  0  0  0  0  0  0  0
   22.6642   17.3461   22.3993 O   0  0  0  0  0  0  0  0  0  0  0  0
  1  2  1  0  0  0  0
  1  3  1  0  0  0  0
  1  4  2  0  0  0  0
  4  5  1  0  0  0  0
  4  6  1  0  0  0  0
  6  7  1  0  0  0  0
  6  8  1  0  0  0  0
  6  9  1  0  0  0  0
  9 10  1  0  0  0  0
  9 11  1  0  0  0  0
  9 12  1  0  0  0  0
 12 13  1  0  0  0  0
 12 14  1  0  0  0  0
 12 15  1  0  0  0  0
 15 16  1  0  0  0  0
 15 17  1  0  0  0  0
 15 18  1  0  0  0  0
 18 19  1  0  0  0  0
 18 20  2  0  0  0  0
M  END
> <VConfSearch Rank>
529

> <Conf_Id>
84

> <Delta U+W>
0.942

> <U+W>
-50.803

> <U>
10.196

> <W>
-60.999

> <W(PB)>
-63.182

> <W(SA)>
2.182

> <Valence>
9.837

> <Coulomb>
0.032

> <VdW>
0.328

> <VdW6>
-7.642

> <VdW12>
7.969

> <Bond>
0.151

> <Angle>
2.748

> <Pdih>
6.937

> <Idih>
0.001

> <Tether>
0.000

$$$$
VeraChem MOL file


 20 19  0  0  0  0  0  0  0  0999 V2000     
   19.4988   19.7720   18.6469 C   0  0  0  0  0  0  0  0  0  0  0  0
   19.7318   20.4555   17.8322 H   0  0  0  0  0  0  0  0  0  0  0  0
   19.7631   18.7243   18.5130 H   0  0  0  0  0  0  0  0  0  0  0  0
   18.9139   20.2064   19.7663 C   0  0  0  0  0  0  0  0  0  0  0  0
   18.6583   21.2596   19.8807 H   0  0  0  0  0  0  0  0  0  0  0  0
   18.5598   19.3176   20.9377 C   0  0  0  0  0  0  0  0  0  0  0  0
   18.6105   18.2608   20.6422 H   0  0  0  0  0  0  0  0  0  0  0  0
   17.5233   19.5106   21.2449 H   0  0  0  0  0  0  0  0  0  0  0  0
   19.5078   19.5632   22.1302 C   0  0  0  0  0  0  0  0  0  0  0  0
   20.5432   19.3745   21.8141 H   0  0  0  0  0  0  0  0  0  0  0  0
   19.4545   20.6192   22.4290 H   0  0  0  0  0  0  0  0  0  0  0  0
   19.1570   18.6646   23.3376 C   0  0  0  0  0  0  0  0  0  0  0  0
   19.2230   17.6070   23.0460 H   0  0  0  0  0  0  0  0  0  0  0  0
   18.1150   18.8463   23.6339 H   0  0  0  0  0  0  0  0  0  0  0  0
   20.0789   18.9191   24.5583 C   0  0  0  0  0  0  0  0  0  0  0  0
   20.0447   19.9772   24.8449 H   0  0  0  0  0  0  0  0  0  0  0  0
   19.7146   18.3453   25.4186 H   0  0  0  0  0  0  0  0  0  0  0  0
   21.5348   18.5231   24.3293 C   0  0  0  0  0  0  0  0  0  0  0  0
   22.3505   19.4062   24.1512 O   0  5  0  0  0  0  0  0  0  0  0  0
   21.8161   17.3410   24.3483 O   0  0  0  0  0  0  0  0  0  0  0  0
  1  2  1  0  0  0  0
  1  3  1  0  0  0  0
  1  4  2  0  0  0  0
  4  5  1  0  0  0  0
  4  6  1  0  0  0  0
  6  7  1  0  0  0  0
  6  8  1  0  0  0  0
  6  9  1  0  0  0  0
  9 10  1  0  0  0  0
  9 11  1  0  0  0  0
  9 12  1  0  0  0  0
 12 13  1  0  0  0  0
 12 14  1  0  0  0  0
 12 15  1  0  0  0  0
 15 16  1  0  0  0  0
 15 17  1  0  0  0  0
 15 18  1  0  0  0  0
 18 19  1  0  0  0  0
 18 20  2  0  0  0  0
M  END
> <VConfSearch Rank>
530

> <Conf_Id>
81

> <Delta U+W>
-0.051

> <U+W>
-51.796

> <U>
9.412

> <W>
-61.209

> <W(PB)>
-63.452

> <W(SA)>
2.243

> <Valence>
9.329

> <Coulomb>
-0.323

> <VdW>
0.406

> <VdW6>
-6.640

> <VdW12>
7.046

> <Bond>
0.105

> <Angle>
2.401

> <Pdih>
6.823

> <Idih>
0.000

> <Tether>
0.000

$$$$
VeraChem MOL file


 20 19  0  0  0  0  0  0  0  0999 V2000     
   18.7225   20.3395   19.1929 C   0  0  0  0  0  0  0  0  0  0  0  0
   17.6840   20.0541   19.0331 H   0  0  0  0  0  0  0  0  0  0  0  0
   19.1232   21.1402   18.5736 H   0  0  0  0  0  0  0  0  0  0  0  0
   19.4779   19.7354   20.1138 C   0  0  0  0  0  0  0  0  0  0  0  0
   20.5159   20.0346   20.2562 H   0  0  0  0  0  0  0  0  0  0  0  0
   18.9922   18.6132   21.0061 C   0  0  0  0  0  0  0  0  0  0  0  0
   19.7430   17.8136   21.0482 H   0  0  0  0  0  0  0  0  0  0  0  0
   18.0932   18.1567   20.5706 H   0  0  0  0  0  0  0  0  0  0  0  0
   18.6525   19.0993   22.4355 C   0  0  0  0  0  0  0  0  0  0  0  0
   17.8391   19.8352   22.3747 H   0  0  0  0  0  0  0  0  0  0  0  0
   18.2553   18.2540   23.0139 H   0  0  0  0  0  0  0  0  0  0  0  0
   19.8411   19.7315   23.2047 C   0  0  0  0  0  0  0  0  0  0  0  0
   19.4856   20.0642   24.1897 H   0  0  0  0  0  0  0  0  0  0  0  0
   20.1762   20.6368   22.6815 H   0  0  0  0  0  0  0  0  0  0  0  0
   21.0532   18.7818   23.4079 C   0  0  0  0  0  0  0  0  0  0  0  0
   21.4811   18.4898   22.4421 H   0  0  0  0  0  0  0  0  0  0  0  0
   21.8441   19.3135   23.9495 H   0  0  0  0  0  0  0  0  0  0  0  0
   20.7290   17.5191   24.2010 C   0  0  0  0  0  0  0  0  0  0  0  0
   20.6972   16.4585   23.6084 O   0  5  0  0  0  0  0  0  0  0  0  0
   20.5338   17.6280   25.3958 O   0  0  0  0  0  0  0  0  0  0  0  0
  1  2  1  0  0  0  0
  1  3  1  0  0  0  0
  1  4  2  0  0  0  0
  4  5  1  0  0  0  0
  4  6  1  0  0  0  0
  6  7  1  0  0  0  0
  6  8  1  0  0  0  0
  6  9  1  0  0  0  0
  9 10  1  0  0  0  0
  9 11  1  0  0  0  0
  9 12  1  0  0  0  0
 12 13  1  0  0  0  0
 12 14  1  0  0  0  0
 12 15  1  0  0  0  0
 15 16  1  0  0  0  0
 15 17  1  0  0  0  0
 15 18  1  0  0  0  0
 18 19  1  0  0  0  0
 18 20  2  0  0  0  0
M  END
> <VConfSearch Rank>
531

> <Conf_Id>
86

> <Delta U+W>
1.248

> <U+W>
-50.498

> <U>
10.404

> <W>
-60.901

> <W(PB)>
-63.061

> <W(SA)>
2.159

> <Valence>
10.021

> <Coulomb>
0.094

> <VdW>
0.289

> <VdW6>
-8.409

> <VdW12>
8.698

> <Bond>
0.179

> <Angle>
2.939

> <Pdih>
6.902

> <Idih>
0.001

> <Tether>
0.000

$$$$
VeraChem MOL file


 20 19  0  0  0  0  0  0  0  0999 V2000     
   18.5855   16.6762   20.4070 C   0  0  0  0  0  0  0  0  0  0  0  0
   17.6223   16.3778   19.9967 H   0  0  0  0  0  0  0  0  0  0  0  0
   19.4217   16.7578   19.7145 H   0  0  0  0  0  0  0  0  0  0  0  0
   18.7308   16.9347   21.7093 C   0  0  0  0  0  0  0  0  0  0  0  0
   17.8804   16.8492   22.3853 H   0  0  0  0  0  0  0  0  0  0  0  0
   20.0360   17.3542   22.3516 C   0  0  0  0  0  0  0  0  0  0  0  0
   20.8722   17.2205   21.6519 H   0  0  0  0  0  0  0  0  0  0  0  0
   20.2411   16.6984   23.2081 H   0  0  0  0  0  0  0  0  0  0  0  0
   20.0039   18.8192   22.8425 C   0  0  0  0  0  0  0  0  0  0  0  0
   19.1655   18.9548   23.5393 H   0  0  0  0  0  0  0  0  0  0  0  0
   20.9208   19.0197   23.4135 H   0  0  0  0  0  0  0  0  0  0  0  0
   19.8900   19.8354   21.6815 C   0  0  0  0  0  0  0  0  0  0  0  0
   18.9703   19.6405   21.1138 H   0  0  0  0  0  0  0  0  0  0  0  0
   20.7266   19.6969   20.9828 H   0  0  0  0  0  0  0  0  0  0  0  0
   19.8698   21.3054   22.1752 C   0  0  0  0  0  0  0  0  0  0  0  0
   19.6653   21.9728   21.3298 H   0  0  0  0  0  0  0  0  0  0  0  0
   19.0581   21.4509   22.8982 H   0  0  0  0  0  0  0  0  0  0  0  0
   21.1783   21.7641   22.8124 C   0  0  0  0  0  0  0  0  0  0  0  0
   22.1127   22.0218   22.0791 O   0  5  0  0  0  0  0  0  0  0  0  0
   21.2260   21.8629   24.0228 O   0  0  0  0  0  0  0  0  0  0  0  0
  1  2  1  0  0  0  0
  1  3  1  0  0  0  0
  1  4  2  0  0  0  0
  4  5  1  0  0  0  0
  4  6  1  0  0  0  0
  6  7  1  0  0  0  0
  6  8  1  0  0  0  0
  6  9  1  0  0  0  0
  9 10  1  0  0  0  0
  9 11  1  0  0  0  0
  9 12  1  0  0  0  0
 12 13  1  0  0  0  0
 12 14  1  0  0  0  0
 12 15  1  0  0  0  0
 15 16  1  0  0  0  0
 15 17  1  0  0  0  0
 15 18  1  0  0  0  0
 18 19  1  0  0  0  0
 18 20  2  0  0  0  0
M  END
> <VConfSearch Rank>
532

> <Conf_Id>
28

> <Delta U+W>
0.446

> <U+W>
-51.299

> <U>
9.295

> <W>
-60.594

> <W(PB)>
-62.806

> <W(SA)>
2.212

> <Valence>
9.495

> <Coulomb>
-0.610

> <VdW>
0.409

> <VdW6>
-7.332

> <VdW12>
7.741

> <Bond>
0.126

> <Angle>
2.497

> <Pdih>
6.872

> <Idih>
0.000

> <Tether>
0.000

$$$$
VeraChem MOL file


 20 19  0  0  0  0  0  0  0  0999 V2000     
   21.0763   18.9206   19.3069 C   0  0  0  0  0  0  0  0  0  0  0  0
   20.0937   19.3692   19.1776 H   0  0  0  0  0  0  0  0  0  0  0  0
   21.7099   18.8624   18.4235 H   0  0  0  0  0  0  0  0  0  0  0  0
   21.5058   18.4602   20.4874 C   0  0  0  0  0  0  0  0  0  0  0  0
   22.5018   18.0232   20.5549 H   0  0  0  0  0  0  0  0  0  0  0  0
   20.7405   18.4705   21.8002 C   0  0  0  0  0  0  0  0  0  0  0  0
   21.2967   19.0844   22.5203 H   0  0  0  0  0  0  0  0  0  0  0  0
   20.7378   17.4530   22.2130 H   0  0  0  0  0  0  0  0  0  0  0  0
   19.2805   18.9776   21.7012 C   0  0  0  0  0  0  0  0  0  0  0  0
   19.2754   20.0262   21.3732 H   0  0  0  0  0  0  0  0  0  0  0  0
   18.7540   18.4032   20.9268 H   0  0  0  0  0  0  0  0  0  0  0  0
   18.4888   18.8428   23.0256 C   0  0  0  0  0  0  0  0  0  0  0  0
   18.4552   17.7855   23.3212 H   0  0  0  0  0  0  0  0  0  0  0  0
   17.4475   19.1447   22.8466 H   0  0  0  0  0  0  0  0  0  0  0  0
   19.0547   19.6828   24.2033 C   0  0  0  0  0  0  0  0  0  0  0  0
   18.4401   19.5159   25.0955 H   0  0  0  0  0  0  0  0  0  0  0  0
   20.0686   19.3561   24.4603 H   0  0  0  0  0  0  0  0  0  0  0  0
   19.0763   21.1864   23.9433 C   0  0  0  0  0  0  0  0  0  0  0  0
   18.0146   21.7775   23.9122 O   0  5  0  0  0  0  0  0  0  0  0  0
   20.1534   21.7306   23.7997 O   0  0  0  0  0  0  0  0  0  0  0  0
  1  2  1  0  0  0  0
  1  3  1  0  0  0  0
  1  4  2  0  0  0  0
  4  5  1  0  0  0  0
  4  6  1  0  0  0  0
  6  7  1  0  0  0  0
  6  8  1  0  0  0  0
  6  9  1  0  0  0  0
  9 10  1  0  0  0  0
  9 11  1  0  0  0  0
  9 12  1  0  0  0  0
 12 13  1  0  0  0  0
 12 14  1  0  0  0  0
 12 15  1  0  0  0  0
 15 16  1  0  0  0  0
 15 17  1  0  0  0  0
 15 18  1  0  0  0  0
 18 19  1  0  0  0  0
 18 20  2  0  0  0  0
M  END
> <VConfSearch Rank>
533

> <Conf_Id>
53

> <Delta U+W>
0.549

> <U+W>
-51.197

> <U>
10.870

> <W>
-62.067

> <W(PB)>
-64.228

> <W(SA)>
2.161

> <Valence>
8.803

> <Coulomb>
1.020

> <VdW>
1.048

> <VdW6>
-8.312

> <VdW12>
9.360

> <Bond>
0.212

> <Angle>
3.379

> <Pdih>
5.211

> <Idih>
0.001

> <Tether>
0.000

$$$$
VeraChem MOL file


 20 19  0  0  0  0  0  0  0  0999 V2000     
   17.1646   18.8654   23.2691 C   0  0  0  0  0  0  0  0  0  0  0  0
   17.4232   17.8123   23.3547 H   0  0  0  0  0  0  0  0  0  0  0  0
   16.1059   19.1106   23.2064 H   0  0  0  0  0  0  0  0  0  0  0  0
   18.0935   19.8272   23.2471 C   0  0  0  0  0  0  0  0  0  0  0  0
   17.7803   20.8675   23.1629 H   0  0  0  0  0  0  0  0  0  0  0  0
   19.5986   19.6294   23.3203 C   0  0  0  0  0  0  0  0  0  0  0  0
   19.9267   19.8047   24.3533 H   0  0  0  0  0  0  0  0  0  0  0  0
   20.0911   20.4157   22.7339 H   0  0  0  0  0  0  0  0  0  0  0  0
   20.1242   18.2494   22.8457 C   0  0  0  0  0  0  0  0  0  0  0  0
   21.2084   18.2104   23.0181 H   0  0  0  0  0  0  0  0  0  0  0  0
   19.6970   17.4593   23.4770 H   0  0  0  0  0  0  0  0  0  0  0  0
   19.8416   17.9238   21.3554 C   0  0  0  0  0  0  0  0  0  0  0  0
   18.7581   17.8872   21.1843 H   0  0  0  0  0  0  0  0  0  0  0  0
   20.2182   16.9147   21.1386 H   0  0  0  0  0  0  0  0  0  0  0  0
   20.4775   18.9189   20.3466 C   0  0  0  0  0  0  0  0  0  0  0  0
   20.2217   18.6129   19.3255 H   0  0  0  0  0  0  0  0  0  0  0  0
   20.0613   19.9237   20.4817 H   0  0  0  0  0  0  0  0  0  0  0  0
   21.9989   19.0035   20.4279 C   0  0  0  0  0  0  0  0  0  0  0  0
   22.4962   20.0095   20.8944 O   0  5  0  0  0  0  0  0  0  0  0  0
   22.6476   18.0666   20.0050 O   0  0  0  0  0  0  0  0  0  0  0  0
  1  2  1  0  0  0  0
  1  3  1  0  0  0  0
  1  4  2  0  0  0  0
  4  5  1  0  0  0  0
  4  6  1  0  0  0  0
  6  7  1  0  0  0  0
  6  8  1  0  0  0  0
  6  9  1  0  0  0  0
  9 10  1  0  0  0  0
  9 11  1  0  0  0  0
  9 12  1  0  0  0  0
 12 13  1  0  0  0  0
 12 14  1  0  0  0  0
 12 15  1  0  0  0  0
 15 16  1  0  0  0  0
 15 17  1  0  0  0  0
 15 18  1  0  0  0  0
 18 19  1  0  0  0  0
 18 20  2  0  0  0  0
M  END
> <VConfSearch Rank>
534

> <Conf_Id>
66

> <Delta U+W>
1.737

> <U+W>
-50.008

> <U>
11.091

> <W>
-61.099

> <W(PB)>
-63.213

> <W(SA)>
2.114

> <Valence>
9.664

> <Coulomb>
0.658

> <VdW>
0.769

> <VdW6>
-9.171

> <VdW12>
9.940

> <Bond>
0.244

> <Angle>
3.658

> <Pdih>
5.762

> <Idih>
0.001

> <Tether>
0.000

$$$$
VeraChem MOL file


 20 19  0  0  0  0  0  0  0  0999 V2000     
   18.0340   16.8731   22.4751 C   0  0  0  0  0  0  0  0  0  0  0  0
   18.6521   16.9185   23.3690 H   0  0  0  0  0  0  0  0  0  0  0  0
   17.0103   16.5247   22.5999 H   0  0  0  0  0  0  0  0  0  0  0  0
   18.4973   17.2202   21.2693 C   0  0  0  0  0  0  0  0  0  0  0  0
   17.8351   17.1529   20.4066 H   0  0  0  0  0  0  0  0  0  0  0  0
   19.8941   17.7266   20.9483 C   0  0  0  0  0  0  0  0  0  0  0  0
   19.8279   18.4592   20.1343 H   0  0  0  0  0  0  0  0  0  0  0  0
   20.4801   16.8968   20.5316 H   0  0  0  0  0  0  0  0  0  0  0  0
   20.6754   18.3571   22.1308 C   0  0  0  0  0  0  0  0  0  0  0  0
   20.7965   17.6108   22.9270 H   0  0  0  0  0  0  0  0  0  0  0  0
   21.6927   18.5965   21.7924 H   0  0  0  0  0  0  0  0  0  0  0  0
   20.0342   19.6390   22.7210 C   0  0  0  0  0  0  0  0  0  0  0  0
   20.6175   19.9495   23.5988 H   0  0  0  0  0  0  0  0  0  0  0  0
   19.0213   19.4237   23.0859 H   0  0  0  0  0  0  0  0  0  0  0  0
   19.9775   20.8213   21.7190 C   0  0  0  0  0  0  0  0  0  0  0  0
   20.9742   21.0168   21.3062 H   0  0  0  0  0  0  0  0  0  0  0  0
   19.3167   20.5816   20.8783 H   0  0  0  0  0  0  0  0  0  0  0  0
   19.4695   22.1100   22.3559 C   0  0  0  0  0  0  0  0  0  0  0  0
   18.2771   22.3407   22.3148 O   0  5  0  0  0  0  0  0  0  0  0  0
   20.2787   22.8432   22.8894 O   0  0  0  0  0  0  0  0  0  0  0  0
  1  2  1  0  0  0  0
  1  3  1  0  0  0  0
  1  4  2  0  0  0  0
  4  5  1  0  0  0  0
  4  6  1  0  0  0  0
  6  7  1  0  0  0  0
  6  8  1  0  0  0  0
  6  9  1  0  0  0  0
  9 10  1  0  0  0  0
  9 11  1  0  0  0  0
  9 12  1  0  0  0  0
 12 13  1  0  0  0  0
 12 14  1  0  0  0  0
 12 15  1  0  0  0  0
 15 16  1  0  0  0  0
 15 17  1  0  0  0  0
 15 18  1  0  0  0  0
 18 19  1  0  0  0  0
 18 20  2  0  0  0  0
M  END
> <VConfSearch Rank>
535

> <Conf_Id>
64

> <Delta U+W>
0.366

> <U+W>
-51.379

> <U>
10.000

> <W>
-61.379

> <W(PB)>
-63.541

> <W(SA)>
2.162

> <Valence>
9.398

> <Coulomb>
-0.504

> <VdW>
1.105

> <VdW6>
-7.975

> <VdW12>
9.080

> <Bond>
0.216

> <Angle>
3.417

> <Pdih>
5.765

> <Idih>
0.001

> <Tether>
0.000

$$$$
VeraChem MOL file


 20 19  0  0  0  0  0  0  0  0999 V2000     
   17.3012   20.4323   21.5079 C   0  0  0  0  0  0  0  0  0  0  0  0
   16.9450   19.4882   21.0989 H   0  0  0  0  0  0  0  0  0  0  0  0
   16.9981   21.3454   20.9985 H   0  0  0  0  0  0  0  0  0  0  0  0
   18.0832   20.4726   22.5900 C   0  0  0  0  0  0  0  0  0  0  0  0
   18.4309   21.4280   22.9820 H   0  0  0  0  0  0  0  0  0  0  0  0
   18.5457   19.2476   23.3499 C   0  0  0  0  0  0  0  0  0  0  0  0
   17.9942   18.3568   23.0198 H   0  0  0  0  0  0  0  0  0  0  0  0
   18.3143   19.3778   24.4154 H   0  0  0  0  0  0  0  0  0  0  0  0
   20.0634   19.0012   23.1959 C   0  0  0  0  0  0  0  0  0  0  0  0
   20.6149   19.8925   23.5254 H   0  0  0  0  0  0  0  0  0  0  0  0
   20.3596   18.1825   23.8659 H   0  0  0  0  0  0  0  0  0  0  0  0
   20.4655   18.6426   21.7470 C   0  0  0  0  0  0  0  0  0  0  0  0
   20.1985   19.4659   21.0701 H   0  0  0  0  0  0  0  0  0  0  0  0
   19.9003   17.7613   21.4135 H   0  0  0  0  0  0  0  0  0  0  0  0
   21.9821   18.3553   21.6240 C   0  0  0  0  0  0  0  0  0  0  0  0
   22.5601   19.2314   21.9419 H   0  0  0  0  0  0  0  0  0  0  0  0
   22.2649   17.5241   22.2810 H   0  0  0  0  0  0  0  0  0  0  0  0
   22.4037   17.9992   20.2029 C   0  0  0  0  0  0  0  0  0  0  0  0
   22.3536   16.8330   19.8651 O   0  5  0  0  0  0  0  0  0  0  0  0
   22.7579   18.8989   19.4668 O   0  0  0  0  0  0  0  0  0  0  0  0
  1  2  1  0  0  0  0
  1  3  1  0  0  0  0
  1  4  2  0  0  0  0
  4  5  1  0  0  0  0
  4  6  1  0  0  0  0
  6  7  1  0  0  0  0
  6  8  1  0  0  0  0
  6  9  1  0  0  0  0
  9 10  1  0  0  0  0
  9 11  1  0  0  0  0
  9 12  1  0  0  0  0
 12 13  1  0  0  0  0
 12 14  1  0  0  0  0
 12 15  1  0  0  0  0
 15 16  1  0  0  0  0
 15 17  1  0  0  0  0
 15 18  1  0  0  0  0
 18 19  1  0  0  0  0
 18 20  2  0  0  0  0
M  END
> <VConfSearch Rank>
536

> <Conf_Id>
42

> <Delta U+W>
-0.601

> <U+W>
-52.347

> <U>
8.428

> <W>
-60.774

> <W(PB)>
-62.982

> <W(SA)>
2.208

> <Valence>
9.231

> <Coulomb>
-1.304

> <VdW>
0.501

> <VdW6>
-6.515

> <VdW12>
7.016

> <Bond>
0.103

> <Angle>
2.328

> <Pdih>
6.799

> <Idih>
0.000

> <Tether>
0.000

$$$$
VeraChem MOL file


 20 19  0  0  0  0  0  0  0  0999 V2000     
   22.0200   18.1478   23.6256 C   0  0  0  0  0  0  0  0  0  0  0  0
   22.5466   17.8011   22.7380 H   0  0  0  0  0  0  0  0  0  0  0  0
   22.0829   17.5293   24.5193 H   0  0  0  0  0  0  0  0  0  0  0  0
   21.3195   19.2850   23.6212 C   0  0  0  0  0  0  0  0  0  0  0  0
   20.7971   19.6128   24.5196 H   0  0  0  0  0  0  0  0  0  0  0  0
   21.1850   20.1951   22.4189 C   0  0  0  0  0  0  0  0  0  0  0  0
   21.8899   19.9001   21.6297 H   0  0  0  0  0  0  0  0  0  0  0  0
   21.4572   21.2180   22.7108 H   0  0  0  0  0  0  0  0  0  0  0  0
   19.7481   20.2051   21.8503 C   0  0  0  0  0  0  0  0  0  0  0  0
   19.0455   20.5069   22.6394 H   0  0  0  0  0  0  0  0  0  0  0  0
   19.6823   20.9693   21.0639 H   0  0  0  0  0  0  0  0  0  0  0  0
   19.3283   18.8359   21.2651 C   0  0  0  0  0  0  0  0  0  0  0  0
   19.3492   18.0691   22.0519 H   0  0  0  0  0  0  0  0  0  0  0  0
   20.0592   18.5277   20.5055 H   0  0  0  0  0  0  0  0  0  0  0  0
   17.9171   18.8696   20.6230 C   0  0  0  0  0  0  0  0  0  0  0  0
   17.8704   19.6466   19.8505 H   0  0  0  0  0  0  0  0  0  0  0  0
   17.7188   17.9137   20.1243 H   0  0  0  0  0  0  0  0  0  0  0  0
   16.7877   19.1074   21.6214 C   0  0  0  0  0  0  0  0  0  0  0  0
   16.2885   20.2143   21.6732 O   0  5  0  0  0  0  0  0  0  0  0  0
   16.4247   18.1729   22.3085 O   0  0  0  0  0  0  0  0  0  0  0  0
  1  2  1  0  0  0  0
  1  3  1  0  0  0  0
  1  4  2  0  0  0  0
  4  5  1  0  0  0  0
  4  6  1  0  0  0  0
  6  7  1  0  0  0  0
  6  8  1  0  0  0  0
  6  9  1  0  0  0  0
  9 10  1  0  0  0  0
  9 11  1  0  0  0  0
  9 12  1  0  0  0  0
 12 13  1  0  0  0  0
 12 14  1  0  0  0  0
 12 15  1  0  0  0  0
 15 16  1  0  0  0  0
 15 17  1  0  0  0  0
 15 18  1  0  0  0  0
 18 19  1  0  0  0  0
 18 20  2  0  0  0  0
M  END
> <VConfSearch Rank>
537

> <Conf_Id>
68

> <Delta U+W>
0.492

> <U+W>
-51.253

> <U>
10.179

> <W>
-61.432

> <W(PB)>
-63.627

> <W(SA)>
2.195

> <Valence>
9.483

> <Coulomb>
0.361

> <VdW>
0.335

> <VdW6>
-7.385

> <VdW12>
7.720

> <Bond>
0.125

> <Angle>
2.487

> <Pdih>
6.870

> <Idih>
0.001

> <Tether>
0.000

$$$$
VeraChem MOL file


 20 19  0  0  0  0  0  0  0  0999 V2000     
   19.9820   20.1336   25.1462 C   0  0  0  0  0  0  0  0  0  0  0  0
   19.8429   21.2124   25.0977 H   0  0  0  0  0  0  0  0  0  0  0  0
   20.6550   19.7490   25.9106 H   0  0  0  0  0  0  0  0  0  0  0  0
   19.3559   19.3110   24.3006 C   0  0  0  0  0  0  0  0  0  0  0  0
   19.5073   18.2341   24.3685 H   0  0  0  0  0  0  0  0  0  0  0  0
   18.4031   19.7724   23.2185 C   0  0  0  0  0  0  0  0  0  0  0  0
   18.0509   20.7882   23.4434 H   0  0  0  0  0  0  0  0  0  0  0  0
   17.5104   19.1329   23.2085 H   0  0  0  0  0  0  0  0  0  0  0  0
   19.0590   19.7745   21.8192 C   0  0  0  0  0  0  0  0  0  0  0  0
   18.3665   20.2388   21.1040 H   0  0  0  0  0  0  0  0  0  0  0  0
   19.9575   20.4069   21.8401 H   0  0  0  0  0  0  0  0  0  0  0  0
   19.4238   18.3549   21.3238 C   0  0  0  0  0  0  0  0  0  0  0  0
   18.5287   17.7192   21.3544 H   0  0  0  0  0  0  0  0  0  0  0  0
   20.1601   17.8982   21.9993 H   0  0  0  0  0  0  0  0  0  0  0  0
   19.9912   18.3561   19.8806 C   0  0  0  0  0  0  0  0  0  0  0  0
   20.1227   17.3230   19.5379 H   0  0  0  0  0  0  0  0  0  0  0  0
   19.2798   18.8302   19.1936 H   0  0  0  0  0  0  0  0  0  0  0  0
   21.3397   19.0576   19.7454 C   0  0  0  0  0  0  0  0  0  0  0  0
   22.3335   18.4630   20.1140 O   0  5  0  0  0  0  0  0  0  0  0  0
   21.3635   20.1707   19.2579 O   0  0  0  0  0  0  0  0  0  0  0  0
  1  2  1  0  0  0  0
  1  3  1  0  0  0  0
  1  4  2  0  0  0  0
  4  5  1  0  0  0  0
  4  6  1  0  0  0  0
  6  7  1  0  0  0  0
  6  8  1  0  0  0  0
  6  9  1  0  0  0  0
  9 10  1  0  0  0  0
  9 11  1  0  0  0  0
  9 12  1  0  0  0  0
 12 13  1  0  0  0  0
 12 14  1  0  0  0  0
 12 15  1  0  0  0  0
 15 16  1  0  0  0  0
 15 17  1  0  0  0  0
 15 18  1  0  0  0  0
 18 19  1  0  0  0  0
 18 20  2  0  0  0  0
M  END
> <VConfSearch Rank>
538

> <Conf_Id>
87

> <Delta U+W>
0.339

> <U+W>
-51.407

> <U>
10.461

> <W>
-61.867

> <W(PB)>
-64.045

> <W(SA)>
2.178

> <Valence>
9.555

> <Coulomb>
0.483

> <VdW>
0.423

> <VdW6>
-7.223

> <VdW12>
7.646

> <Bond>
0.126

> <Angle>
2.492

> <Pdih>
6.936

> <Idih>
0.001

> <Tether>
0.000

$$$$
VeraChem MOL file


 20 19  0  0  0  0  0  0  0  0999 V2000     
   19.3583   16.1868   21.2600 C   0  0  0  0  0  0  0  0  0  0  0  0
   20.3486   15.9489   20.8752 H   0  0  0  0  0  0  0  0  0  0  0  0
   18.8389   15.4129   21.8225 H   0  0  0  0  0  0  0  0  0  0  0  0
   18.8009   17.3827   21.0533 C   0  0  0  0  0  0  0  0  0  0  0  0
   17.8051   17.5987   21.4387 H   0  0  0  0  0  0  0  0  0  0  0  0
   19.4594   18.4990   20.2710 C   0  0  0  0  0  0  0  0  0  0  0  0
   18.7068   19.2270   19.9401 H   0  0  0  0  0  0  0  0  0  0  0  0
   19.8872   18.0746   19.3526 H   0  0  0  0  0  0  0  0  0  0  0  0
   20.5875   19.2196   21.0502 C   0  0  0  0  0  0  0  0  0  0  0  0
   21.2374   18.4811   21.5392 H   0  0  0  0  0  0  0  0  0  0  0  0
   21.2211   19.7415   20.3202 H   0  0  0  0  0  0  0  0  0  0  0  0
   20.1008   20.2670   22.0833 C   0  0  0  0  0  0  0  0  0  0  0  0
   19.4401   20.9956   21.5936 H   0  0  0  0  0  0  0  0  0  0  0  0
   20.9736   20.8330   22.4372 H   0  0  0  0  0  0  0  0  0  0  0  0
   19.3809   19.6602   23.3149 C   0  0  0  0  0  0  0  0  0  0  0  0
   18.4257   19.2138   23.0210 H   0  0  0  0  0  0  0  0  0  0  0  0
   19.9918   18.8647   23.7580 H   0  0  0  0  0  0  0  0  0  0  0  0
   19.0905   20.6939   24.3969 C   0  0  0  0  0  0  0  0  0  0  0  0
   18.0453   21.3109   24.3359 O   0  5  0  0  0  0  0  0  0  0  0  0
   19.9265   20.8704   25.2611 O   0  0  0  0  0  0  0  0  0  0  0  0
  1  2  1  0  0  0  0
  1  3  1  0  0  0  0
  1  4  2  0  0  0  0
  4  5  1  0  0  0  0
  4  6  1  0  0  0  0
  6  7  1  0  0  0  0
  6  8  1  0  0  0  0
  6  9  1  0  0  0  0
  9 10  1  0  0  0  0
  9 11  1  0  0  0  0
  9 12  1  0  0  0  0
 12 13  1  0  0  0  0
 12 14  1  0  0  0  0
 12 15  1  0  0  0  0
 15 16  1  0  0  0  0
 15 17  1  0  0  0  0
 15 18  1  0  0  0  0
 18 19  1  0  0  0  0
 18 20  2  0  0  0  0
M  END
> <VConfSearch Rank>
539

> <Conf_Id>
51

> <Delta U+W>
1.709

> <U+W>
-50.036

> <U>
10.643

> <W>
-60.679

> <W(PB)>
-62.882

> <W(SA)>
2.203

> <Valence>
11.231

> <Coulomb>
-1.077

> <VdW>
0.489

> <VdW6>
-7.546

> <VdW12>
8.035

> <Bond>
0.159

> <Angle>
3.005

> <Pdih>
8.065

> <Idih>
0.002

> <Tether>
0.000

$$$$
VeraChem MOL file


 20 19  0  0  0  0  0  0  0  0999 V2000     
   22.3259   18.3033   21.9097 C   0  0  0  0  0  0  0  0  0  0  0  0
   22.7581   18.9407   21.1401 H   0  0  0  0  0  0  0  0  0  0  0  0
   22.7034   17.2853   21.9891 H   0  0  0  0  0  0  0  0  0  0  0  0
   21.3669   18.7502   22.7248 C   0  0  0  0  0  0  0  0  0  0  0  0
   20.9532   18.1000   23.4947 H   0  0  0  0  0  0  0  0  0  0  0  0
   20.8048   20.1551   22.6791 C   0  0  0  0  0  0  0  0  0  0  0  0
   21.6413   20.8618   22.5945 H   0  0  0  0  0  0  0  0  0  0  0  0
   20.3060   20.3962   23.6272 H   0  0  0  0  0  0  0  0  0  0  0  0
   19.8367   20.3967   21.4944 C   0  0  0  0  0  0  0  0  0  0  0  0
   19.7645   21.4810   21.3339 H   0  0  0  0  0  0  0  0  0  0  0  0
   20.2633   19.9833   20.5702 H   0  0  0  0  0  0  0  0  0  0  0  0
   18.3998   19.8564   21.7053 C   0  0  0  0  0  0  0  0  0  0  0  0
   17.7657   20.2383   20.8931 H   0  0  0  0  0  0  0  0  0  0  0  0
   17.9817   20.2607   22.6374 H   0  0  0  0  0  0  0  0  0  0  0  0
   18.2962   18.3097   21.7186 C   0  0  0  0  0  0  0  0  0  0  0  0
   18.7937   17.8882   20.8370 H   0  0  0  0  0  0  0  0  0  0  0  0
   18.7936   17.8983   22.6026 H   0  0  0  0  0  0  0  0  0  0  0  0
   16.8544   17.8151   21.7317 C   0  0  0  0  0  0  0  0  0  0  0  0
   16.3087   17.6646   22.8070 O   0  5  0  0  0  0  0  0  0  0  0  0
   16.3075   17.6127   20.6654 O   0  0  0  0  0  0  0  0  0  0  0  0
  1  2  1  0  0  0  0
  1  3  1  0  0  0  0
  1  4  2  0  0  0  0
  4  5  1  0  0  0  0
  4  6  1  0  0  0  0
  6  7  1  0  0  0  0
  6  8  1  0  0  0  0
  6  9  1  0  0  0  0
  9 10  1  0  0  0  0
  9 11  1  0  0  0  0
  9 12  1  0  0  0  0
 12 13  1  0  0  0  0
 12 14  1  0  0  0  0
 12 15  1  0  0  0  0
 15 16  1  0  0  0  0
 15 17  1  0  0  0  0
 15 18  1  0  0  0  0
 18 19  1  0  0  0  0
 18 20  2  0  0  0  0
M  END
> <VConfSearch Rank>
540

> <Conf_Id>
91

> <Delta U+W>
1.604

> <U+W>
-50.141

> <U>
10.644

> <W>
-60.786

> <W(PB)>
-62.965

> <W(SA)>
2.179

> <Valence>
11.230

> <Coulomb>
-1.075

> <VdW>
0.489

> <VdW6>
-7.547

> <VdW12>
8.036

> <Bond>
0.159

> <Angle>
3.006

> <Pdih>
8.064

> <Idih>
0.002

> <Tether>
0.000

$$$$
VeraChem MOL file


 20 19  0  0  0  0  0  0  0  0999 V2000     
   18.0484   17.8988   18.8326 C   0  0  0  0  0  0  0  0  0  0  0  0
   18.9389   17.3312   18.5672 H   0  0  0  0  0  0  0  0  0  0  0  0
   17.3484   18.1353   18.0330 H   0  0  0  0  0  0  0  0  0  0  0  0
   17.8210   18.2936   20.0880 C   0  0  0  0  0  0  0  0  0  0  0  0
   16.9236   18.8616   20.3324 H   0  0  0  0  0  0  0  0  0  0  0  0
   18.7456   18.0020   21.2489 C   0  0  0  0  0  0  0  0  0  0  0  0
   19.4681   17.2218   20.9731 H   0  0  0  0  0  0  0  0  0  0  0  0
   18.1631   17.6089   22.0929 H   0  0  0  0  0  0  0  0  0  0  0  0
   19.5037   19.2716   21.6899 C   0  0  0  0  0  0  0  0  0  0  0  0
   20.0813   19.6630   20.8410 H   0  0  0  0  0  0  0  0  0  0  0  0
   18.7807   20.0501   21.9700 H   0  0  0  0  0  0  0  0  0  0  0  0
   20.4509   18.9922   22.8772 C   0  0  0  0  0  0  0  0  0  0  0  0
   21.1746   18.2140   22.5976 H   0  0  0  0  0  0  0  0  0  0  0  0
   19.8740   18.5995   23.7261 H   0  0  0  0  0  0  0  0  0  0  0  0
   21.2137   20.2691   23.3199 C   0  0  0  0  0  0  0  0  0  0  0  0
   21.7967   20.6628   22.4791 H   0  0  0  0  0  0  0  0  0  0  0  0
   20.4975   21.0481   23.6066 H   0  0  0  0  0  0  0  0  0  0  0  0
   22.1761   20.0803   24.4935 C   0  0  0  0  0  0  0  0  0  0  0  0
   22.7906   21.0586   24.8696 O   0  5  0  0  0  0  0  0  0  0  0  0
   22.2960   18.9833   25.0044 O   0  0  0  0  0  0  0  0  0  0  0  0
  1  2  1  0  0  0  0
  1  3  1  0  0  0  0
  1  4  2  0  0  0  0
  4  5  1  0  0  0  0
  4  6  1  0  0  0  0
  6  7  1  0  0  0  0
  6  8  1  0  0  0  0
  6  9  1  0  0  0  0
  9 10  1  0  0  0  0
  9 11  1  0  0  0  0
  9 12  1  0  0  0  0
 12 13  1  0  0  0  0
 12 14  1  0  0  0  0
 12 15  1  0  0  0  0
 15 16  1  0  0  0  0
 15 17  1  0  0  0  0
 15 18  1  0  0  0  0
 18 19  1  0  0  0  0
 18 20  2  0  0  0  0
M  END
> <VConfSearch Rank>
541

> <Conf_Id>
33

> <Delta U+W>
0.000

> <U+W>
-51.745

> <U>
7.593

> <W>
-59.338

> <W(PB)>
-61.574

> <W(SA)>
2.236

> <Valence>
9.570

> <Coulomb>
-3.091

> <VdW>
1.114

> <VdW6>
-6.064

> <VdW12>
7.178

> <Bond>
0.117

> <Angle>
2.692

> <Pdih>
6.761

> <Idih>
0.000

> <Tether>
0.000

$$$$
VeraChem MOL file


 20 19  0  0  0  0  0  0  0  0999 V2000     
   17.8743   22.1079   22.2720 C   0  0  0  0  0  0  0  0  0  0  0  0
   16.9656   21.5991   21.9540 H   0  0  0  0  0  0  0  0  0  0  0  0
   17.8382   23.1928   22.3547 H   0  0  0  0  0  0  0  0  0  0  0  0
   18.9923   21.4315   22.5482 C   0  0  0  0  0  0  0  0  0  0  0  0
   19.8915   21.9600   22.8641 H   0  0  0  0  0  0  0  0  0  0  0  0
   19.1175   19.9270   22.4568 C   0  0  0  0  0  0  0  0  0  0  0  0
   18.1226   19.4667   22.3880 H   0  0  0  0  0  0  0  0  0  0  0  0
   19.5798   19.5478   23.3769 H   0  0  0  0  0  0  0  0  0  0  0  0
   19.9614   19.5140   21.2300 C   0  0  0  0  0  0  0  0  0  0  0  0
   19.5279   19.9748   20.3316 H   0  0  0  0  0  0  0  0  0  0  0  0
   20.9777   19.9198   21.3269 H   0  0  0  0  0  0  0  0  0  0  0  0
   20.0302   17.9833   21.0151 C   0  0  0  0  0  0  0  0  0  0  0  0
   20.5485   17.7837   20.0669 H   0  0  0  0  0  0  0  0  0  0  0  0
   19.0150   17.5777   20.9047 H   0  0  0  0  0  0  0  0  0  0  0  0
   20.7674   17.2310   22.1533 C   0  0  0  0  0  0  0  0  0  0  0  0
   21.7675   17.6554   22.3019 H   0  0  0  0  0  0  0  0  0  0  0  0
   20.2254   17.3350   23.1000 H   0  0  0  0  0  0  0  0  0  0  0  0
   20.9234   15.7412   21.8701 C   0  0  0  0  0  0  0  0  0  0  0  0
   20.0359   14.9928   22.2291 O   0  5  0  0  0  0  0  0  0  0  0  0
   21.9192   15.3706   21.2804 O   0  0  0  0  0  0  0  0  0  0  0  0
  1  2  1  0  0  0  0
  1  3  1  0  0  0  0
  1  4  2  0  0  0  0
  4  5  1  0  0  0  0
  4  6  1  0  0  0  0
  6  7  1  0  0  0  0
  6  8  1  0  0  0  0
  6  9  1  0  0  0  0
  9 10  1  0  0  0  0
  9 11  1  0  0  0  0
  9 12  1  0  0  0  0
 12 13  1  0  0  0  0
 12 14  1  0  0  0  0
 12 15  1  0  0  0  0
 15 16  1  0  0  0  0
 15 17  1  0  0  0  0
 15 18  1  0  0  0  0
 18 19  1  0  0  0  0
 18 20  2  0  0  0  0
M  END
> <VConfSearch Rank>
542

> <Conf_Id>
37

> <Delta U+W>
-0.384

> <U+W>
-52.130

> <U>
7.491

> <W>
-59.621

> <W(PB)>
-61.853

> <W(SA)>
2.232

> <Valence>
9.604

> <Coulomb>
-2.799

> <VdW>
0.686

> <VdW6>
-6.435

> <VdW12>
7.121

> <Bond>
0.124

> <Angle>
2.493

> <Pdih>
6.986

> <Idih>
0.001

> <Tether>
0.000

$$$$
VeraChem MOL file


 20 19  0  0  0  0  0  0  0  0999 V2000     
   19.8496   15.9255   23.1939 C   0  0  0  0  0  0  0  0  0  0  0  0
   19.8874   14.9194   23.6081 H   0  0  0  0  0  0  0  0  0  0  0  0
   18.9219   16.4773   23.3290 H   0  0  0  0  0  0  0  0  0  0  0  0
   20.9049   16.4404   22.5527 C   0  0  0  0  0  0  0  0  0  0  0  0
   21.8074   15.8384   22.4489 H   0  0  0  0  0  0  0  0  0  0  0  0
   21.0016   17.8208   21.9249 C   0  0  0  0  0  0  0  0  0  0  0  0
   21.2488   17.7080   20.8608 H   0  0  0  0  0  0  0  0  0  0  0  0
   21.8523   18.3527   22.3716 H   0  0  0  0  0  0  0  0  0  0  0  0
   19.7309   18.6919   22.0607 C   0  0  0  0  0  0  0  0  0  0  0  0
   18.8799   18.1744   21.5970 H   0  0  0  0  0  0  0  0  0  0  0  0
   19.4899   18.8261   23.1242 H   0  0  0  0  0  0  0  0  0  0  0  0
   19.9118   20.0751   21.3982 C   0  0  0  0  0  0  0  0  0  0  0  0
   20.1532   19.9477   20.3337 H   0  0  0  0  0  0  0  0  0  0  0  0
   20.7620   20.5981   21.8578 H   0  0  0  0  0  0  0  0  0  0  0  0
   18.6407   20.9494   21.5328 C   0  0  0  0  0  0  0  0  0  0  0  0
   17.7845   20.4472   21.0666 H   0  0  0  0  0  0  0  0  0  0  0  0
   18.3932   21.0975   22.5908 H   0  0  0  0  0  0  0  0  0  0  0  0
   18.7946   22.3212   20.8860 C   0  0  0  0  0  0  0  0  0  0  0  0
   18.4927   22.4403   19.7150 O   0  5  0  0  0  0  0  0  0  0  0  0
   19.2310   23.2297   21.5649 O   0  0  0  0  0  0  0  0  0  0  0  0
  1  2  1  0  0  0  0
  1  3  1  0  0  0  0
  1  4  2  0  0  0  0
  4  5  1  0  0  0  0
  4  6  1  0  0  0  0
  6  7  1  0  0  0  0
  6  8  1  0  0  0  0
  6  9  1  0  0  0  0
  9 10  1  0  0  0  0
  9 11  1  0  0  0  0
  9 12  1  0  0  0  0
 12 13  1  0  0  0  0
 12 14  1  0  0  0  0
 12 15  1  0  0  0  0
 15 16  1  0  0  0  0
 15 17  1  0  0  0  0
 15 18  1  0  0  0  0
 18 19  1  0  0  0  0
 18 20  2  0  0  0  0
M  END
> <VConfSearch Rank>
543

> <Conf_Id>
44

> <Delta U+W>
-1.440

> <U+W>
-53.185

> <U>
6.572

> <W>
-59.757

> <W(PB)>
-62.007

> <W(SA)>
2.249

> <Valence>
7.989

> <Coulomb>
-2.697

> <VdW>
1.281

> <VdW6>
-6.467

> <VdW12>
7.748

> <Bond>
0.136

> <Angle>
2.854

> <Pdih>
4.997

> <Idih>
0.001

> <Tether>
0.000

$$$$
VeraChem MOL file


 20 19  0  0  0  0  0  0  0  0999 V2000     
   21.4913   18.1897   24.8148 C   0  0  0  0  0  0  0  0  0  0  0  0
   21.2798   19.2324   25.0464 H   0  0  0  0  0  0  0  0  0  0  0  0
   22.2210   17.6760   25.4383 H   0  0  0  0  0  0  0  0  0  0  0  0
   20.8835   17.5624   23.8044 C   0  0  0  0  0  0  0  0  0  0  0  0
   21.1099   16.5184   23.5890 H   0  0  0  0  0  0  0  0  0  0  0  0
   19.8600   18.2092   22.8978 C   0  0  0  0  0  0  0  0  0  0  0  0
   19.5021   19.1444   23.3471 H   0  0  0  0  0  0  0  0  0  0  0  0
   18.9874   17.5495   22.8006 H   0  0  0  0  0  0  0  0  0  0  0  0
   20.4556   18.4901   21.4998 C   0  0  0  0  0  0  0  0  0  0  0  0
   21.2947   19.1934   21.5924 H   0  0  0  0  0  0  0  0  0  0  0  0
   20.8758   17.5577   21.0984 H   0  0  0  0  0  0  0  0  0  0  0  0
   19.4229   19.0411   20.4877 C   0  0  0  0  0  0  0  0  0  0  0  0
   18.5878   18.3341   20.3869 H   0  0  0  0  0  0  0  0  0  0  0  0
   19.8978   19.1029   19.4987 H   0  0  0  0  0  0  0  0  0  0  0  0
   18.8734   20.4416   20.8642 C   0  0  0  0  0  0  0  0  0  0  0  0
   18.3129   20.3972   21.8047 H   0  0  0  0  0  0  0  0  0  0  0  0
   19.7009   21.1460   21.0109 H   0  0  0  0  0  0  0  0  0  0  0  0
   17.9463   21.0164   19.7993 C   0  0  0  0  0  0  0  0  0  0  0  0
   18.4367   21.6908   18.9153 O   0  5  0  0  0  0  0  0  0  0  0  0
   16.7610   20.7581   19.8704 O   0  0  0  0  0  0  0  0  0  0  0  0
  1  2  1  0  0  0  0
  1  3  1  0  0  0  0
  1  4  2  0  0  0  0
  4  5  1  0  0  0  0
  4  6  1  0  0  0  0
  6  7  1  0  0  0  0
  6  8  1  0  0  0  0
  6  9  1  0  0  0  0
  9 10  1  0  0  0  0
  9 11  1  0  0  0  0
  9 12  1  0  0  0  0
 12 13  1  0  0  0  0
 12 14  1  0  0  0  0
 12 15  1  0  0  0  0
 15 16  1  0  0  0  0
 15 17  1  0  0  0  0
 15 18  1  0  0  0  0
 18 19  1  0  0  0  0
 18 20  2  0  0  0  0
M  END
> <VConfSearch Rank>
544

> <Conf_Id>
38

> <Delta U+W>
-0.381

> <U+W>
-52.126

> <U>
7.601

> <W>
-59.727

> <W(PB)>
-61.964

> <W(SA)>
2.236

> <Valence>
9.602

> <Coulomb>
-2.686

> <VdW>
0.685

> <VdW6>
-6.453

> <VdW12>
7.139

> <Bond>
0.125

> <Angle>
2.485

> <Pdih>
6.991

> <Idih>
0.001

> <Tether>
0.000

$$$$
VeraChem MOL file


 20 19  0  0  0  0  0  0  0  0999 V2000     
   22.4178   18.3414   19.8909 C   0  0  0  0  0  0  0  0  0  0  0  0
   22.2323   17.2748   20.0065 H   0  0  0  0  0  0  0  0  0  0  0  0
   22.9735   18.6608   19.0109 H   0  0  0  0  0  0  0  0  0  0  0  0
   21.9805   19.2271   20.7898 C   0  0  0  0  0  0  0  0  0  0  0  0
   22.1761   20.2907   20.6549 H   0  0  0  0  0  0  0  0  0  0  0  0
   21.2043   18.8588   22.0346 C   0  0  0  0  0  0  0  0  0  0  0  0
   21.6475   19.3600   22.9056 H   0  0  0  0  0  0  0  0  0  0  0  0
   21.2752   17.7786   22.2213 H   0  0  0  0  0  0  0  0  0  0  0  0
   19.7205   19.2624   21.9057 C   0  0  0  0  0  0  0  0  0  0  0  0
   19.6523   20.3435   21.7214 H   0  0  0  0  0  0  0  0  0  0  0  0
   19.2820   18.7630   21.0307 H   0  0  0  0  0  0  0  0  0  0  0  0
   18.9131   18.8956   23.1713 C   0  0  0  0  0  0  0  0  0  0  0  0
   19.3427   19.4019   24.0469 H   0  0  0  0  0  0  0  0  0  0  0  0
   18.9999   17.8163   23.3561 H   0  0  0  0  0  0  0  0  0  0  0  0
   17.4121   19.2659   23.0491 C   0  0  0  0  0  0  0  0  0  0  0  0
   16.9753   18.7899   22.1629 H   0  0  0  0  0  0  0  0  0  0  0  0
   16.8673   18.8792   23.9184 H   0  0  0  0  0  0  0  0  0  0  0  0
   17.1479   20.7671   22.9759 C   0  0  0  0  0  0  0  0  0  0  0  0
   16.8515   21.2480   21.8998 O   0  5  0  0  0  0  0  0  0  0  0  0
   17.2349   21.4142   24.0010 O   0  0  0  0  0  0  0  0  0  0  0  0
  1  2  1  0  0  0  0
  1  3  1  0  0  0  0
  1  4  2  0  0  0  0
  4  5  1  0  0  0  0
  4  6  1  0  0  0  0
  6  7  1  0  0  0  0
  6  8  1  0  0  0  0
  6  9  1  0  0  0  0
  9 10  1  0  0  0  0
  9 11  1  0  0  0  0
  9 12  1  0  0  0  0
 12 13  1  0  0  0  0
 12 14  1  0  0  0  0
 12 15  1  0  0  0  0
 15 16  1  0  0  0  0
 15 17  1  0  0  0  0
 15 18  1  0  0  0  0
 18 19  1  0  0  0  0
 18 20  2  0  0  0  0
M  END
> <VConfSearch Rank>
545

> <Conf_Id>
58

> <Delta U+W>
0.019

> <U+W>
-51.727

> <U>
8.963

> <W>
-60.690

> <W(PB)>
-62.934

> <W(SA)>
2.244

> <Valence>
9.327

> <Coulomb>
-0.780

> <VdW>
0.417

> <VdW6>
-6.635

> <VdW12>
7.052

> <Bond>
0.105

> <Angle>
2.399

> <Pdih>
6.822

> <Idih>
0.000

> <Tether>
0.000

$$$$
VeraChem MOL file


 20 19  0  0  0  0  0  0  0  0999 V2000     
   16.6310   19.2437   23.7726 C   0  0  0  0  0  0  0  0  0  0  0  0
   16.1596   18.5885   23.0417 H   0  0  0  0  0  0  0  0  0  0  0  0
   15.9776   19.8591   24.3886 H   0  0  0  0  0  0  0  0  0  0  0  0
   17.9585   19.2953   23.9095 C   0  0  0  0  0  0  0  0  0  0  0  0
   18.4104   19.9587   24.6465 H   0  0  0  0  0  0  0  0  0  0  0  0
   18.9279   18.4713   23.0916 C   0  0  0  0  0  0  0  0  0  0  0  0
   18.3954   17.6637   22.5710 H   0  0  0  0  0  0  0  0  0  0  0  0
   19.6559   17.9911   23.7590 H   0  0  0  0  0  0  0  0  0  0  0  0
   19.6707   19.3462   22.0602 C   0  0  0  0  0  0  0  0  0  0  0  0
   18.9390   19.8286   21.3975 H   0  0  0  0  0  0  0  0  0  0  0  0
   20.2042   20.1517   22.5836 H   0  0  0  0  0  0  0  0  0  0  0  0
   20.6681   18.5196   21.2175 C   0  0  0  0  0  0  0  0  0  0  0  0
   20.1285   17.7080   20.7108 H   0  0  0  0  0  0  0  0  0  0  0  0
   21.4080   18.0443   21.8766 H   0  0  0  0  0  0  0  0  0  0  0  0
   21.4030   19.3759   20.1538 C   0  0  0  0  0  0  0  0  0  0  0  0
   22.0050   18.7237   19.5102 H   0  0  0  0  0  0  0  0  0  0  0  0
   20.6764   19.8796   19.5048 H   0  0  0  0  0  0  0  0  0  0  0  0
   22.3402   20.4263   20.7431 C   0  0  0  0  0  0  0  0  0  0  0  0
   23.4054   20.0541   21.1946 O   0  5  0  0  0  0  0  0  0  0  0  0
   21.9863   21.5888   20.7253 O   0  0  0  0  0  0  0  0  0  0  0  0
  1  2  1  0  0  0  0
  1  3  1  0  0  0  0
  1  4  2  0  0  0  0
  4  5  1  0  0  0  0
  4  6  1  0  0  0  0
  6  7  1  0  0  0  0
  6  8  1  0  0  0  0
  6  9  1  0  0  0  0
  9 10  1  0  0  0  0
  9 11  1  0  0  0  0
  9 12  1  0  0  0  0
 12 13  1  0  0  0  0
 12 14  1  0  0  0  0
 12 15  1  0  0  0  0
 15 16  1  0  0  0  0
 15 17  1  0  0  0  0
 15 18  1  0  0  0  0
 18 19  1  0  0  0  0
 18 20  2  0  0  0  0
M  END
> <VConfSearch Rank>
546

> <Conf_Id>
54

> <Delta U+W>
-0.048

> <U+W>
-51.793

> <U>
8.964

> <W>
-60.756

> <W(PB)>
-63.007

> <W(SA)>
2.251

> <Valence>
9.327

> <Coulomb>
-0.780

> <VdW>
0.417

> <VdW6>
-6.635

> <VdW12>
7.052

> <Bond>
0.105

> <Angle>
2.399

> <Pdih>
6.822

> <Idih>
0.000

> <Tether>
0.000

$$$$
VeraChem MOL file


 20 19  0  0  0  0  0  0  0  0999 V2000     
   20.2876   17.1812   24.7399 C   0  0  0  0  0  0  0  0  0  0  0  0
   19.7976   16.2923   25.1335 H   0  0  0  0  0  0  0  0  0  0  0  0
   21.3690   17.2472   24.8489 H   0  0  0  0  0  0  0  0  0  0  0  0
   19.5864   18.1495   24.1447 C   0  0  0  0  0  0  0  0  0  0  0  0
   18.5042   18.0650   24.0493 H   0  0  0  0  0  0  0  0  0  0  0  0
   20.1977   19.4146   23.5810 C   0  0  0  0  0  0  0  0  0  0  0  0
   21.1856   19.5806   24.0317 H   0  0  0  0  0  0  0  0  0  0  0  0
   19.5843   20.2824   23.8577 H   0  0  0  0  0  0  0  0  0  0  0  0
   20.3581   19.3578   22.0450 C   0  0  0  0  0  0  0  0  0  0  0  0
   20.9286   20.2382   21.7187 H   0  0  0  0  0  0  0  0  0  0  0  0
   20.9574   18.4783   21.7725 H   0  0  0  0  0  0  0  0  0  0  0  0
   19.0028   19.3200   21.2994 C   0  0  0  0  0  0  0  0  0  0  0  0
   18.3972   20.1920   21.5830 H   0  0  0  0  0  0  0  0  0  0  0  0
   18.4393   18.4296   21.6080 H   0  0  0  0  0  0  0  0  0  0  0  0
   19.1717   19.2912   19.7581 C   0  0  0  0  0  0  0  0  0  0  0  0
   19.8027   18.4445   19.4620 H   0  0  0  0  0  0  0  0  0  0  0  0
   18.1942   19.1393   19.2853 H   0  0  0  0  0  0  0  0  0  0  0  0
   19.7663   20.5698   19.1746 C   0  0  0  0  0  0  0  0  0  0  0  0
   20.9274   20.5536   18.8160 O   0  5  0  0  0  0  0  0  0  0  0  0
   19.0479   21.5460   19.0843 O   0  0  0  0  0  0  0  0  0  0  0  0
  1  2  1  0  0  0  0
  1  3  1  0  0  0  0
  1  4  2  0  0  0  0
  4  5  1  0  0  0  0
  4  6  1  0  0  0  0
  6  7  1  0  0  0  0
  6  8  1  0  0  0  0
  6  9  1  0  0  0  0
  9 10  1  0  0  0  0
  9 11  1  0  0  0  0
  9 12  1  0  0  0  0
 12 13  1  0  0  0  0
 12 14  1  0  0  0  0
 12 15  1  0  0  0  0
 15 16  1  0  0  0  0
 15 17  1  0  0  0  0
 15 18  1  0  0  0  0
 18 19  1  0  0  0  0
 18 20  2  0  0  0  0
M  END
> <VConfSearch Rank>
547

> <Conf_Id>
27

> <Delta U+W>
0.478

> <U+W>
-51.267

> <U>
9.192

> <W>
-60.459

> <W(PB)>
-62.649

> <W(SA)>
2.190

> <Valence>
9.572

> <Coulomb>
-0.884

> <VdW>
0.504

> <VdW6>
-7.168

> <VdW12>
7.672

> <Bond>
0.127

> <Angle>
2.504

> <Pdih>
6.941

> <Idih>
0.001

> <Tether>
0.000

$$$$
VeraChem MOL file


 20 19  0  0  0  0  0  0  0  0999 V2000     
   19.8767   18.6997   25.2740 C   0  0  0  0  0  0  0  0  0  0  0  0
   20.9339   18.6329   25.5255 H   0  0  0  0  0  0  0  0  0  0  0  0
   19.1674   18.2489   25.9660 H   0  0  0  0  0  0  0  0  0  0  0  0
   19.4621   19.3072   24.1592 C   0  0  0  0  0  0  0  0  0  0  0  0
   18.3989   19.3655   23.9281 H   0  0  0  0  0  0  0  0  0  0  0  0
   20.3882   19.9606   23.1555 C   0  0  0  0  0  0  0  0  0  0  0  0
   21.3587   20.1669   23.6268 H   0  0  0  0  0  0  0  0  0  0  0  0
   19.9819   20.9340   22.8500 H   0  0  0  0  0  0  0  0  0  0  0  0
   20.6210   19.0779   21.9086 C   0  0  0  0  0  0  0  0  0  0  0  0
   21.3977   19.5430   21.2863 H   0  0  0  0  0  0  0  0  0  0  0  0
   21.0125   18.1002   22.2218 H   0  0  0  0  0  0  0  0  0  0  0  0
   19.3419   18.8835   21.0624 C   0  0  0  0  0  0  0  0  0  0  0  0
   18.9372   19.8629   20.7719 H   0  0  0  0  0  0  0  0  0  0  0  0
   18.5686   18.3832   21.6610 H   0  0  0  0  0  0  0  0  0  0  0  0
   19.6162   18.0455   19.7894 C   0  0  0  0  0  0  0  0  0  0  0  0
   20.3748   18.5366   19.1683 H   0  0  0  0  0  0  0  0  0  0  0  0
   20.0098   17.0592   20.0633 H   0  0  0  0  0  0  0  0  0  0  0  0
   18.3691   17.8380   18.9375 C   0  0  0  0  0  0  0  0  0  0  0  0
   17.6781   16.8634   19.1597 O   0  5  0  0  0  0  0  0  0  0  0  0
   18.1120   18.6659   18.0859 O   0  0  0  0  0  0  0  0  0  0  0  0
  1  2  1  0  0  0  0
  1  3  1  0  0  0  0
  1  4  2  0  0  0  0
  4  5  1  0  0  0  0
  4  6  1  0  0  0  0
  6  7  1  0  0  0  0
  6  8  1  0  0  0  0
  6  9  1  0  0  0  0
  9 10  1  0  0  0  0
  9 11  1  0  0  0  0
  9 12  1  0  0  0  0
 12 13  1  0  0  0  0
 12 14  1  0  0  0  0
 12 15  1  0  0  0  0
 15 16  1  0  0  0  0
 15 17  1  0  0  0  0
 15 18  1  0  0  0  0
 18 19  1  0  0  0  0
 18 20  2  0  0  0  0
M  END
> <VConfSearch Rank>
548

> <Conf_Id>
41

> <Delta U+W>
-0.634

> <U+W>
-52.379

> <U>
7.828

> <W>
-60.207

> <W(PB)>
-62.449

> <W(SA)>
2.242

> <Valence>
9.300

> <Coulomb>
-2.080

> <VdW>
0.608

> <VdW6>
-6.341

> <VdW12>
6.949

> <Bond>
0.103

> <Angle>
2.334

> <Pdih>
6.862

> <Idih>
0.001

> <Tether>
0.000

$$$$
VeraChem MOL file


 20 19  0  0  0  0  0  0  0  0999 V2000     
   17.8585   17.3999   24.4570 C   0  0  0  0  0  0  0  0  0  0  0  0
   17.6804   16.5502   25.1139 H   0  0  0  0  0  0  0  0  0  0  0  0
   17.3044   18.3150   24.6599 H   0  0  0  0  0  0  0  0  0  0  0  0
   18.7255   17.3194   23.4443 C   0  0  0  0  0  0  0  0  0  0  0  0
   19.2708   16.3944   23.2583 H   0  0  0  0  0  0  0  0  0  0  0  0
   19.0239   18.4552   22.4911 C   0  0  0  0  0  0  0  0  0  0  0  0
   18.2620   19.2406   22.5849 H   0  0  0  0  0  0  0  0  0  0  0  0
   18.9726   18.0820   21.4600 H   0  0  0  0  0  0  0  0  0  0  0  0
   20.4210   19.0559   22.7641 C   0  0  0  0  0  0  0  0  0  0  0  0
   20.4871   19.3316   23.8255 H   0  0  0  0  0  0  0  0  0  0  0  0
   21.1897   18.2890   22.5963 H   0  0  0  0  0  0  0  0  0  0  0  0
   20.7337   20.3087   21.9091 C   0  0  0  0  0  0  0  0  0  0  0  0
   21.7064   20.7148   22.2195 H   0  0  0  0  0  0  0  0  0  0  0  0
   19.9916   21.0889   22.1259 H   0  0  0  0  0  0  0  0  0  0  0  0
   20.7674   20.0494   20.3781 C   0  0  0  0  0  0  0  0  0  0  0  0
   19.7875   19.7135   20.0205 H   0  0  0  0  0  0  0  0  0  0  0  0
   20.9825   20.9889   19.8557 H   0  0  0  0  0  0  0  0  0  0  0  0
   21.8210   19.0358   19.9410 C   0  0  0  0  0  0  0  0  0  0  0  0
   22.9886   19.3714   19.9788 O   0  5  0  0  0  0  0  0  0  0  0  0
   21.4468   17.9450   19.5575 O   0  0  0  0  0  0  0  0  0  0  0  0
  1  2  1  0  0  0  0
  1  3  1  0  0  0  0
  1  4  2  0  0  0  0
  4  5  1  0  0  0  0
  4  6  1  0  0  0  0
  6  7  1  0  0  0  0
  6  8  1  0  0  0  0
  6  9  1  0  0  0  0
  9 10  1  0  0  0  0
  9 11  1  0  0  0  0
  9 12  1  0  0  0  0
 12 13  1  0  0  0  0
 12 14  1  0  0  0  0
 12 15  1  0  0  0  0
 15 16  1  0  0  0  0
 15 17  1  0  0  0  0
 15 18  1  0  0  0  0
 18 19  1  0  0  0  0
 18 20  2  0  0  0  0
M  END
> <VConfSearch Rank>
549

> <Conf_Id>
84

> <Delta U+W>
0.942

> <U+W>
-50.803

> <U>
10.196

> <W>
-60.999

> <W(PB)>
-63.182

> <W(SA)>
2.182

> <Valence>
9.837

> <Coulomb>
0.032

> <VdW>
0.328

> <VdW6>
-7.642

> <VdW12>
7.969

> <Bond>
0.151

> <Angle>
2.748

> <Pdih>
6.937

> <Idih>
0.001

> <Tether>
0.000

$$$$
VeraChem MOL file


 20 19  0  0  0  0  0  0  0  0999 V2000     
   19.0206   21.6996   19.7083 C   0  0  0  0  0  0  0  0  0  0  0  0
   18.2627   22.3131   19.2241 H   0  0  0  0  0  0  0  0  0  0  0  0
   19.9254   22.1989   20.0512 H   0  0  0  0  0  0  0  0  0  0  0  0
   18.8424   20.3866   19.8753 C   0  0  0  0  0  0  0  0  0  0  0  0
   17.9288   19.9063   19.5255 H   0  0  0  0  0  0  0  0  0  0  0  0
   19.8491   19.4717   20.5365 C   0  0  0  0  0  0  0  0  0  0  0  0
   20.8223   19.9744   20.6203 H   0  0  0  0  0  0  0  0  0  0  0  0
   20.0051   18.5834   19.9099 H   0  0  0  0  0  0  0  0  0  0  0  0
   19.3723   19.0392   21.9389 C   0  0  0  0  0  0  0  0  0  0  0  0
   19.2122   19.9328   22.5581 H   0  0  0  0  0  0  0  0  0  0  0  0
   18.4009   18.5327   21.8554 H   0  0  0  0  0  0  0  0  0  0  0  0
   20.3889   18.1006   22.6272 C   0  0  0  0  0  0  0  0  0  0  0  0
   21.3581   18.6093   22.7251 H   0  0  0  0  0  0  0  0  0  0  0  0
   20.5568   17.2201   21.9922 H   0  0  0  0  0  0  0  0  0  0  0  0
   19.9131   17.6288   24.0258 C   0  0  0  0  0  0  0  0  0  0  0  0
   18.9332   17.1424   23.9485 H   0  0  0  0  0  0  0  0  0  0  0  0
   20.6103   16.8781   24.4161 H   0  0  0  0  0  0  0  0  0  0  0  0
   19.8216   18.7475   25.0597 C   0  0  0  0  0  0  0  0  0  0  0  0
   18.7202   19.1592   25.3668 O   0  5  0  0  0  0  0  0  0  0  0  0
   20.8554   19.1686   25.5404 O   0  0  0  0  0  0  0  0  0  0  0  0
  1  2  1  0  0  0  0
  1  3  1  0  0  0  0
  1  4  2  0  0  0  0
  4  5  1  0  0  0  0
  4  6  1  0  0  0  0
  6  7  1  0  0  0  0
  6  8  1  0  0  0  0
  6  9  1  0  0  0  0
  9 10  1  0  0  0  0
  9 11  1  0  0  0  0
  9 12  1  0  0  0  0
 12 13  1  0  0  0  0
 12 14  1  0  0  0  0
 12 15  1  0  0  0  0
 15 16  1  0  0  0  0
 15 17  1  0  0  0  0
 15 18  1  0  0  0  0
 18 19  1  0  0  0  0
 18 20  2  0  0  0  0
M  END
> <VConfSearch Rank>
550

> <Conf_Id>
81

> <Delta U+W>
-0.051

> <U+W>
-51.796

> <U>
9.412

> <W>
-61.209

> <W(PB)>
-63.452

> <W(SA)>
2.243

> <Valence>
9.329

> <Coulomb>
-0.323

> <VdW>
0.406

> <VdW6>
-6.640

> <VdW12>
7.046

> <Bond>
0.105

> <Angle>
2.401

> <Pdih>
6.823

> <Idih>
0.000

> <Tether>
0.000

$$$$
VeraChem MOL file


 20 19  0  0  0  0  0  0  0  0999 V2000     
   17.5003   18.5558   24.4051 C   0  0  0  0  0  0  0  0  0  0  0  0
   17.7212   19.2580   25.2075 H   0  0  0  0  0  0  0  0  0  0  0  0
   16.5329   18.0571   24.4277 H   0  0  0  0  0  0  0  0  0  0  0  0
   18.3782   18.3152   23.4279 C   0  0  0  0  0  0  0  0  0  0  0  0
   18.1385   17.6069   22.6354 H   0  0  0  0  0  0  0  0  0  0  0  0
   19.7419   18.9655   23.3336 C   0  0  0  0  0  0  0  0  0  0  0  0
   20.5020   18.2128   23.0874 H   0  0  0  0  0  0  0  0  0  0  0  0
   20.0279   19.3696   24.3140 H   0  0  0  0  0  0  0  0  0  0  0  0
   19.7781   20.1158   22.2991 C   0  0  0  0  0  0  0  0  0  0  0  0
   19.0720   20.8964   22.6135 H   0  0  0  0  0  0  0  0  0  0  0  0
   20.7735   20.5804   22.3182 H   0  0  0  0  0  0  0  0  0  0  0  0
   19.4396   19.6921   20.8465 C   0  0  0  0  0  0  0  0  0  0  0  0
   19.4676   20.5834   20.2046 H   0  0  0  0  0  0  0  0  0  0  0  0
   18.4074   19.3202   20.8044 H   0  0  0  0  0  0  0  0  0  0  0  0
   20.3925   18.6198   20.2512 C   0  0  0  0  0  0  0  0  0  0  0  0
   20.3324   17.6883   20.8252 H   0  0  0  0  0  0  0  0  0  0  0  0
   20.0731   18.3767   19.2311 H   0  0  0  0  0  0  0  0  0  0  0  0
   21.8530   19.0560   20.1783 C   0  0  0  0  0  0  0  0  0  0  0  0
   22.6462   18.5445   20.9441 O   0  5  0  0  0  0  0  0  0  0  0  0
   22.1620   19.8845   19.3443 O   0  0  0  0  0  0  0  0  0  0  0  0
  1  2  1  0  0  0  0
  1  3  1  0  0  0  0
  1  4  2  0  0  0  0
  4  5  1  0  0  0  0
  4  6  1  0  0  0  0
  6  7  1  0  0  0  0
  6  8  1  0  0  0  0
  6  9  1  0  0  0  0
  9 10  1  0  0  0  0
  9 11  1  0  0  0  0
  9 12  1  0  0  0  0
 12 13  1  0  0  0  0
 12 14  1  0  0  0  0
 12 15  1  0  0  0  0
 15 16  1  0  0  0  0
 15 17  1  0  0  0  0
 15 18  1  0  0  0  0
 18 19  1  0  0  0  0
 18 20  2  0  0  0  0
M  END
> <VConfSearch Rank>
551

> <Conf_Id>
86

> <Delta U+W>
1.248

> <U+W>
-50.498

> <U>
10.404

> <W>
-60.901

> <W(PB)>
-63.061

> <W(SA)>
2.159

> <Valence>
10.021

> <Coulomb>
0.094

> <VdW>
0.289

> <VdW6>
-8.409

> <VdW12>
8.698

> <Bond>
0.179

> <Angle>
2.939

> <Pdih>
6.902

> <Idih>
0.001

> <Tether>
0.000

$$$$
VeraChem MOL file


 20 19  0  0  0  0  0  0  0  0999 V2000     
   21.7697   21.4946   21.9748 C   0  0  0  0  0  0  0  0  0  0  0  0
   21.8426   22.4757   21.5087 H   0  0  0  0  0  0  0  0  0  0  0  0
   21.7903   21.4537   23.0626 H   0  0  0  0  0  0  0  0  0  0  0  0
   21.6560   20.3867   21.2374 C   0  0  0  0  0  0  0  0  0  0  0  0
   21.6350   20.4497   20.1498 H   0  0  0  0  0  0  0  0  0  0  0  0
   21.5496   18.9905   21.8130 C   0  0  0  0  0  0  0  0  0  0  0  0
   21.7802   18.9960   22.8870 H   0  0  0  0  0  0  0  0  0  0  0  0
   22.3033   18.3486   21.3378 H   0  0  0  0  0  0  0  0  0  0  0  0
   20.1529   18.3684   21.5888 C   0  0  0  0  0  0  0  0  0  0  0  0
   19.9198   18.3661   20.5152 H   0  0  0  0  0  0  0  0  0  0  0  0
   20.1806   17.3167   21.9051 H   0  0  0  0  0  0  0  0  0  0  0  0
   19.0382   19.1086   22.3654 C   0  0  0  0  0  0  0  0  0  0  0  0
   19.0048   20.1586   22.0452 H   0  0  0  0  0  0  0  0  0  0  0  0
   19.2735   19.1140   23.4387 H   0  0  0  0  0  0  0  0  0  0  0  0
   17.6390   18.4758   22.1486 C   0  0  0  0  0  0  0  0  0  0  0  0
   16.8751   19.1069   22.6178 H   0  0  0  0  0  0  0  0  0  0  0  0
   17.4036   18.4350   21.0783 H   0  0  0  0  0  0  0  0  0  0  0  0
   17.4946   17.0737   22.7334 C   0  0  0  0  0  0  0  0  0  0  0  0
   17.3583   16.9664   23.9363 O   0  5  0  0  0  0  0  0  0  0  0  0
   17.5106   16.1273   21.9711 O   0  0  0  0  0  0  0  0  0  0  0  0
  1  2  1  0  0  0  0
  1  3  1  0  0  0  0
  1  4  2  0  0  0  0
  4  5  1  0  0  0  0
  4  6  1  0  0  0  0
  6  7  1  0  0  0  0
  6  8  1  0  0  0  0
  6  9  1  0  0  0  0
  9 10  1  0  0  0  0
  9 11  1  0  0  0  0
  9 12  1  0  0  0  0
 12 13  1  0  0  0  0
 12 14  1  0  0  0  0
 12 15  1  0  0  0  0
 15 16  1  0  0  0  0
 15 17  1  0  0  0  0
 15 18  1  0  0  0  0
 18 19  1  0  0  0  0
 18 20  2  0  0  0  0
M  END
> <VConfSearch Rank>
552

> <Conf_Id>
28

> <Delta U+W>
0.446

> <U+W>
-51.299

> <U>
9.295

> <W>
-60.594

> <W(PB)>
-62.806

> <W(SA)>
2.212

> <Valence>
9.495

> <Coulomb>
-0.610

> <VdW>
0.409

> <VdW6>
-7.332

> <VdW12>
7.741

> <Bond>
0.126

> <Angle>
2.497

> <Pdih>
6.872

> <Idih>
0.000

> <Tether>
0.000

$$$$
VeraChem MOL file


 20 19  0  0  0  0  0  0  0  0999 V2000     
   16.8574   20.3051   22.0407 C   0  0  0  0  0  0  0  0  0  0  0  0
   16.8159   19.2262   22.1744 H   0  0  0  0  0  0  0  0  0  0  0  0
   15.9161   20.8464   22.1185 H   0  0  0  0  0  0  0  0  0  0  0  0
   18.0010   20.9547   21.7955 C   0  0  0  0  0  0  0  0  0  0  0  0
   17.9794   22.0374   21.6731 H   0  0  0  0  0  0  0  0  0  0  0  0
   19.3842   20.3404   21.6585 C   0  0  0  0  0  0  0  0  0  0  0  0
   20.0253   20.7513   22.4490 H   0  0  0  0  0  0  0  0  0  0  0  0
   19.8251   20.6760   20.7105 H   0  0  0  0  0  0  0  0  0  0  0  0
   19.4198   18.7930   21.7105 C   0  0  0  0  0  0  0  0  0  0  0  0
   19.0632   18.4483   22.6909 H   0  0  0  0  0  0  0  0  0  0  0  0
   18.7205   18.3938   20.9632 H   0  0  0  0  0  0  0  0  0  0  0  0
   20.8215   18.1976   21.4279 C   0  0  0  0  0  0  0  0  0  0  0  0
   21.1500   18.5053   20.4260 H   0  0  0  0  0  0  0  0  0  0  0  0
   20.7408   17.1021   21.4015 H   0  0  0  0  0  0  0  0  0  0  0  0
   21.9098   18.5914   22.4638 C   0  0  0  0  0  0  0  0  0  0  0  0
   22.8647   18.1357   22.1771 H   0  0  0  0  0  0  0  0  0  0  0  0
   22.0716   19.6752   22.4630 H   0  0  0  0  0  0  0  0  0  0  0  0
   21.6046   18.1433   23.8903 C   0  0  0  0  0  0  0  0  0  0  0  0
   21.6646   16.9558   24.1427 O   0  5  0  0  0  0  0  0  0  0  0  0
   21.3359   18.9936   24.7159 O   0  0  0  0  0  0  0  0  0  0  0  0
  1  2  1  0  0  0  0
  1  3  1  0  0  0  0
  1  4  2  0  0  0  0
  4  5  1  0  0  0  0
  4  6  1  0  0  0  0
  6  7  1  0  0  0  0
  6  8  1  0  0  0  0
  6  9  1  0  0  0  0
  9 10  1  0  0  0  0
  9 11  1  0  0  0  0
  9 12  1  0  0  0  0
 12 13  1  0  0  0  0
 12 14  1  0  0  0  0
 12 15  1  0  0  0  0
 15 16  1  0  0  0  0
 15 17  1  0  0  0  0
 15 18  1  0  0  0  0
 18 19  1  0  0  0  0
 18 20  2  0  0  0  0
M  END
> <VConfSearch Rank>
553

> <Conf_Id>
53

> <Delta U+W>
0.549

> <U+W>
-51.197

> <U>
10.870

> <W>
-62.067

> <W(PB)>
-64.228

> <W(SA)>
2.161

> <Valence>
8.803

> <Coulomb>
1.020

> <VdW>
1.048

> <VdW6>
-8.312

> <VdW12>
9.360

> <Bond>
0.212

> <Angle>
3.379

> <Pdih>
5.211

> <Idih>
0.001

> <Tether>
0.000

$$$$
VeraChem MOL file


 20 19  0  0  0  0  0  0  0  0999 V2000     
   21.7338   18.5280   23.9573 C   0  0  0  0  0  0  0  0  0  0  0  0
   22.1997   19.2664   23.3084 H   0  0  0  0  0  0  0  0  0  0  0  0
   22.3976   17.8504   24.4913 H   0  0  0  0  0  0  0  0  0  0  0  0
   20.4073   18.4481   24.1077 C   0  0  0  0  0  0  0  0  0  0  0  0
   19.9919   17.6915   24.7727 H   0  0  0  0  0  0  0  0  0  0  0  0
   19.3678   19.3208   23.4236 C   0  0  0  0  0  0  0  0  0  0  0  0
   19.0594   20.1118   24.1196 H   0  0  0  0  0  0  0  0  0  0  0  0
   18.4596   18.7282   23.2544 H   0  0  0  0  0  0  0  0  0  0  0  0
   19.8016   19.9641   22.0805 C   0  0  0  0  0  0  0  0  0  0  0  0
   18.9943   20.6224   21.7316 H   0  0  0  0  0  0  0  0  0  0  0  0
   20.6640   20.6214   22.2524 H   0  0  0  0  0  0  0  0  0  0  0  0
   20.1444   18.9520   20.9558 C   0  0  0  0  0  0  0  0  0  0  0  0
   20.9987   18.3348   21.2620 H   0  0  0  0  0  0  0  0  0  0  0  0
   20.4746   19.5104   20.0691 H   0  0  0  0  0  0  0  0  0  0  0  0
   18.9706   18.0204   20.5475 C   0  0  0  0  0  0  0  0  0  0  0  0
   19.3057   17.3411   19.7552 H   0  0  0  0  0  0  0  0  0  0  0  0
   18.6693   17.3878   21.3902 H   0  0  0  0  0  0  0  0  0  0  0  0
   17.7415   18.7577   20.0240 C   0  0  0  0  0  0  0  0  0  0  0  0
   16.7487   18.7928   20.7242 O   0  5  0  0  0  0  0  0  0  0  0  0
   17.8039   19.2627   18.9201 O   0  0  0  0  0  0  0  0  0  0  0  0
  1  2  1  0  0  0  0
  1  3  1  0  0  0  0
  1  4  2  0  0  0  0
  4  5  1  0  0  0  0
  4  6  1  0  0  0  0
  6  7  1  0  0  0  0
  6  8  1  0  0  0  0
  6  9  1  0  0  0  0
  9 10  1  0  0  0  0
  9 11  1  0  0  0  0
  9 12  1  0  0  0  0
 12 13  1  0  0  0  0
 12 14  1  0  0  0  0
 12 15  1  0  0  0  0
 15 16  1  0  0  0  0
 15 17  1  0  0  0  0
 15 18  1  0  0  0  0
 18 19  1  0  0  0  0
 18 20  2  0  0  0  0
M  END
> <VConfSearch Rank>
554

> <Conf_Id>
66

> <Delta U+W>
1.737

> <U+W>
-50.008

> <U>
11.091

> <W>
-61.099

> <W(PB)>
-63.213

> <W(SA)>
2.114

> <Valence>
9.664

> <Coulomb>
0.658

> <VdW>
0.769

> <VdW6>
-9.171

> <VdW12>
9.940

> <Bond>
0.244

> <Angle>
3.658

> <Pdih>
5.762

> <Idih>
0.001

> <Tether>
0.000

$$$$
VeraChem MOL file


 20 19  0  0  0  0  0  0  0  0999 V2000     
   17.8376   20.3055   23.6446 C   0  0  0  0  0  0  0  0  0  0  0  0
   18.7877   20.4675   24.1488 H   0  0  0  0  0  0  0  0  0  0  0  0
   17.0994   21.1024   23.7146 H   0  0  0  0  0  0  0  0  0  0  0  0
   17.5707   19.1818   22.9700 C   0  0  0  0  0  0  0  0  0  0  0  0
   16.6010   19.0710   22.4854 H   0  0  0  0  0  0  0  0  0  0  0  0
   18.5022   17.9950   22.7848 C   0  0  0  0  0  0  0  0  0  0  0  0
   18.3290   17.5590   21.7930 H   0  0  0  0  0  0  0  0  0  0  0  0
   18.2106   17.2074   23.4920 H   0  0  0  0  0  0  0  0  0  0  0  0
   20.0165   18.2894   22.9480 C   0  0  0  0  0  0  0  0  0  0  0  0
   20.2066   18.6720   23.9594 H   0  0  0  0  0  0  0  0  0  0  0  0
   20.5681   17.3418   22.8816 H   0  0  0  0  0  0  0  0  0  0  0  0
   20.6004   19.2776   21.9062 C   0  0  0  0  0  0  0  0  0  0  0  0
   21.6491   19.4789   22.1647 H   0  0  0  0  0  0  0  0  0  0  0  0
   20.0794   20.2423   21.9642 H   0  0  0  0  0  0  0  0  0  0  0  0
   20.5407   18.7493   20.4494 C   0  0  0  0  0  0  0  0  0  0  0  0
   21.0129   17.7620   20.3843 H   0  0  0  0  0  0  0  0  0  0  0  0
   19.5005   18.6363   20.1237 H   0  0  0  0  0  0  0  0  0  0  0  0
   21.2397   19.6730   19.4582 C   0  0  0  0  0  0  0  0  0  0  0  0
   20.5800   20.5344   18.9110 O   0  5  0  0  0  0  0  0  0  0  0  0
   22.4300   19.5158   19.2698 O   0  0  0  0  0  0  0  0  0  0  0  0
  1  2  1  0  0  0  0
  1  3  1  0  0  0  0
  1  4  2  0  0  0  0
  4  5  1  0  0  0  0
  4  6  1  0  0  0  0
  6  7  1  0  0  0  0
  6  8  1  0  0  0  0
  6  9  1  0  0  0  0
  9 10  1  0  0  0  0
  9 11  1  0  0  0  0
  9 12  1  0  0  0  0
 12 13  1  0  0  0  0
 12 14  1  0  0  0  0
 12 15  1  0  0  0  0
 15 16  1  0  0  0  0
 15 17  1  0  0  0  0
 15 18  1  0  0  0  0
 18 19  1  0  0  0  0
 18 20  2  0  0  0  0
M  END
> <VConfSearch Rank>
555

> <Conf_Id>
64

> <Delta U+W>
0.366

> <U+W>
-51.379

> <U>
10.000

> <W>
-61.379

> <W(PB)>
-63.541

> <W(SA)>
2.162

> <Valence>
9.398

> <Coulomb>
-0.504

> <VdW>
1.105

> <VdW6>
-7.975

> <VdW12>
9.080

> <Bond>
0.216

> <Angle>
3.417

> <Pdih>
5.765

> <Idih>
0.001

> <Tether>
0.000

$$$$
VeraChem MOL file


 20 19  0  0  0  0  0  0  0  0999 V2000     
   19.1179   20.3489   19.4186 C   0  0  0  0  0  0  0  0  0  0  0  0
   18.0886   20.3183   19.7721 H   0  0  0  0  0  0  0  0  0  0  0  0
   19.2954   20.1107   18.3713 H   0  0  0  0  0  0  0  0  0  0  0  0
   20.1268   20.6621   20.2359 C   0  0  0  0  0  0  0  0  0  0  0  0
   21.1503   20.6846   19.8626 H   0  0  0  0  0  0  0  0  0  0  0  0
   19.9584   21.0035   21.7012 C   0  0  0  0  0  0  0  0  0  0  0  0
   18.8978   21.1567   21.9430 H   0  0  0  0  0  0  0  0  0  0  0  0
   20.4638   21.9562   21.9079 H   0  0  0  0  0  0  0  0  0  0  0  0
   20.5468   19.9157   22.6276 C   0  0  0  0  0  0  0  0  0  0  0  0
   21.6074   19.7621   22.3852 H   0  0  0  0  0  0  0  0  0  0  0  0
   20.5102   20.2755   23.6649 H   0  0  0  0  0  0  0  0  0  0  0  0
   19.7871   18.5731   22.5284 C   0  0  0  0  0  0  0  0  0  0  0  0
   19.8392   18.1888   21.5004 H   0  0  0  0  0  0  0  0  0  0  0  0
   18.7237   18.7321   22.7546 H   0  0  0  0  0  0  0  0  0  0  0  0
   20.3638   17.5116   23.4973 C   0  0  0  0  0  0  0  0  0  0  0  0
   21.4228   17.3328   23.2756 H   0  0  0  0  0  0  0  0  0  0  0  0
   20.3050   17.8709   24.5317 H   0  0  0  0  0  0  0  0  0  0  0  0
   19.6308   16.1773   23.4177 C   0  0  0  0  0  0  0  0  0  0  0  0
   18.6583   16.0141   24.1279 O   0  5  0  0  0  0  0  0  0  0  0  0
   20.0430   15.3416   22.6378 O   0  0  0  0  0  0  0  0  0  0  0  0
  1  2  1  0  0  0  0
  1  3  1  0  0  0  0
  1  4  2  0  0  0  0
  4  5  1  0  0  0  0
  4  6  1  0  0  0  0
  6  7  1  0  0  0  0
  6  8  1  0  0  0  0
  6  9  1  0  0  0  0
  9 10  1  0  0  0  0
  9 11  1  0  0  0  0
  9 12  1  0  0  0  0
 12 13  1  0  0  0  0
 12 14  1  0  0  0  0
 12 15  1  0  0  0  0
 15 16  1  0  0  0  0
 15 17  1  0  0  0  0
 15 18  1  0  0  0  0
 18 19  1  0  0  0  0
 18 20  2  0  0  0  0
M  END
> <VConfSearch Rank>
556

> <Conf_Id>
42

> <Delta U+W>
-0.601

> <U+W>
-52.347

> <U>
8.428

> <W>
-60.774

> <W(PB)>
-62.982

> <W(SA)>
2.208

> <Valence>
9.231

> <Coulomb>
-1.304

> <VdW>
0.501

> <VdW6>
-6.515

> <VdW12>
7.016

> <Bond>
0.103

> <Angle>
2.328

> <Pdih>
6.799

> <Idih>
0.000

> <Tether>
0.000

$$$$
VeraChem MOL file


 20 19  0  0  0  0  0  0  0  0999 V2000     
   19.8637   19.8048   19.1104 C   0  0  0  0  0  0  0  0  0  0  0  0
   20.9522   19.7889   19.0989 H   0  0  0  0  0  0  0  0  0  0  0  0
   19.3662   20.5314   18.4703 H   0  0  0  0  0  0  0  0  0  0  0  0
   19.1622   18.9697   19.8814 C   0  0  0  0  0  0  0  0  0  0  0  0
   18.0730   19.0039   19.8804 H   0  0  0  0  0  0  0  0  0  0  0  0
   19.7822   17.9355   20.7968 C   0  0  0  0  0  0  0  0  0  0  0  0
   20.8569   17.8341   20.5939 H   0  0  0  0  0  0  0  0  0  0  0  0
   19.3335   16.9555   20.5870 H   0  0  0  0  0  0  0  0  0  0  0  0
   19.5681   18.2719   22.2898 C   0  0  0  0  0  0  0  0  0  0  0  0
   18.4922   18.3663   22.4920 H   0  0  0  0  0  0  0  0  0  0  0  0
   19.9283   17.4315   22.8987 H   0  0  0  0  0  0  0  0  0  0  0  0
   20.3016   19.5638   22.7215 C   0  0  0  0  0  0  0  0  0  0  0  0
   19.9209   20.4208   22.1490 H   0  0  0  0  0  0  0  0  0  0  0  0
   21.3688   19.4720   22.4791 H   0  0  0  0  0  0  0  0  0  0  0  0
   20.1520   19.8558   24.2372 C   0  0  0  0  0  0  0  0  0  0  0  0
   20.5056   19.0002   24.8251 H   0  0  0  0  0  0  0  0  0  0  0  0
   20.7825   20.7104   24.5094 H   0  0  0  0  0  0  0  0  0  0  0  0
   18.7251   20.1852   24.6668 C   0  0  0  0  0  0  0  0  0  0  0  0
   18.0823   19.3253   25.2364 O   0  5  0  0  0  0  0  0  0  0  0  0
   18.3007   21.3004   24.4361 O   0  0  0  0  0  0  0  0  0  0  0  0
  1  2  1  0  0  0  0
  1  3  1  0  0  0  0
  1  4  2  0  0  0  0
  4  5  1  0  0  0  0
  4  6  1  0  0  0  0
  6  7  1  0  0  0  0
  6  8  1  0  0  0  0
  6  9  1  0  0  0  0
  9 10  1  0  0  0  0
  9 11  1  0  0  0  0
  9 12  1  0  0  0  0
 12 13  1  0  0  0  0
 12 14  1  0  0  0  0
 12 15  1  0  0  0  0
 15 16  1  0  0  0  0
 15 17  1  0  0  0  0
 15 18  1  0  0  0  0
 18 19  1  0  0  0  0
 18 20  2  0  0  0  0
M  END
> <VConfSearch Rank>
557

> <Conf_Id>
68

> <Delta U+W>
0.492

> <U+W>
-51.253

> <U>
10.179

> <W>
-61.432

> <W(PB)>
-63.627

> <W(SA)>
2.195

> <Valence>
9.483

> <Coulomb>
0.361

> <VdW>
0.335

> <VdW6>
-7.385

> <VdW12>
7.720

> <Bond>
0.125

> <Angle>
2.487

> <Pdih>
6.870

> <Idih>
0.001

> <Tether>
0.000

$$$$
VeraChem MOL file


 20 19  0  0  0  0  0  0  0  0999 V2000     
   19.7361   16.1601   22.9180 C   0  0  0  0  0  0  0  0  0  0  0  0
   19.0038   16.1096   23.7221 H   0  0  0  0  0  0  0  0  0  0  0  0
   20.5837   15.4787   22.9686 H   0  0  0  0  0  0  0  0  0  0  0  0
   19.6055   17.0253   21.9090 C   0  0  0  0  0  0  0  0  0  0  0  0
   20.3488   17.0572   21.1129 H   0  0  0  0  0  0  0  0  0  0  0  0
   18.4530   17.9969   21.7694 C   0  0  0  0  0  0  0  0  0  0  0  0
   17.6111   17.6649   22.3920 H   0  0  0  0  0  0  0  0  0  0  0  0
   18.0877   17.9976   20.7338 H   0  0  0  0  0  0  0  0  0  0  0  0
   18.8410   19.4333   22.1869 C   0  0  0  0  0  0  0  0  0  0  0  0
   17.9374   20.0579   22.1889 H   0  0  0  0  0  0  0  0  0  0  0  0
   19.2162   19.4227   23.2197 H   0  0  0  0  0  0  0  0  0  0  0  0
   19.8948   20.0683   21.2487 C   0  0  0  0  0  0  0  0  0  0  0  0
   19.5295   20.0284   20.2137 H   0  0  0  0  0  0  0  0  0  0  0  0
   20.8256   19.4856   21.2791 H   0  0  0  0  0  0  0  0  0  0  0  0
   20.2065   21.5424   21.6158 C   0  0  0  0  0  0  0  0  0  0  0  0
   20.8659   21.9776   20.8556 H   0  0  0  0  0  0  0  0  0  0  0  0
   19.2849   22.1369   21.6143 H   0  0  0  0  0  0  0  0  0  0  0  0
   20.8932   21.7124   22.9679 C   0  0  0  0  0  0  0  0  0  0  0  0
   22.0806   21.4641   23.0420 O   0  5  0  0  0  0  0  0  0  0  0  0
   20.2284   22.1068   23.9058 O   0  0  0  0  0  0  0  0  0  0  0  0
  1  2  1  0  0  0  0
  1  3  1  0  0  0  0
  1  4  2  0  0  0  0
  4  5  1  0  0  0  0
  4  6  1  0  0  0  0
  6  7  1  0  0  0  0
  6  8  1  0  0  0  0
  6  9  1  0  0  0  0
  9 10  1  0  0  0  0
  9 11  1  0  0  0  0
  9 12  1  0  0  0  0
 12 13  1  0  0  0  0
 12 14  1  0  0  0  0
 12 15  1  0  0  0  0
 15 16  1  0  0  0  0
 15 17  1  0  0  0  0
 15 18  1  0  0  0  0
 18 19  1  0  0  0  0
 18 20  2  0  0  0  0
M  END
> <VConfSearch Rank>
558

> <Conf_Id>
87

> <Delta U+W>
0.339

> <U+W>
-51.407

> <U>
10.461

> <W>
-61.867

> <W(PB)>
-64.045

> <W(SA)>
2.178

> <Valence>
9.555

> <Coulomb>
0.483

> <VdW>
0.423

> <VdW6>
-7.223

> <VdW12>
7.646

> <Bond>
0.126

> <Angle>
2.492

> <Pdih>
6.936

> <Idih>
0.001

> <Tether>
0.000

$$$$
VeraChem MOL file


 20 19  0  0  0  0  0  0  0  0999 V2000     
   19.7781   17.0663   19.8261 C   0  0  0  0  0  0  0  0  0  0  0  0
   18.8433   17.2100   19.2867 H   0  0  0  0  0  0  0  0  0  0  0  0
   20.6670   16.8413   19.2394 H   0  0  0  0  0  0  0  0  0  0  0  0
   19.8349   17.1643   21.1569 C   0  0  0  0  0  0  0  0  0  0  0  0
   20.7779   17.0082   21.6794 H   0  0  0  0  0  0  0  0  0  0  0  0
   18.6381   17.4613   22.0350 C   0  0  0  0  0  0  0  0  0  0  0  0
   18.8401   17.1545   23.0699 H   0  0  0  0  0  0  0  0  0  0  0  0
   17.7973   16.8397   21.6989 H   0  0  0  0  0  0  0  0  0  0  0  0
   18.1963   18.9454   21.9987 C   0  0  0  0  0  0  0  0  0  0  0  0
   18.1753   19.3059   20.9611 H   0  0  0  0  0  0  0  0  0  0  0  0
   17.1589   18.9970   22.3563 H   0  0  0  0  0  0  0  0  0  0  0  0
   19.0438   19.9002   22.8769 C   0  0  0  0  0  0  0  0  0  0  0  0
   19.0739   19.5291   23.9105 H   0  0  0  0  0  0  0  0  0  0  0  0
   18.5366   20.8743   22.9149 H   0  0  0  0  0  0  0  0  0  0  0  0
   20.4895   20.1229   22.3636 C   0  0  0  0  0  0  0  0  0  0  0  0
   21.0750   19.2022   22.4509 H   0  0  0  0  0  0  0  0  0  0  0  0
   20.4772   20.4040   21.3038 H   0  0  0  0  0  0  0  0  0  0  0  0
   21.2281   21.2110   23.1345 C   0  0  0  0  0  0  0  0  0  0  0  0
   21.8416   20.8911   24.1336 O   0  5  0  0  0  0  0  0  0  0  0  0
   21.1535   22.3537   22.7277 O   0  0  0  0  0  0  0  0  0  0  0  0
  1  2  1  0  0  0  0
  1  3  1  0  0  0  0
  1  4  2  0  0  0  0
  4  5  1  0  0  0  0
  4  6  1  0  0  0  0
  6  7  1  0  0  0  0
  6  8  1  0  0  0  0
  6  9  1  0  0  0  0
  9 10  1  0  0  0  0
  9 11  1  0  0  0  0
  9 12  1  0  0  0  0
 12 13  1  0  0  0  0
 12 14  1  0  0  0  0
 12 15  1  0  0  0  0
 15 16  1  0  0  0  0
 15 17  1  0  0  0  0
 15 18  1  0  0  0  0
 18 19  1  0  0  0  0
 18 20  2  0  0  0  0
M  END
> <VConfSearch Rank>
559

> <Conf_Id>
51

> <Delta U+W>
1.709

> <U+W>
-50.036

> <U>
10.643

> <W>
-60.679

> <W(PB)>
-62.882

> <W(SA)>
2.203

> <Valence>
11.231

> <Coulomb>
-1.077

> <VdW>
0.489

> <VdW6>
-7.546

> <VdW12>
8.035

> <Bond>
0.159

> <Angle>
3.005

> <Pdih>
8.065

> <Idih>
0.002

> <Tether>
0.000

$$$$
VeraChem MOL file


 20 19  0  0  0  0  0  0  0  0999 V2000     
   18.6086   18.8247   19.3243 C   0  0  0  0  0  0  0  0  0  0  0  0
   19.0880   19.6426   18.7888 H   0  0  0  0  0  0  0  0  0  0  0  0
   17.5895   18.5677   19.0407 H   0  0  0  0  0  0  0  0  0  0  0  0
   19.2438   18.1621   20.2944 C   0  0  0  0  0  0  0  0  0  0  0  0
   18.7506   17.3406   20.8126 H   0  0  0  0  0  0  0  0  0  0  0  0
   20.6630   18.4570   20.7311 C   0  0  0  0  0  0  0  0  0  0  0  0
   21.2850   18.5776   19.8339 H   0  0  0  0  0  0  0  0  0  0  0  0
   21.0817   17.5968   21.2702 H   0  0  0  0  0  0  0  0  0  0  0  0
   20.7924   19.7372   21.5935 C   0  0  0  0  0  0  0  0  0  0  0  0
   21.8421   20.0597   21.5624 H   0  0  0  0  0  0  0  0  0  0  0  0
   20.2130   20.5543   21.1423 H   0  0  0  0  0  0  0  0  0  0  0  0
   20.3981   19.5639   23.0819 C   0  0  0  0  0  0  0  0  0  0  0  0
   20.6977   20.4707   23.6254 H   0  0  0  0  0  0  0  0  0  0  0  0
   20.9691   18.7369   23.5259 H   0  0  0  0  0  0  0  0  0  0  0  0
   18.8833   19.3328   23.3169 C   0  0  0  0  0  0  0  0  0  0  0  0
   18.2971   20.1011   22.7989 H   0  0  0  0  0  0  0  0  0  0  0  0
   18.5755   18.3616   22.9167 H   0  0  0  0  0  0  0  0  0  0  0  0
   18.5042   19.3616   24.7931 C   0  0  0  0  0  0  0  0  0  0  0  0
   18.5597   18.3223   25.4206 O   0  5  0  0  0  0  0  0  0  0  0  0
   18.1830   20.4266   25.2823 O   0  0  0  0  0  0  0  0  0  0  0  0
  1  2  1  0  0  0  0
  1  3  1  0  0  0  0
  1  4  2  0  0  0  0
  4  5  1  0  0  0  0
  4  6  1  0  0  0  0
  6  7  1  0  0  0  0
  6  8  1  0  0  0  0
  6  9  1  0  0  0  0
  9 10  1  0  0  0  0
  9 11  1  0  0  0  0
  9 12  1  0  0  0  0
 12 13  1  0  0  0  0
 12 14  1  0  0  0  0
 12 15  1  0  0  0  0
 15 16  1  0  0  0  0
 15 17  1  0  0  0  0
 15 18  1  0  0  0  0
 18 19  1  0  0  0  0
 18 20  2  0  0  0  0
M  END
> <VConfSearch Rank>
560

> <Conf_Id>
91

> <Delta U+W>
1.604

> <U+W>
-50.141

> <U>
10.644

> <W>
-60.786

> <W(PB)>
-62.965

> <W(SA)>
2.179

> <Valence>
11.230

> <Coulomb>
-1.075

> <VdW>
0.489

> <VdW6>
-7.547

> <VdW12>
8.036

> <Bond>
0.159

> <Angle>
3.006

> <Pdih>
8.064

> <Idih>
0.002

> <Tether>
0.000

$$$$
VeraChem MOL file


 20 19  0  0  0  0  0  0  0  0999 V2000     
   20.9016   22.1827   20.3428 C   0  0  0  0  0  0  0  0  0  0  0  0
   20.2431   21.9643   19.5036 H   0  0  0  0  0  0  0  0  0  0  0  0
   21.7060   22.8971   20.1757 H   0  0  0  0  0  0  0  0  0  0  0  0
   20.7343   21.5975   21.5316 C   0  0  0  0  0  0  0  0  0  0  0  0
   21.4050   21.8295   22.3585 H   0  0  0  0  0  0  0  0  0  0  0  0
   19.6412   20.5980   21.8380 C   0  0  0  0  0  0  0  0  0  0  0  0
   18.8731   20.6217   21.0530 H   0  0  0  0  0  0  0  0  0  0  0  0
   19.1424   20.8751   22.7764 H   0  0  0  0  0  0  0  0  0  0  0  0
   20.2105   19.1688   21.9569 C   0  0  0  0  0  0  0  0  0  0  0  0
   20.7119   18.8982   21.0174 H   0  0  0  0  0  0  0  0  0  0  0  0
   20.9754   19.1445   22.7453 H   0  0  0  0  0  0  0  0  0  0  0  0
   19.1074   18.1352   22.2728 C   0  0  0  0  0  0  0  0  0  0  0  0
   18.3422   18.1585   21.4844 H   0  0  0  0  0  0  0  0  0  0  0  0
   18.6047   18.4059   23.2117 H   0  0  0  0  0  0  0  0  0  0  0  0
   19.6802   16.6978   22.3916 C   0  0  0  0  0  0  0  0  0  0  0  0
   20.1778   16.4185   21.4554 H   0  0  0  0  0  0  0  0  0  0  0  0
   20.4402   16.6656   23.1811 H   0  0  0  0  0  0  0  0  0  0  0  0
   18.6520   15.6094   22.7037 C   0  0  0  0  0  0  0  0  0  0  0  0
   19.0634   14.4707   22.8056 O   0  5  0  0  0  0  0  0  0  0  0  0
   17.4806   15.9071   22.8376 O   0  0  0  0  0  0  0  0  0  0  0  0
  1  2  1  0  0  0  0
  1  3  1  0  0  0  0
  1  4  2  0  0  0  0
  4  5  1  0  0  0  0
  4  6  1  0  0  0  0
  6  7  1  0  0  0  0
  6  8  1  0  0  0  0
  6  9  1  0  0  0  0
  9 10  1  0  0  0  0
  9 11  1  0  0  0  0
  9 12  1  0  0  0  0
 12 13  1  0  0  0  0
 12 14  1  0  0  0  0
 12 15  1  0  0  0  0
 15 16  1  0  0  0  0
 15 17  1  0  0  0  0
 15 18  1  0  0  0  0
 18 19  1  0  0  0  0
 18 20  2  0  0  0  0
M  END
> <VConfSearch Rank>
561

> <Conf_Id>
33

> <Delta U+W>
0.000

> <U+W>
-51.745

> <U>
7.593

> <W>
-59.338

> <W(PB)>
-61.574

> <W(SA)>
2.236

> <Valence>
9.570

> <Coulomb>
-3.091

> <VdW>
1.114

> <VdW6>
-6.064

> <VdW12>
7.178

> <Bond>
0.117

> <Angle>
2.692

> <Pdih>
6.761

> <Idih>
0.000

> <Tether>
0.000

$$$$
VeraChem MOL file


 20 19  0  0  0  0  0  0  0  0999 V2000     
   22.2942   18.3889   19.4628 C   0  0  0  0  0  0  0  0  0  0  0  0
   22.8176   17.7697   20.1895 H   0  0  0  0  0  0  0  0  0  0  0  0
   22.8230   18.6391   18.5446 H   0  0  0  0  0  0  0  0  0  0  0  0
   21.0529   18.8284   19.6860 C   0  0  0  0  0  0  0  0  0  0  0  0
   20.5469   19.4479   18.9458 H   0  0  0  0  0  0  0  0  0  0  0  0
   20.2566   18.5217   20.9348 C   0  0  0  0  0  0  0  0  0  0  0  0
   20.7270   17.7009   21.4930 H   0  0  0  0  0  0  0  0  0  0  0  0
   19.2552   18.1772   20.6474 H   0  0  0  0  0  0  0  0  0  0  0  0
   20.1489   19.7667   21.8438 C   0  0  0  0  0  0  0  0  0  0  0  0
   21.1606   20.1434   22.0486 H   0  0  0  0  0  0  0  0  0  0  0  0
   19.6213   20.5692   21.3104 H   0  0  0  0  0  0  0  0  0  0  0  0
   19.4441   19.4870   23.1926 C   0  0  0  0  0  0  0  0  0  0  0  0
   19.5112   20.3878   23.8184 H   0  0  0  0  0  0  0  0  0  0  0  0
   19.9785   18.6936   23.7333 H   0  0  0  0  0  0  0  0  0  0  0  0
   17.9512   19.0957   23.0414 C   0  0  0  0  0  0  0  0  0  0  0  0
   17.4158   19.8603   22.4659 H   0  0  0  0  0  0  0  0  0  0  0  0
   17.8525   18.1497   22.4973 H   0  0  0  0  0  0  0  0  0  0  0  0
   17.2459   18.9339   24.3833 C   0  0  0  0  0  0  0  0  0  0  0  0
   17.2662   17.8410   24.9140 O   0  5  0  0  0  0  0  0  0  0  0  0
   16.7119   19.9100   24.8719 O   0  0  0  0  0  0  0  0  0  0  0  0
  1  2  1  0  0  0  0
  1  3  1  0  0  0  0
  1  4  2  0  0  0  0
  4  5  1  0  0  0  0
  4  6  1  0  0  0  0
  6  7  1  0  0  0  0
  6  8  1  0  0  0  0
  6  9  1  0  0  0  0
  9 10  1  0  0  0  0
  9 11  1  0  0  0  0
  9 12  1  0  0  0  0
 12 13  1  0  0  0  0
 12 14  1  0  0  0  0
 12 15  1  0  0  0  0
 15 16  1  0  0  0  0
 15 17  1  0  0  0  0
 15 18  1  0  0  0  0
 18 19  1  0  0  0  0
 18 20  2  0  0  0  0
M  END
> <VConfSearch Rank>
562

> <Conf_Id>
37

> <Delta U+W>
-0.384

> <U+W>
-52.130

> <U>
7.491

> <W>
-59.621

> <W(PB)>
-61.853

> <W(SA)>
2.232

> <Valence>
9.604

> <Coulomb>
-2.799

> <VdW>
0.686

> <VdW6>
-6.435

> <VdW12>
7.121

> <Bond>
0.124

> <Angle>
2.493

> <Pdih>
6.986

> <Idih>
0.001

> <Tether>
0.000

$$$$
VeraChem MOL file


 20 19  0  0  0  0  0  0  0  0999 V2000     
   18.3278   21.2055   19.8312 C   0  0  0  0  0  0  0  0  0  0  0  0
   17.8665   21.9304   19.1626 H   0  0  0  0  0  0  0  0  0  0  0  0
   17.8445   20.2341   19.9105 H   0  0  0  0  0  0  0  0  0  0  0  0
   19.4361   21.5144   20.5140 C   0  0  0  0  0  0  0  0  0  0  0  0
   19.8743   22.5048   20.3929 H   0  0  0  0  0  0  0  0  0  0  0  0
   20.1895   20.6139   21.4786 C   0  0  0  0  0  0  0  0  0  0  0  0
   20.2474   21.1130   22.4551 H   0  0  0  0  0  0  0  0  0  0  0  0
   21.2276   20.5174   21.1334 H   0  0  0  0  0  0  0  0  0  0  0  0
   19.5839   19.2031   21.6652 C   0  0  0  0  0  0  0  0  0  0  0  0
   18.5516   19.2922   22.0305 H   0  0  0  0  0  0  0  0  0  0  0  0
   19.5425   18.6901   20.6945 H   0  0  0  0  0  0  0  0  0  0  0  0
   20.4071   18.3538   22.6583 C   0  0  0  0  0  0  0  0  0  0  0  0
   20.4524   18.8617   23.6318 H   0  0  0  0  0  0  0  0  0  0  0  0
   21.4412   18.2609   22.2985 H   0  0  0  0  0  0  0  0  0  0  0  0
   19.8027   16.9406   22.8469 C   0  0  0  0  0  0  0  0  0  0  0  0
   18.7738   17.0151   23.2190 H   0  0  0  0  0  0  0  0  0  0  0  0
   19.7626   16.4144   21.8856 H   0  0  0  0  0  0  0  0  0  0  0  0
   20.5984   16.0821   23.8237 C   0  0  0  0  0  0  0  0  0  0  0  0
   20.3043   16.1314   25.0017 O   0  5  0  0  0  0  0  0  0  0  0  0
   21.5040   15.4020   23.3834 O   0  0  0  0  0  0  0  0  0  0  0  0
  1  2  1  0  0  0  0
  1  3  1  0  0  0  0
  1  4  2  0  0  0  0
  4  5  1  0  0  0  0
  4  6  1  0  0  0  0
  6  7  1  0  0  0  0
  6  8  1  0  0  0  0
  6  9  1  0  0  0  0
  9 10  1  0  0  0  0
  9 11  1  0  0  0  0
  9 12  1  0  0  0  0
 12 13  1  0  0  0  0
 12 14  1  0  0  0  0
 12 15  1  0  0  0  0
 15 16  1  0  0  0  0
 15 17  1  0  0  0  0
 15 18  1  0  0  0  0
 18 19  1  0  0  0  0
 18 20  2  0  0  0  0
M  END
> <VConfSearch Rank>
563

> <Conf_Id>
44

> <Delta U+W>
-1.440

> <U+W>
-53.185

> <U>
6.572

> <W>
-59.757

> <W(PB)>
-62.007

> <W(SA)>
2.249

> <Valence>
7.989

> <Coulomb>
-2.697

> <VdW>
1.281

> <VdW6>
-6.467

> <VdW12>
7.748

> <Bond>
0.136

> <Angle>
2.854

> <Pdih>
4.997

> <Idih>
0.001

> <Tether>
0.000

$$$$
VeraChem MOL file


 20 19  0  0  0  0  0  0  0  0999 V2000     
   16.7595   19.3596   20.2950 C   0  0  0  0  0  0  0  0  0  0  0  0
   17.3797   19.9420   19.6156 H   0  0  0  0  0  0  0  0  0  0  0  0
   15.6798   19.4413   20.1823 H   0  0  0  0  0  0  0  0  0  0  0  0
   17.2980   18.5763   21.2332 C   0  0  0  0  0  0  0  0  0  0  0  0
   16.6592   18.0018   21.9037 H   0  0  0  0  0  0  0  0  0  0  0  0
   18.7861   18.4114   21.4484 C   0  0  0  0  0  0  0  0  0  0  0  0
   19.3334   18.7969   20.5787 H   0  0  0  0  0  0  0  0  0  0  0  0
   19.0289   17.3434   21.5284 H   0  0  0  0  0  0  0  0  0  0  0  0
   19.2464   19.1449   22.7283 C   0  0  0  0  0  0  0  0  0  0  0  0
   19.0529   20.2215   22.6248 H   0  0  0  0  0  0  0  0  0  0  0  0
   18.6362   18.8004   23.5745 H   0  0  0  0  0  0  0  0  0  0  0  0
   20.7378   18.9140   23.0700 C   0  0  0  0  0  0  0  0  0  0  0  0
   20.9308   17.8382   23.1834 H   0  0  0  0  0  0  0  0  0  0  0  0
   20.9502   19.3716   24.0463 H   0  0  0  0  0  0  0  0  0  0  0  0
   21.7127   19.5073   22.0199 C   0  0  0  0  0  0  0  0  0  0  0  0
   21.5904   19.0073   21.0526 H   0  0  0  0  0  0  0  0  0  0  0  0
   21.5006   20.5720   21.8656 H   0  0  0  0  0  0  0  0  0  0  0  0
   23.1746   19.3710   22.4301 C   0  0  0  0  0  0  0  0  0  0  0  0
   23.6751   20.2699   23.0767 O   0  5  0  0  0  0  0  0  0  0  0  0
   23.7687   18.3606   22.1095 O   0  0  0  0  0  0  0  0  0  0  0  0
  1  2  1  0  0  0  0
  1  3  1  0  0  0  0
  1  4  2  0  0  0  0
  4  5  1  0  0  0  0
  4  6  1  0  0  0  0
  6  7  1  0  0  0  0
  6  8  1  0  0  0  0
  6  9  1  0  0  0  0
  9 10  1  0  0  0  0
  9 11  1  0  0  0  0
  9 12  1  0  0  0  0
 12 13  1  0  0  0  0
 12 14  1  0  0  0  0
 12 15  1  0  0  0  0
 15 16  1  0  0  0  0
 15 17  1  0  0  0  0
 15 18  1  0  0  0  0
 18 19  1  0  0  0  0
 18 20  2  0  0  0  0
M  END
> <VConfSearch Rank>
564

> <Conf_Id>
38

> <Delta U+W>
-0.381

> <U+W>
-52.126

> <U>
7.601

> <W>
-59.727

> <W(PB)>
-61.964

> <W(SA)>
2.236

> <Valence>
9.602

> <Coulomb>
-2.686

> <VdW>
0.685

> <VdW6>
-6.453

> <VdW12>
7.139

> <Bond>
0.125

> <Angle>
2.485

> <Pdih>
6.991

> <Idih>
0.001

> <Tether>
0.000

$$$$
VeraChem MOL file


 20 19  0  0  0  0  0  0  0  0999 V2000     
   20.2604   16.2828   23.9639 C   0  0  0  0  0  0  0  0  0  0  0  0
   20.6703   16.8399   24.8049 H   0  0  0  0  0  0  0  0  0  0  0  0
   19.8655   15.2887   24.1664 H   0  0  0  0  0  0  0  0  0  0  0  0
   20.2386   16.7961   22.7312 C   0  0  0  0  0  0  0  0  0  0  0  0
   19.8228   16.2222   21.9032 H   0  0  0  0  0  0  0  0  0  0  0  0
   20.7684   18.1671   22.3741 C   0  0  0  0  0  0  0  0  0  0  0  0
   21.4197   18.0912   21.4932 H   0  0  0  0  0  0  0  0  0  0  0  0
   21.3873   18.5604   23.1921 H   0  0  0  0  0  0  0  0  0  0  0  0
   19.6161   19.1509   22.0819 C   0  0  0  0  0  0  0  0  0  0  0  0
   19.0001   18.7563   21.2620 H   0  0  0  0  0  0  0  0  0  0  0  0
   18.9642   19.2204   22.9636 H   0  0  0  0  0  0  0  0  0  0  0  0
   20.1406   20.5568   21.7122 C   0  0  0  0  0  0  0  0  0  0  0  0
   20.7847   20.4923   20.8242 H   0  0  0  0  0  0  0  0  0  0  0  0
   20.7675   20.9362   22.5306 H   0  0  0  0  0  0  0  0  0  0  0  0
   18.9963   21.5686   21.4443 C   0  0  0  0  0  0  0  0  0  0  0  0
   18.3280   21.6234   22.3122 H   0  0  0  0  0  0  0  0  0  0  0  0
   19.4185   22.5708   21.3048 H   0  0  0  0  0  0  0  0  0  0  0  0
   18.1626   21.2484   20.2069 C   0  0  0  0  0  0  0  0  0  0  0  0
   17.0523   20.7804   20.3657 O   0  5  0  0  0  0  0  0  0  0  0  0
   18.6427   21.4865   19.1160 O   0  0  0  0  0  0  0  0  0  0  0  0
  1  2  1  0  0  0  0
  1  3  1  0  0  0  0
  1  4  2  0  0  0  0
  4  5  1  0  0  0  0
  4  6  1  0  0  0  0
  6  7  1  0  0  0  0
  6  8  1  0  0  0  0
  6  9  1  0  0  0  0
  9 10  1  0  0  0  0
  9 11  1  0  0  0  0
  9 12  1  0  0  0  0
 12 13  1  0  0  0  0
 12 14  1  0  0  0  0
 12 15  1  0  0  0  0
 15 16  1  0  0  0  0
 15 17  1  0  0  0  0
 15 18  1  0  0  0  0
 18 19  1  0  0  0  0
 18 20  2  0  0  0  0
M  END
> <VConfSearch Rank>
565

> <Conf_Id>
58

> <Delta U+W>
0.019

> <U+W>
-51.727

> <U>
8.963

> <W>
-60.690

> <W(PB)>
-62.934

> <W(SA)>
2.244

> <Valence>
9.327

> <Coulomb>
-0.780

> <VdW>
0.417

> <VdW6>
-6.635

> <VdW12>
7.052

> <Bond>
0.105

> <Angle>
2.399

> <Pdih>
6.822

> <Idih>
0.000

> <Tether>
0.000

$$$$
VeraChem MOL file


 20 19  0  0  0  0  0  0  0  0999 V2000     
   20.5318   17.6876   25.1562 C   0  0  0  0  0  0  0  0  0  0  0  0
   19.6287   18.0633   25.6347 H   0  0  0  0  0  0  0  0  0  0  0  0
   21.3592   17.4008   25.8030 H   0  0  0  0  0  0  0  0  0  0  0  0
   20.6260   17.5837   23.8281 C   0  0  0  0  0  0  0  0  0  0  0  0
   21.5394   17.2061   23.3689 H   0  0  0  0  0  0  0  0  0  0  0  0
   19.5204   17.9613   22.8675 C   0  0  0  0  0  0  0  0  0  0  0  0
   18.5717   18.0815   23.4081 H   0  0  0  0  0  0  0  0  0  0  0  0
   19.3706   17.1500   22.1426 H   0  0  0  0  0  0  0  0  0  0  0  0
   19.8551   19.2683   22.1188 C   0  0  0  0  0  0  0  0  0  0  0  0
   20.0089   20.0763   22.8474 H   0  0  0  0  0  0  0  0  0  0  0  0
   20.8031   19.1446   21.5771 H   0  0  0  0  0  0  0  0  0  0  0  0
   18.7361   19.6671   21.1303 C   0  0  0  0  0  0  0  0  0  0  0  0
   17.7899   19.7731   21.6779 H   0  0  0  0  0  0  0  0  0  0  0  0
   18.5870   18.8655   20.3935 H   0  0  0  0  0  0  0  0  0  0  0  0
   19.0402   20.9952   20.3896 C   0  0  0  0  0  0  0  0  0  0  0  0
   18.1682   21.2911   19.7946 H   0  0  0  0  0  0  0  0  0  0  0  0
   19.2191   21.8001   21.1129 H   0  0  0  0  0  0  0  0  0  0  0  0
   20.2339   20.9175   19.4421 C   0  0  0  0  0  0  0  0  0  0  0  0
   20.0849   20.3468   18.3795 O   0  5  0  0  0  0  0  0  0  0  0  0
   21.2769   21.4383   19.7857 O   0  0  0  0  0  0  0  0  0  0  0  0
  1  2  1  0  0  0  0
  1  3  1  0  0  0  0
  1  4  2  0  0  0  0
  4  5  1  0  0  0  0
  4  6  1  0  0  0  0
  6  7  1  0  0  0  0
  6  8  1  0  0  0  0
  6  9  1  0  0  0  0
  9 10  1  0  0  0  0
  9 11  1  0  0  0  0
  9 12  1  0  0  0  0
 12 13  1  0  0  0  0
 12 14  1  0  0  0  0
 12 15  1  0  0  0  0
 15 16  1  0  0  0  0
 15 17  1  0  0  0  0
 15 18  1  0  0  0  0
 18 19  1  0  0  0  0
 18 20  2  0  0  0  0
M  END
> <VConfSearch Rank>
566

> <Conf_Id>
54

> <Delta U+W>
-0.048

> <U+W>
-51.793

> <U>
8.964

> <W>
-60.756

> <W(PB)>
-63.007

> <W(SA)>
2.251

> <Valence>
9.327

> <Coulomb>
-0.780

> <VdW>
0.417

> <VdW6>
-6.635

> <VdW12>
7.052

> <Bond>
0.105

> <Angle>
2.399

> <Pdih>
6.822

> <Idih>
0.000

> <Tether>
0.000

$$$$
VeraChem MOL file


 20 19  0  0  0  0  0  0  0  0999 V2000     
   21.0081   20.2711   24.9137 C   0  0  0  0  0  0  0  0  0  0  0  0
   21.6110   21.1401   25.1719 H   0  0  0  0  0  0  0  0  0  0  0  0
   20.2266   19.9777   25.6128 H   0  0  0  0  0  0  0  0  0  0  0  0
   21.2202   19.5957   23.7812 C   0  0  0  0  0  0  0  0  0  0  0  0
   22.0101   19.9044   23.0971 H   0  0  0  0  0  0  0  0  0  0  0  0
   20.4277   18.3764   23.3607 C   0  0  0  0  0  0  0  0  0  0  0  0
   19.9333   17.9361   24.2372 H   0  0  0  0  0  0  0  0  0  0  0  0
   21.1056   17.6052   22.9710 H   0  0  0  0  0  0  0  0  0  0  0  0
   19.3525   18.7088   22.3016 C   0  0  0  0  0  0  0  0  0  0  0  0
   18.7276   17.8191   22.1442 H   0  0  0  0  0  0  0  0  0  0  0  0
   18.6879   19.4931   22.6893 H   0  0  0  0  0  0  0  0  0  0  0  0
   19.9577   19.1559   20.9495 C   0  0  0  0  0  0  0  0  0  0  0  0
   20.6338   18.3779   20.5686 H   0  0  0  0  0  0  0  0  0  0  0  0
   20.5658   20.0575   21.1003 H   0  0  0  0  0  0  0  0  0  0  0  0
   18.8733   19.4610   19.8835 C   0  0  0  0  0  0  0  0  0  0  0  0
   18.1702   20.2123   20.2629 H   0  0  0  0  0  0  0  0  0  0  0  0
   19.3463   19.8901   18.9924 H   0  0  0  0  0  0  0  0  0  0  0  0
   18.0821   18.2358   19.4344 C   0  0  0  0  0  0  0  0  0  0  0  0
   16.9471   18.1000   19.8472 O   0  5  0  0  0  0  0  0  0  0  0  0
   18.6193   17.4547   18.6739 O   0  0  0  0  0  0  0  0  0  0  0  0
  1  2  1  0  0  0  0
  1  3  1  0  0  0  0
  1  4  2  0  0  0  0
  4  5  1  0  0  0  0
  4  6  1  0  0  0  0
  6  7  1  0  0  0  0
  6  8  1  0  0  0  0
  6  9  1  0  0  0  0
  9 10  1  0  0  0  0
  9 11  1  0  0  0  0
  9 12  1  0  0  0  0
 12 13  1  0  0  0  0
 12 14  1  0  0  0  0
 12 15  1  0  0  0  0
 15 16  1  0  0  0  0
 15 17  1  0  0  0  0
 15 18  1  0  0  0  0
 18 19  1  0  0  0  0
 18 20  2  0  0  0  0
M  END
> <VConfSearch Rank>
567

> <Conf_Id>
27

> <Delta U+W>
0.478

> <U+W>
-51.267

> <U>
9.192

> <W>
-60.459

> <W(PB)>
-62.649

> <W(SA)>
2.190

> <Valence>
9.572

> <Coulomb>
-0.884

> <VdW>
0.504

> <VdW6>
-7.168

> <VdW12>
7.672

> <Bond>
0.127

> <Angle>
2.504

> <Pdih>
6.941

> <Idih>
0.001

> <Tether>
0.000

$$$$
VeraChem MOL file


 20 19  0  0  0  0  0  0  0  0999 V2000     
   21.6521   20.4368   24.0966 C   0  0  0  0  0  0  0  0  0  0  0  0
   21.0189   20.7494   24.9254 H   0  0  0  0  0  0  0  0  0  0  0  0
   22.5209   21.0524   23.8699 H   0  0  0  0  0  0  0  0  0  0  0  0
   21.3753   19.3434   23.3813 C   0  0  0  0  0  0  0  0  0  0  0  0
   22.0242   19.0468   22.5577 H   0  0  0  0  0  0  0  0  0  0  0  0
   20.1908   18.4375   23.6421 C   0  0  0  0  0  0  0  0  0  0  0  0
   19.8212   18.5963   24.6642 H   0  0  0  0  0  0  0  0  0  0  0  0
   20.5048   17.3864   23.5888 H   0  0  0  0  0  0  0  0  0  0  0  0
   19.0308   18.6862   22.6518 C   0  0  0  0  0  0  0  0  0  0  0  0
   18.1599   18.0984   22.9726 H   0  0  0  0  0  0  0  0  0  0  0  0
   18.7318   19.7425   22.6983 H   0  0  0  0  0  0  0  0  0  0  0  0
   19.3908   18.3071   21.1969 C   0  0  0  0  0  0  0  0  0  0  0  0
   19.7144   17.2579   21.1565 H   0  0  0  0  0  0  0  0  0  0  0  0
   20.2364   18.9158   20.8490 H   0  0  0  0  0  0  0  0  0  0  0  0
   18.1931   18.5103   20.2364 C   0  0  0  0  0  0  0  0  0  0  0  0
   17.3420   17.8976   20.5568 H   0  0  0  0  0  0  0  0  0  0  0  0
   17.8655   19.5566   20.2563 H   0  0  0  0  0  0  0  0  0  0  0  0
   18.5230   18.1444   18.7938 C   0  0  0  0  0  0  0  0  0  0  0  0
   18.9648   19.0133   18.0681 O   0  5  0  0  0  0  0  0  0  0  0  0
   18.3461   16.9958   18.4386 O   0  0  0  0  0  0  0  0  0  0  0  0
  1  2  1  0  0  0  0
  1  3  1  0  0  0  0
  1  4  2  0  0  0  0
  4  5  1  0  0  0  0
  4  6  1  0  0  0  0
  6  7  1  0  0  0  0
  6  8  1  0  0  0  0
  6  9  1  0  0  0  0
  9 10  1  0  0  0  0
  9 11  1  0  0  0  0
  9 12  1  0  0  0  0
 12 13  1  0  0  0  0
 12 14  1  0  0  0  0
 12 15  1  0  0  0  0
 15 16  1  0  0  0  0
 15 17  1  0  0  0  0
 15 18  1  0  0  0  0
 18 19  1  0  0  0  0
 18 20  2  0  0  0  0
M  END
> <VConfSearch Rank>
568

> <Conf_Id>
41

> <Delta U+W>
-0.634

> <U+W>
-52.379

> <U>
7.828

> <W>
-60.207

> <W(PB)>
-62.449

> <W(SA)>
2.242

> <Valence>
9.300

> <Coulomb>
-2.080

> <VdW>
0.608

> <VdW6>
-6.341

> <VdW12>
6.949

> <Bond>
0.103

> <Angle>
2.334

> <Pdih>
6.862

> <Idih>
0.001

> <Tether>
0.000

$$$$
VeraChem MOL file


 20 19  0  0  0  0  0  0  0  0999 V2000     
   21.0663   18.1640   18.9149 C   0  0  0  0  0  0  0  0  0  0  0  0
   20.9059   17.5867   18.0059 H   0  0  0  0  0  0  0  0  0  0  0  0
   21.6912   19.0526   18.8403 H   0  0  0  0  0  0  0  0  0  0  0  0
   20.5145   17.7944   20.0736 C   0  0  0  0  0  0  0  0  0  0  0  0
   19.8916   16.9018   20.1271 H   0  0  0  0  0  0  0  0  0  0  0  0
   20.6928   18.5440   21.3751 C   0  0  0  0  0  0  0  0  0  0  0  0
   21.5221   19.2593   21.2915 H   0  0  0  0  0  0  0  0  0  0  0  0
   20.9636   17.8322   22.1657 H   0  0  0  0  0  0  0  0  0  0  0  0
   19.4001   19.2954   21.7641 C   0  0  0  0  0  0  0  0  0  0  0  0
   19.0902   19.9278   20.9207 H   0  0  0  0  0  0  0  0  0  0  0  0
   18.5882   18.5722   21.9218 H   0  0  0  0  0  0  0  0  0  0  0  0
   19.5578   20.1897   23.0186 C   0  0  0  0  0  0  0  0  0  0  0  0
   18.6222   20.7434   23.1780 H   0  0  0  0  0  0  0  0  0  0  0  0
   20.3332   20.9443   22.8297 H   0  0  0  0  0  0  0  0  0  0  0  0
   19.9067   19.4158   24.3193 C   0  0  0  0  0  0  0  0  0  0  0  0
   20.8743   18.9106   24.2216 H   0  0  0  0  0  0  0  0  0  0  0  0
   20.0103   20.1264   25.1475 H   0  0  0  0  0  0  0  0  0  0  0  0
   18.8579   18.3872   24.7325 C   0  0  0  0  0  0  0  0  0  0  0  0
   17.8017   18.7933   25.1762 O   0  5  0  0  0  0  0  0  0  0  0  0
   19.1303   17.2085   24.6172 O   0  0  0  0  0  0  0  0  0  0  0  0
  1  2  1  0  0  0  0
  1  3  1  0  0  0  0
  1  4  2  0  0  0  0
  4  5  1  0  0  0  0
  4  6  1  0  0  0  0
  6  7  1  0  0  0  0
  6  8  1  0  0  0  0
  6  9  1  0  0  0  0
  9 10  1  0  0  0  0
  9 11  1  0  0  0  0
  9 12  1  0  0  0  0
 12 13  1  0  0  0  0
 12 14  1  0  0  0  0
 12 15  1  0  0  0  0
 15 16  1  0  0  0  0
 15 17  1  0  0  0  0
 15 18  1  0  0  0  0
 18 19  1  0  0  0  0
 18 20  2  0  0  0  0
M  END
> <VConfSearch Rank>
569

> <Conf_Id>
84

> <Delta U+W>
0.942

> <U+W>
-50.803

> <U>
10.196

> <W>
-60.999

> <W(PB)>
-63.182

> <W(SA)>
2.182

> <Valence>
9.837

> <Coulomb>
0.032

> <VdW>
0.328

> <VdW6>
-7.642

> <VdW12>
7.969

> <Bond>
0.151

> <Angle>
2.748

> <Pdih>
6.937

> <Idih>
0.001

> <Tether>
0.000

$$$$
VeraChem MOL file


 20 19  0  0  0  0  0  0  0  0999 V2000     
   22.0239   20.5023   19.8907 C   0  0  0  0  0  0  0  0  0  0  0  0
   23.0305   20.9050   19.7911 H   0  0  0  0  0  0  0  0  0  0  0  0
   21.7167   19.7392   19.1773 H   0  0  0  0  0  0  0  0  0  0  0  0
   21.2022   20.9286   20.8534 C   0  0  0  0  0  0  0  0  0  0  0  0
   21.5296   21.6927   21.5581 H   0  0  0  0  0  0  0  0  0  0  0  0
   19.7927   20.4174   21.0528 C   0  0  0  0  0  0  0  0  0  0  0  0
   19.4621   19.8582   20.1670 H   0  0  0  0  0  0  0  0  0  0  0  0
   19.1063   21.2674   21.1645 H   0  0  0  0  0  0  0  0  0  0  0  0
   19.6999   19.5097   22.2972 C   0  0  0  0  0  0  0  0  0  0  0  0
   20.3937   18.6653   22.1815 H   0  0  0  0  0  0  0  0  0  0  0  0
   20.0266   20.0696   23.1842 H   0  0  0  0  0  0  0  0  0  0  0  0
   18.2644   18.9814   22.5172 C   0  0  0  0  0  0  0  0  0  0  0  0
   17.9396   18.4087   21.6373 H   0  0  0  0  0  0  0  0  0  0  0  0
   17.5759   19.8320   22.6125 H   0  0  0  0  0  0  0  0  0  0  0  0
   18.1433   18.0921   23.7819 C   0  0  0  0  0  0  0  0  0  0  0  0
   18.4898   18.6412   24.6658 H   0  0  0  0  0  0  0  0  0  0  0  0
   17.0898   17.8432   23.9554 H   0  0  0  0  0  0  0  0  0  0  0  0
   18.9137   16.7778   23.6919 C   0  0  0  0  0  0  0  0  0  0  0  0
   19.9500   16.6737   24.3183 O   0  5  0  0  0  0  0  0  0  0  0  0
   18.4490   15.8878   23.0072 O   0  0  0  0  0  0  0  0  0  0  0  0
  1  2  1  0  0  0  0
  1  3  1  0  0  0  0
  1  4  2  0  0  0  0
  4  5  1  0  0  0  0
  4  6  1  0  0  0  0
  6  7  1  0  0  0  0
  6  8  1  0  0  0  0
  6  9  1  0  0  0  0
  9 10  1  0  0  0  0
  9 11  1  0  0  0  0
  9 12  1  0  0  0  0
 12 13  1  0  0  0  0
 12 14  1  0  0  0  0
 12 15  1  0  0  0  0
 15 16  1  0  0  0  0
 15 17  1  0  0  0  0
 15 18  1  0  0  0  0
 18 19  1  0  0  0  0
 18 20  2  0  0  0  0
M  END
> <VConfSearch Rank>
570

> <Conf_Id>
81

> <Delta U+W>
-0.051

> <U+W>
-51.796

> <U>
9.412

> <W>
-61.209

> <W(PB)>
-63.452

> <W(SA)>
2.243

> <Valence>
9.329

> <Coulomb>
-0.323

> <VdW>
0.406

> <VdW6>
-6.640

> <VdW12>
7.046

> <Bond>
0.105

> <Angle>
2.401

> <Pdih>
6.823

> <Idih>
0.000

> <Tether>
0.000

$$$$
VeraChem MOL file


 20 19  0  0  0  0  0  0  0  0999 V2000     
   21.8872   18.5705   19.7495 C   0  0  0  0  0  0  0  0  0  0  0  0
   22.4445   17.6796   20.0342 H   0  0  0  0  0  0  0  0  0  0  0  0
   21.9883   18.9183   18.7229 H   0  0  0  0  0  0  0  0  0  0  0  0
   21.1064   19.2131   20.6220 C   0  0  0  0  0  0  0  0  0  0  0  0
   20.5589   20.1045   20.3174 H   0  0  0  0  0  0  0  0  0  0  0  0
   20.9211   18.7924   22.0643 C   0  0  0  0  0  0  0  0  0  0  0  0
   20.9833   19.6683   22.7231 H   0  0  0  0  0  0  0  0  0  0  0  0
   21.7453   18.1322   22.3662 H   0  0  0  0  0  0  0  0  0  0  0  0
   19.5850   18.0468   22.2957 C   0  0  0  0  0  0  0  0  0  0  0  0
   19.5830   17.1292   21.6917 H   0  0  0  0  0  0  0  0  0  0  0  0
   19.5361   17.7210   23.3438 H   0  0  0  0  0  0  0  0  0  0  0  0
   18.3159   18.8705   21.9568 C   0  0  0  0  0  0  0  0  0  0  0  0
   17.4317   18.2416   22.1300 H   0  0  0  0  0  0  0  0  0  0  0  0
   18.3111   19.1120   20.8856 H   0  0  0  0  0  0  0  0  0  0  0  0
   18.1626   20.1812   22.7757 C   0  0  0  0  0  0  0  0  0  0  0  0
   18.9926   20.8659   22.5676 H   0  0  0  0  0  0  0  0  0  0  0  0
   17.2479   20.6989   22.4642 H   0  0  0  0  0  0  0  0  0  0  0  0
   18.0721   19.9664   24.2838 C   0  0  0  0  0  0  0  0  0  0  0  0
   19.0193   20.2952   24.9706 O   0  5  0  0  0  0  0  0  0  0  0  0
   17.0479   19.4912   24.7338 O   0  0  0  0  0  0  0  0  0  0  0  0
  1  2  1  0  0  0  0
  1  3  1  0  0  0  0
  1  4  2  0  0  0  0
  4  5  1  0  0  0  0
  4  6  1  0  0  0  0
  6  7  1  0  0  0  0
  6  8  1  0  0  0  0
  6  9  1  0  0  0  0
  9 10  1  0  0  0  0
  9 11  1  0  0  0  0
  9 12  1  0  0  0  0
 12 13  1  0  0  0  0
 12 14  1  0  0  0  0
 12 15  1  0  0  0  0
 15 16  1  0  0  0  0
 15 17  1  0  0  0  0
 15 18  1  0  0  0  0
 18 19  1  0  0  0  0
 18 20  2  0  0  0  0
M  END
> <VConfSearch Rank>
571

> <Conf_Id>
86

> <Delta U+W>
1.248

> <U+W>
-50.498

> <U>
10.404

> <W>
-60.901

> <W(PB)>
-63.061

> <W(SA)>
2.159

> <Valence>
10.021

> <Coulomb>
0.094

> <VdW>
0.289

> <VdW6>
-8.409

> <VdW12>
8.698

> <Bond>
0.179

> <Angle>
2.939

> <Pdih>
6.902

> <Idih>
0.001

> <Tether>
0.000

$$$$
VeraChem MOL file


 20 19  0  0  0  0  0  0  0  0999 V2000     
   22.8780   19.1026   21.4246 C   0  0  0  0  0  0  0  0  0  0  0  0
   23.5999   18.5562   20.8202 H   0  0  0  0  0  0  0  0  0  0  0  0
   22.7981   20.1762   21.2615 H   0  0  0  0  0  0  0  0  0  0  0  0
   22.1191   18.4763   22.3278 C   0  0  0  0  0  0  0  0  0  0  0  0
   22.2131   17.4006   22.4741 H   0  0  0  0  0  0  0  0  0  0  0  0
   21.0953   19.1674   23.2031 C   0  0  0  0  0  0  0  0  0  0  0  0
   21.2056   20.2585   23.1399 H   0  0  0  0  0  0  0  0  0  0  0  0
   21.2797   18.8979   24.2516 H   0  0  0  0  0  0  0  0  0  0  0  0
   19.6471   18.7735   22.8350 C   0  0  0  0  0  0  0  0  0  0  0  0
   19.5370   17.6820   22.8942 H   0  0  0  0  0  0  0  0  0  0  0  0
   18.9651   19.1977   23.5845 H   0  0  0  0  0  0  0  0  0  0  0  0
   19.2338   19.2662   21.4279 C   0  0  0  0  0  0  0  0  0  0  0  0
   19.9106   18.8374   20.6769 H   0  0  0  0  0  0  0  0  0  0  0  0
   19.3477   20.3575   21.3678 H   0  0  0  0  0  0  0  0  0  0  0  0
   17.7763   18.8802   21.0649 C   0  0  0  0  0  0  0  0  0  0  0  0
   17.5775   19.1432   20.0193 H   0  0  0  0  0  0  0  0  0  0  0  0
   17.6393   17.7955   21.1511 H   0  0  0  0  0  0  0  0  0  0  0  0
   16.7193   19.5745   21.9189 C   0  0  0  0  0  0  0  0  0  0  0  0
   16.4700   20.7408   21.6851 O   0  5  0  0  0  0  0  0  0  0  0  0
   16.1652   18.9291   22.7869 O   0  0  0  0  0  0  0  0  0  0  0  0
  1  2  1  0  0  0  0
  1  3  1  0  0  0  0
  1  4  2  0  0  0  0
  4  5  1  0  0  0  0
  4  6  1  0  0  0  0
  6  7  1  0  0  0  0
  6  8  1  0  0  0  0
  6  9  1  0  0  0  0
  9 10  1  0  0  0  0
  9 11  1  0  0  0  0
  9 12  1  0  0  0  0
 12 13  1  0  0  0  0
 12 14  1  0  0  0  0
 12 15  1  0  0  0  0
 15 16  1  0  0  0  0
 15 17  1  0  0  0  0
 15 18  1  0  0  0  0
 18 19  1  0  0  0  0
 18 20  2  0  0  0  0
M  END
> <VConfSearch Rank>
572

> <Conf_Id>
28

> <Delta U+W>
0.446

> <U+W>
-51.299

> <U>
9.295

> <W>
-60.594

> <W(PB)>
-62.806

> <W(SA)>
2.212

> <Valence>
9.495

> <Coulomb>
-0.610

> <VdW>
0.409

> <VdW6>
-7.332

> <VdW12>
7.741

> <Bond>
0.126

> <Angle>
2.497

> <Pdih>
6.872

> <Idih>
0.000

> <Tether>
0.000

$$$$
VeraChem MOL file


 20 19  0  0  0  0  0  0  0  0999 V2000     
   22.6633   18.1046   21.5563 C   0  0  0  0  0  0  0  0  0  0  0  0
   22.0635   17.2947   21.9661 H   0  0  0  0  0  0  0  0  0  0  0  0
   23.6442   17.8401   21.1652 H   0  0  0  0  0  0  0  0  0  0  0  0
   22.2326   19.3708   21.5218 C   0  0  0  0  0  0  0  0  0  0  0  0
   22.8784   20.1385   21.0963 H   0  0  0  0  0  0  0  0  0  0  0  0
   20.8972   19.8909   22.0273 C   0  0  0  0  0  0  0  0  0  0  0  0
   20.3481   20.3177   21.1782 H   0  0  0  0  0  0  0  0  0  0  0  0
   21.0834   20.7269   22.7144 H   0  0  0  0  0  0  0  0  0  0  0  0
   20.0146   18.8383   22.7426 C   0  0  0  0  0  0  0  0  0  0  0  0
   19.7478   18.0394   22.0370 H   0  0  0  0  0  0  0  0  0  0  0  0
   20.5989   18.3672   23.5448 H   0  0  0  0  0  0  0  0  0  0  0  0
   18.7277   19.4328   23.3666 C   0  0  0  0  0  0  0  0  0  0  0  0
   19.0035   20.1954   24.1073 H   0  0  0  0  0  0  0  0  0  0  0  0
   18.2060   18.6406   23.9213 H   0  0  0  0  0  0  0  0  0  0  0  0
   17.7409   20.0535   22.3401 C   0  0  0  0  0  0  0  0  0  0  0  0
   16.8708   20.4561   22.8716 H   0  0  0  0  0  0  0  0  0  0  0  0
   18.2043   20.8993   21.8197 H   0  0  0  0  0  0  0  0  0  0  0  0
   17.2190   19.0658   21.3004 C   0  0  0  0  0  0  0  0  0  0  0  0
   16.4406   18.2070   21.6665 O   0  5  0  0  0  0  0  0  0  0  0  0
   17.5870   19.1933   20.1493 O   0  0  0  0  0  0  0  0  0  0  0  0
  1  2  1  0  0  0  0
  1  3  1  0  0  0  0
  1  4  2  0  0  0  0
  4  5  1  0  0  0  0
  4  6  1  0  0  0  0
  6  7  1  0  0  0  0
  6  8  1  0  0  0  0
  6  9  1  0  0  0  0
  9 10  1  0  0  0  0
  9 11  1  0  0  0  0
  9 12  1  0  0  0  0
 12 13  1  0  0  0  0
 12 14  1  0  0  0  0
 12 15  1  0  0  0  0
 15 16  1  0  0  0  0
 15 17  1  0  0  0  0
 15 18  1  0  0  0  0
 18 19  1  0  0  0  0
 18 20  2  0  0  0  0
M  END
> <VConfSearch Rank>
573

> <Conf_Id>
53

> <Delta U+W>
0.549

> <U+W>
-51.197

> <U>
10.870

> <W>
-62.067

> <W(PB)>
-64.228

> <W(SA)>
2.161

> <Valence>
8.803

> <Coulomb>
1.020

> <VdW>
1.048

> <VdW6>
-8.312

> <VdW12>
9.360

> <Bond>
0.212

> <Angle>
3.379

> <Pdih>
5.211

> <Idih>
0.001

> <Tether>
0.000

$$$$
VeraChem MOL file


 20 19  0  0  0  0  0  0  0  0999 V2000     
   20.6077   17.7444   24.4596 C   0  0  0  0  0  0  0  0  0  0  0  0
   21.0832   17.0800   23.7414 H   0  0  0  0  0  0  0  0  0  0  0  0
   20.3701   17.3273   25.4366 H   0  0  0  0  0  0  0  0  0  0  0  0
   20.3273   19.0201   24.1723 C   0  0  0  0  0  0  0  0  0  0  0  0
   19.8528   19.6440   24.9292 H   0  0  0  0  0  0  0  0  0  0  0  0
   20.5968   19.7282   22.8548 C   0  0  0  0  0  0  0  0  0  0  0  0
   21.5249   20.3069   22.9498 H   0  0  0  0  0  0  0  0  0  0  0  0
   19.8151   20.4801   22.6871 H   0  0  0  0  0  0  0  0  0  0  0  0
   20.6898   18.8171   21.6030 C   0  0  0  0  0  0  0  0  0  0  0  0
   20.9587   19.4385   20.7378 H   0  0  0  0  0  0  0  0  0  0  0  0
   21.5204   18.1100   21.7271 H   0  0  0  0  0  0  0  0  0  0  0  0
   19.3932   18.0320   21.2725 C   0  0  0  0  0  0  0  0  0  0  0  0
   19.1524   17.3517   22.0994 H   0  0  0  0  0  0  0  0  0  0  0  0
   19.5818   17.3938   20.3984 H   0  0  0  0  0  0  0  0  0  0  0  0
   18.1567   18.9248   20.9784 C   0  0  0  0  0  0  0  0  0  0  0  0
   17.2923   18.2866   20.7615 H   0  0  0  0  0  0  0  0  0  0  0  0
   17.8900   19.5171   21.8610 H   0  0  0  0  0  0  0  0  0  0  0  0
   18.3351   19.8668   19.7913 C   0  0  0  0  0  0  0  0  0  0  0  0
   18.4562   21.0559   20.0121 O   0  5  0  0  0  0  0  0  0  0  0  0
   18.3300   19.3875   18.6743 O   0  0  0  0  0  0  0  0  0  0  0  0
  1  2  1  0  0  0  0
  1  3  1  0  0  0  0
  1  4  2  0  0  0  0
  4  5  1  0  0  0  0
  4  6  1  0  0  0  0
  6  7  1  0  0  0  0
  6  8  1  0  0  0  0
  6  9  1  0  0  0  0
  9 10  1  0  0  0  0
  9 11  1  0  0  0  0
  9 12  1  0  0  0  0
 12 13  1  0  0  0  0
 12 14  1  0  0  0  0
 12 15  1  0  0  0  0
 15 16  1  0  0  0  0
 15 17  1  0  0  0  0
 15 18  1  0  0  0  0
 18 19  1  0  0  0  0
 18 20  2  0  0  0  0
M  END
> <VConfSearch Rank>
574

> <Conf_Id>
66

> <Delta U+W>
1.737

> <U+W>
-50.008

> <U>
11.091

> <W>
-61.099

> <W(PB)>
-63.213

> <W(SA)>
2.114

> <Valence>
9.664

> <Coulomb>
0.658

> <VdW>
0.769

> <VdW6>
-9.171

> <VdW12>
9.940

> <Bond>
0.244

> <Angle>
3.658

> <Pdih>
5.762

> <Idih>
0.001

> <Tether>
0.000

$$$$
VeraChem MOL file


 20 19  0  0  0  0  0  0  0  0999 V2000     
   19.0887   20.4480   19.6961 C   0  0  0  0  0  0  0  0  0  0  0  0
   18.9932   19.4213   19.3499 H   0  0  0  0  0  0  0  0  0  0  0  0
   18.4355   21.1871   19.2355 H   0  0  0  0  0  0  0  0  0  0  0  0
   19.9674   20.8037   20.6397 C   0  0  0  0  0  0  0  0  0  0  0  0
   20.0227   21.8476   20.9473 H   0  0  0  0  0  0  0  0  0  0  0  0
   20.9325   19.8839   21.3699 C   0  0  0  0  0  0  0  0  0  0  0  0
   21.0530   20.2415   22.4001 H   0  0  0  0  0  0  0  0  0  0  0  0
   21.9274   19.9906   20.9179 H   0  0  0  0  0  0  0  0  0  0  0  0
   20.5464   18.3818   21.4001 C   0  0  0  0  0  0  0  0  0  0  0  0
   20.4806   18.0016   20.3722 H   0  0  0  0  0  0  0  0  0  0  0  0
   21.3626   17.8184   21.8723 H   0  0  0  0  0  0  0  0  0  0  0  0
   19.2270   18.0669   22.1503 C   0  0  0  0  0  0  0  0  0  0  0  0
   19.0074   16.9963   22.0371 H   0  0  0  0  0  0  0  0  0  0  0  0
   18.3888   18.6030   21.6859 H   0  0  0  0  0  0  0  0  0  0  0  0
   19.2777   18.4063   23.6626 C   0  0  0  0  0  0  0  0  0  0  0  0
   20.1402   17.9186   24.1321 H   0  0  0  0  0  0  0  0  0  0  0  0
   19.3921   19.4861   23.8108 H   0  0  0  0  0  0  0  0  0  0  0  0
   18.0230   17.9658   24.4081 C   0  0  0  0  0  0  0  0  0  0  0  0
   17.1082   18.7588   24.5132 O   0  5  0  0  0  0  0  0  0  0  0  0
   17.9877   16.8352   24.8524 O   0  0  0  0  0  0  0  0  0  0  0  0
  1  2  1  0  0  0  0
  1  3  1  0  0  0  0
  1  4  2  0  0  0  0
  4  5  1  0  0  0  0
  4  6  1  0  0  0  0
  6  7  1  0  0  0  0
  6  8  1  0  0  0  0
  6  9  1  0  0  0  0
  9 10  1  0  0  0  0
  9 11  1  0  0  0  0
  9 12  1  0  0  0  0
 12 13  1  0  0  0  0
 12 14  1  0  0  0  0
 12 15  1  0  0  0  0
 15 16  1  0  0  0  0
 15 17  1  0  0  0  0
 15 18  1  0  0  0  0
 18 19  1  0  0  0  0
 18 20  2  0  0  0  0
M  END
> <VConfSearch Rank>
575

> <Conf_Id>
64

> <Delta U+W>
0.366

> <U+W>
-51.379

> <U>
10.000

> <W>
-61.379

> <W(PB)>
-63.541

> <W(SA)>
2.162

> <Valence>
9.398

> <Coulomb>
-0.504

> <VdW>
1.105

> <VdW6>
-7.975

> <VdW12>
9.080

> <Bond>
0.216

> <Angle>
3.417

> <Pdih>
5.765

> <Idih>
0.001

> <Tether>
0.000

$$$$
VeraChem MOL file


 20 19  0  0  0  0  0  0  0  0999 V2000     
   19.5647   16.3305   20.9385 C   0  0  0  0  0  0  0  0  0  0  0  0
   18.8917   16.7506   20.1929 H   0  0  0  0  0  0  0  0  0  0  0  0
   19.2888   15.3749   21.3810 H   0  0  0  0  0  0  0  0  0  0  0  0
   20.6843   16.9618   21.3019 C   0  0  0  0  0  0  0  0  0  0  0  0
   21.3432   16.5253   22.0520 H   0  0  0  0  0  0  0  0  0  0  0  0
   21.1329   18.2910   20.7326 C   0  0  0  0  0  0  0  0  0  0  0  0
   20.5324   18.5570   19.8521 H   0  0  0  0  0  0  0  0  0  0  0  0
   22.1702   18.2002   20.3839 H   0  0  0  0  0  0  0  0  0  0  0  0
   21.0549   19.4304   21.7736 C   0  0  0  0  0  0  0  0  0  0  0  0
   21.6550   19.1640   22.6545 H   0  0  0  0  0  0  0  0  0  0  0  0
   21.5093   20.3341   21.3450 H   0  0  0  0  0  0  0  0  0  0  0  0
   19.6043   19.7465   22.2042 C   0  0  0  0  0  0  0  0  0  0  0  0
   19.1470   18.8572   22.6595 H   0  0  0  0  0  0  0  0  0  0  0  0
   19.0018   19.9960   21.3199 H   0  0  0  0  0  0  0  0  0  0  0  0
   19.5452   20.9205   23.2123 C   0  0  0  0  0  0  0  0  0  0  0  0
   20.1324   20.6808   24.1069 H   0  0  0  0  0  0  0  0  0  0  0  0
   19.9827   21.8231   22.7691 H   0  0  0  0  0  0  0  0  0  0  0  0
   18.1237   21.2513   23.6528 C   0  0  0  0  0  0  0  0  0  0  0  0
   17.4878   22.0457   22.9886 O   0  5  0  0  0  0  0  0  0  0  0  0
   17.6849   20.6956   24.6404 O   0  0  0  0  0  0  0  0  0  0  0  0
  1  2  1  0  0  0  0
  1  3  1  0  0  0  0
  1  4  2  0  0  0  0
  4  5  1  0  0  0  0
  4  6  1  0  0  0  0
  6  7  1  0  0  0  0
  6  8  1  0  0  0  0
  6  9  1  0  0  0  0
  9 10  1  0  0  0  0
  9 11  1  0  0  0  0
  9 12  1  0  0  0  0
 12 13  1  0  0  0  0
 12 14  1  0  0  0  0
 12 15  1  0  0  0  0
 15 16  1  0  0  0  0
 15 17  1  0  0  0  0
 15 18  1  0  0  0  0
 18 19  1  0  0  0  0
 18 20  2  0  0  0  0
M  END
> <VConfSearch Rank>
576

> <Conf_Id>
42

> <Delta U+W>
-0.601

> <U+W>
-52.347

> <U>
8.428

> <W>
-60.774

> <W(PB)>
-62.982

> <W(SA)>
2.208

> <Valence>
9.231

> <Coulomb>
-1.304

> <VdW>
0.501

> <VdW6>
-6.515

> <VdW12>
7.016

> <Bond>
0.103

> <Angle>
2.328

> <Pdih>
6.799

> <Idih>
0.000

> <Tether>
0.000

$$$$
VeraChem MOL file


 20 19  0  0  0  0  0  0  0  0999 V2000     
   18.3356   16.6775   22.9407 C   0  0  0  0  0  0  0  0  0  0  0  0
   18.8400   16.6526   23.9052 H   0  0  0  0  0  0  0  0  0  0  0  0
   18.1712   15.7269   22.4364 H   0  0  0  0  0  0  0  0  0  0  0  0
   17.9359   17.8280   22.3923 C   0  0  0  0  0  0  0  0  0  0  0  0
   17.4352   17.8313   21.4245 H   0  0  0  0  0  0  0  0  0  0  0  0
   18.1304   19.1864   23.0316 C   0  0  0  0  0  0  0  0  0  0  0  0
   18.4580   19.0797   24.0746 H   0  0  0  0  0  0  0  0  0  0  0  0
   17.1658   19.7102   23.0619 H   0  0  0  0  0  0  0  0  0  0  0  0
   19.1459   20.0573   22.2580 C   0  0  0  0  0  0  0  0  0  0  0  0
   18.8128   20.1683   21.2168 H   0  0  0  0  0  0  0  0  0  0  0  0
   19.1533   21.0659   22.6932 H   0  0  0  0  0  0  0  0  0  0  0  0
   20.5795   19.4771   22.2946 C   0  0  0  0  0  0  0  0  0  0  0  0
   20.5948   18.4843   21.8239 H   0  0  0  0  0  0  0  0  0  0  0  0
   20.8857   19.3350   23.3397 H   0  0  0  0  0  0  0  0  0  0  0  0
   21.6114   20.3931   21.5868 C   0  0  0  0  0  0  0  0  0  0  0  0
   21.5933   21.3968   22.0284 H   0  0  0  0  0  0  0  0  0  0  0  0
   22.6213   19.9959   21.7427 H   0  0  0  0  0  0  0  0  0  0  0  0
   21.3972   20.5199   20.0812 C   0  0  0  0  0  0  0  0  0  0  0  0
   20.8880   21.5381   19.6557 O   0  5  0  0  0  0  0  0  0  0  0  0
   21.7627   19.6033   19.3717 O   0  0  0  0  0  0  0  0  0  0  0  0
  1  2  1  0  0  0  0
  1  3  1  0  0  0  0
  1  4  2  0  0  0  0
  4  5  1  0  0  0  0
  4  6  1  0  0  0  0
  6  7  1  0  0  0  0
  6  8  1  0  0  0  0
  6  9  1  0  0  0  0
  9 10  1  0  0  0  0
  9 11  1  0  0  0  0
  9 12  1  0  0  0  0
 12 13  1  0  0  0  0
 12 14  1  0  0  0  0
 12 15  1  0  0  0  0
 15 16  1  0  0  0  0
 15 17  1  0  0  0  0
 15 18  1  0  0  0  0
 18 19  1  0  0  0  0
 18 20  2  0  0  0  0
M  END
> <VConfSearch Rank>
577

> <Conf_Id>
68

> <Delta U+W>
0.492

> <U+W>
-51.253

> <U>
10.179

> <W>
-61.432

> <W(PB)>
-63.627

> <W(SA)>
2.195

> <Valence>
9.483

> <Coulomb>
0.361

> <VdW>
0.335

> <VdW6>
-7.385

> <VdW12>
7.720

> <Bond>
0.125

> <Angle>
2.487

> <Pdih>
6.870

> <Idih>
0.001

> <Tether>
0.000

$$$$
VeraChem MOL file


 20 19  0  0  0  0  0  0  0  0999 V2000     
   21.8821   20.6801   23.8890 C   0  0  0  0  0  0  0  0  0  0  0  0
   22.5630   19.8637   24.1245 H   0  0  0  0  0  0  0  0  0  0  0  0
   21.7671   21.4670   24.6324 H   0  0  0  0  0  0  0  0  0  0  0  0
   21.2096   20.7165   22.7357 C   0  0  0  0  0  0  0  0  0  0  0  0
   20.5351   21.5444   22.5190 H   0  0  0  0  0  0  0  0  0  0  0  0
   21.3233   19.6630   21.6545 C   0  0  0  0  0  0  0  0  0  0  0  0
   22.2464   19.0848   21.7963 H   0  0  0  0  0  0  0  0  0  0  0  0
   21.4100   20.1440   20.6711 H   0  0  0  0  0  0  0  0  0  0  0  0
   20.1239   18.6885   21.6547 C   0  0  0  0  0  0  0  0  0  0  0  0
   20.3264   17.8775   20.9419 H   0  0  0  0  0  0  0  0  0  0  0  0
   20.0366   18.2200   22.6449 H   0  0  0  0  0  0  0  0  0  0  0  0
   18.7904   19.3757   21.2763 C   0  0  0  0  0  0  0  0  0  0  0  0
   18.9054   19.8817   20.3083 H   0  0  0  0  0  0  0  0  0  0  0  0
   18.5452   20.1529   22.0130 H   0  0  0  0  0  0  0  0  0  0  0  0
   17.6104   18.3739   21.1834 C   0  0  0  0  0  0  0  0  0  0  0  0
   16.7214   18.8894   20.8013 H   0  0  0  0  0  0  0  0  0  0  0  0
   17.8458   17.5755   20.4692 H   0  0  0  0  0  0  0  0  0  0  0  0
   17.2314   17.7374   22.5175 C   0  0  0  0  0  0  0  0  0  0  0  0
   16.5814   18.3989   23.3031 O   0  5  0  0  0  0  0  0  0  0  0  0
   17.5785   16.5918   22.7283 O   0  0  0  0  0  0  0  0  0  0  0  0
  1  2  1  0  0  0  0
  1  3  1  0  0  0  0
  1  4  2  0  0  0  0
  4  5  1  0  0  0  0
  4  6  1  0  0  0  0
  6  7  1  0  0  0  0
  6  8  1  0  0  0  0
  6  9  1  0  0  0  0
  9 10  1  0  0  0  0
  9 11  1  0  0  0  0
  9 12  1  0  0  0  0
 12 13  1  0  0  0  0
 12 14  1  0  0  0  0
 12 15  1  0  0  0  0
 15 16  1  0  0  0  0
 15 17  1  0  0  0  0
 15 18  1  0  0  0  0
 18 19  1  0  0  0  0
 18 20  2  0  0  0  0
M  END
> <VConfSearch Rank>
578

> <Conf_Id>
87

> <Delta U+W>
0.339

> <U+W>
-51.407

> <U>
10.461

> <W>
-61.867

> <W(PB)>
-64.045

> <W(SA)>
2.178

> <Valence>
9.555

> <Coulomb>
0.483

> <VdW>
0.423

> <VdW6>
-7.223

> <VdW12>
7.646

> <Bond>
0.126

> <Angle>
2.492

> <Pdih>
6.936

> <Idih>
0.001

> <Tether>
0.000

$$$$
VeraChem MOL file


 20 19  0  0  0  0  0  0  0  0999 V2000     
   21.2458   21.0611   22.7871 C   0  0  0  0  0  0  0  0  0  0  0  0
   21.7996   21.3080   21.8828 H   0  0  0  0  0  0  0  0  0  0  0  0
   20.9698   21.8818   23.4469 H   0  0  0  0  0  0  0  0  0  0  0  0
   20.9144   19.8002   23.0768 C   0  0  0  0  0  0  0  0  0  0  0  0
   20.3679   19.5720   23.9912 H   0  0  0  0  0  0  0  0  0  0  0  0
   21.2759   18.6108   22.2129 C   0  0  0  0  0  0  0  0  0  0  0  0
   21.2164   17.6834   22.7981 H   0  0  0  0  0  0  0  0  0  0  0  0
   22.3280   18.7062   21.9124 H   0  0  0  0  0  0  0  0  0  0  0  0
   20.4098   18.4876   20.9347 C   0  0  0  0  0  0  0  0  0  0  0  0
   20.3171   19.4681   20.4477 H   0  0  0  0  0  0  0  0  0  0  0  0
   20.9489   17.8478   20.2227 H   0  0  0  0  0  0  0  0  0  0  0  0
   19.0068   17.8676   21.1543 C   0  0  0  0  0  0  0  0  0  0  0  0
   19.1028   16.8938   21.6539 H   0  0  0  0  0  0  0  0  0  0  0  0
   18.5617   17.6655   20.1702 H   0  0  0  0  0  0  0  0  0  0  0  0
   18.0310   18.7673   21.9554 C   0  0  0  0  0  0  0  0  0  0  0  0
   18.3660   18.8706   22.9923 H   0  0  0  0  0  0  0  0  0  0  0  0
   17.9979   19.7732   21.5201 H   0  0  0  0  0  0  0  0  0  0  0  0
   16.6101   18.2162   21.9851 C   0  0  0  0  0  0  0  0  0  0  0  0
   16.3134   17.4409   22.8726 O   0  5  0  0  0  0  0  0  0  0  0  0
   15.8428   18.5602   21.1077 O   0  0  0  0  0  0  0  0  0  0  0  0
  1  2  1  0  0  0  0
  1  3  1  0  0  0  0
  1  4  2  0  0  0  0
  4  5  1  0  0  0  0
  4  6  1  0  0  0  0
  6  7  1  0  0  0  0
  6  8  1  0  0  0  0
  6  9  1  0  0  0  0
  9 10  1  0  0  0  0
  9 11  1  0  0  0  0
  9 12  1  0  0  0  0
 12 13  1  0  0  0  0
 12 14  1  0  0  0  0
 12 15  1  0  0  0  0
 15 16  1  0  0  0  0
 15 17  1  0  0  0  0
 15 18  1  0  0  0  0
 18 19  1  0  0  0  0
 18 20  2  0  0  0  0
M  END
> <VConfSearch Rank>
579

> <Conf_Id>
51

> <Delta U+W>
1.709

> <U+W>
-50.036

> <U>
10.643

> <W>
-60.679

> <W(PB)>
-62.882

> <W(SA)>
2.203

> <Valence>
11.231

> <Coulomb>
-1.077

> <VdW>
0.489

> <VdW6>
-7.546

> <VdW12>
8.035

> <Bond>
0.159

> <Angle>
3.005

> <Pdih>
8.065

> <Idih>
0.002

> <Tether>
0.000

$$$$
VeraChem MOL file


 20 19  0  0  0  0  0  0  0  0999 V2000     
   17.7430   17.1602   22.8123 C   0  0  0  0  0  0  0  0  0  0  0  0
   18.1944   16.7695   23.7228 H   0  0  0  0  0  0  0  0  0  0  0  0
   17.1991   16.4598   22.1808 H   0  0  0  0  0  0  0  0  0  0  0  0
   17.8531   18.4489   22.4794 C   0  0  0  0  0  0  0  0  0  0  0  0
   17.3866   18.8228   21.5687 H   0  0  0  0  0  0  0  0  0  0  0  0
   18.5824   19.4791   23.3151 C   0  0  0  0  0  0  0  0  0  0  0  0
   18.2907   19.3445   24.3654 H   0  0  0  0  0  0  0  0  0  0  0  0
   18.2548   20.4912   23.0425 H   0  0  0  0  0  0  0  0  0  0  0  0
   20.1248   19.3768   23.2173 C   0  0  0  0  0  0  0  0  0  0  0  0
   20.5526   19.8933   24.0874 H   0  0  0  0  0  0  0  0  0  0  0  0
   20.4382   18.3276   23.3060 H   0  0  0  0  0  0  0  0  0  0  0  0
   20.7414   20.0106   21.9448 C   0  0  0  0  0  0  0  0  0  0  0  0
   21.8329   20.0400   22.0690 H   0  0  0  0  0  0  0  0  0  0  0  0
   20.4146   21.0554   21.8520 H   0  0  0  0  0  0  0  0  0  0  0  0
   20.4202   19.2484   20.6337 C   0  0  0  0  0  0  0  0  0  0  0  0
   20.6557   18.1834   20.7462 H   0  0  0  0  0  0  0  0  0  0  0  0
   19.3546   19.3243   20.3956 H   0  0  0  0  0  0  0  0  0  0  0  0
   21.1971   19.7821   19.4357 C   0  0  0  0  0  0  0  0  0  0  0  0
   20.7098   20.6921   18.7944 O   0  5  0  0  0  0  0  0  0  0  0  0
   22.2791   19.2877   19.1869 O   0  0  0  0  0  0  0  0  0  0  0  0
  1  2  1  0  0  0  0
  1  3  1  0  0  0  0
  1  4  2  0  0  0  0
  4  5  1  0  0  0  0
  4  6  1  0  0  0  0
  6  7  1  0  0  0  0
  6  8  1  0  0  0  0
  6  9  1  0  0  0  0
  9 10  1  0  0  0  0
  9 11  1  0  0  0  0
  9 12  1  0  0  0  0
 12 13  1  0  0  0  0
 12 14  1  0  0  0  0
 12 15  1  0  0  0  0
 15 16  1  0  0  0  0
 15 17  1  0  0  0  0
 15 18  1  0  0  0  0
 18 19  1  0  0  0  0
 18 20  2  0  0  0  0
M  END
> <VConfSearch Rank>
580

> <Conf_Id>
91

> <Delta U+W>
1.604

> <U+W>
-50.141

> <U>
10.644

> <W>
-60.786

> <W(PB)>
-62.965

> <W(SA)>
2.179

> <Valence>
11.230

> <Coulomb>
-1.075

> <VdW>
0.489

> <VdW6>
-7.547

> <VdW12>
8.036

> <Bond>
0.159

> <Angle>
3.006

> <Pdih>
8.064

> <Idih>
0.002

> <Tether>
0.000

$$$$
VeraChem MOL file


 20 19  0  0  0  0  0  0  0  0999 V2000     
   16.8341   20.0722   23.7996 C   0  0  0  0  0  0  0  0  0  0  0  0
   17.0883   21.1034   23.5593 H   0  0  0  0  0  0  0  0  0  0  0  0
   16.1780   19.9036   24.6519 H   0  0  0  0  0  0  0  0  0  0  0  0
   17.3085   19.0512   23.0813 C   0  0  0  0  0  0  0  0  0  0  0  0
   17.0425   18.0263   23.3391 H   0  0  0  0  0  0  0  0  0  0  0  0
   18.2220   19.2077   21.8860 C   0  0  0  0  0  0  0  0  0  0  0  0
   18.2250   20.2516   21.5438 H   0  0  0  0  0  0  0  0  0  0  0  0
   17.8423   18.6029   21.0516 H   0  0  0  0  0  0  0  0  0  0  0  0
   19.6633   18.7741   22.2257 C   0  0  0  0  0  0  0  0  0  0  0  0
   20.0367   19.3791   23.0635 H   0  0  0  0  0  0  0  0  0  0  0  0
   19.6603   17.7286   22.5635 H   0  0  0  0  0  0  0  0  0  0  0  0
   20.6095   18.9248   21.0145 C   0  0  0  0  0  0  0  0  0  0  0  0
   20.6134   19.9704   20.6763 H   0  0  0  0  0  0  0  0  0  0  0  0
   20.2358   18.3209   20.1759 H   0  0  0  0  0  0  0  0  0  0  0  0
   22.0591   18.4893   21.3568 C   0  0  0  0  0  0  0  0  0  0  0  0
   22.4407   19.0924   22.1890 H   0  0  0  0  0  0  0  0  0  0  0  0
   22.0636   17.4445   21.6891 H   0  0  0  0  0  0  0  0  0  0  0  0
   23.0639   18.6074   20.2098 C   0  0  0  0  0  0  0  0  0  0  0  0
   24.2094   18.2741   20.4396 O   0  5  0  0  0  0  0  0  0  0  0  0
   22.6968   19.0214   19.1269 O   0  0  0  0  0  0  0  0  0  0  0  0
  1  2  1  0  0  0  0
  1  3  1  0  0  0  0
  1  4  2  0  0  0  0
  4  5  1  0  0  0  0
  4  6  1  0  0  0  0
  6  7  1  0  0  0  0
  6  8  1  0  0  0  0
  6  9  1  0  0  0  0
  9 10  1  0  0  0  0
  9 11  1  0  0  0  0
  9 12  1  0  0  0  0
 12 13  1  0  0  0  0
 12 14  1  0  0  0  0
 12 15  1  0  0  0  0
 15 16  1  0  0  0  0
 15 17  1  0  0  0  0
 15 18  1  0  0  0  0
 18 19  1  0  0  0  0
 18 20  2  0  0  0  0
M  END
> <VConfSearch Rank>
581

> <Conf_Id>
33

> <Delta U+W>
0.000

> <U+W>
-51.745

> <U>
7.593

> <W>
-59.338

> <W(PB)>
-61.574

> <W(SA)>
2.236

> <Valence>
9.570

> <Coulomb>
-3.091

> <VdW>
1.114

> <VdW6>
-6.064

> <VdW12>
7.178

> <Bond>
0.117

> <Angle>
2.692

> <Pdih>
6.761

> <Idih>
0.000

> <Tether>
0.000

$$$$
VeraChem MOL file


 20 19  0  0  0  0  0  0  0  0999 V2000     
   20.9056   19.6813   18.5605 C   0  0  0  0  0  0  0  0  0  0  0  0
   20.3315   18.8321   18.1933 H   0  0  0  0  0  0  0  0  0  0  0  0
   21.6140   20.1416   17.8738 H   0  0  0  0  0  0  0  0  0  0  0  0
   20.7518   20.1418   19.8046 C   0  0  0  0  0  0  0  0  0  0  0  0
   21.3370   20.9926   20.1529 H   0  0  0  0  0  0  0  0  0  0  0  0
   19.7888   19.5554   20.8128 C   0  0  0  0  0  0  0  0  0  0  0  0
   19.0729   18.8900   20.3114 H   0  0  0  0  0  0  0  0  0  0  0  0
   19.2047   20.3661   21.2663 H   0  0  0  0  0  0  0  0  0  0  0  0
   20.5431   18.7681   21.9078 C   0  0  0  0  0  0  0  0  0  0  0  0
   21.1853   18.0185   21.4252 H   0  0  0  0  0  0  0  0  0  0  0  0
   21.2138   19.4453   22.4542 H   0  0  0  0  0  0  0  0  0  0  0  0
   19.6061   18.0464   22.9054 C   0  0  0  0  0  0  0  0  0  0  0  0
   20.2164   17.4243   23.5748 H   0  0  0  0  0  0  0  0  0  0  0  0
   18.9436   17.3588   22.3617 H   0  0  0  0  0  0  0  0  0  0  0  0
   18.7536   19.0151   23.7656 C   0  0  0  0  0  0  0  0  0  0  0  0
   19.4017   19.7343   24.2804 H   0  0  0  0  0  0  0  0  0  0  0  0
   18.0662   19.5895   23.1346 H   0  0  0  0  0  0  0  0  0  0  0  0
   17.9213   18.2911   24.8178 C   0  0  0  0  0  0  0  0  0  0  0  0
   16.8084   17.9135   24.5090 O   0  5  0  0  0  0  0  0  0  0  0  0
   18.4154   18.1064   25.9126 O   0  0  0  0  0  0  0  0  0  0  0  0
  1  2  1  0  0  0  0
  1  3  1  0  0  0  0
  1  4  2  0  0  0  0
  4  5  1  0  0  0  0
  4  6  1  0  0  0  0
  6  7  1  0  0  0  0
  6  8  1  0  0  0  0
  6  9  1  0  0  0  0
  9 10  1  0  0  0  0
  9 11  1  0  0  0  0
  9 12  1  0  0  0  0
 12 13  1  0  0  0  0
 12 14  1  0  0  0  0
 12 15  1  0  0  0  0
 15 16  1  0  0  0  0
 15 17  1  0  0  0  0
 15 18  1  0  0  0  0
 18 19  1  0  0  0  0
 18 20  2  0  0  0  0
M  END
> <VConfSearch Rank>
582

> <Conf_Id>
37

> <Delta U+W>
-0.384

> <U+W>
-52.130

> <U>
7.491

> <W>
-59.621

> <W(PB)>
-61.853

> <W(SA)>
2.232

> <Valence>
9.604

> <Coulomb>
-2.799

> <VdW>
0.686

> <VdW6>
-6.435

> <VdW12>
7.121

> <Bond>
0.124

> <Angle>
2.493

> <Pdih>
6.986

> <Idih>
0.001

> <Tether>
0.000

$$$$
VeraChem MOL file


 20 19  0  0  0  0  0  0  0  0999 V2000     
   17.1938   19.1224   24.0174 C   0  0  0  0  0  0  0  0  0  0  0  0
   16.3559   19.1410   24.7121 H   0  0  0  0  0  0  0  0  0  0  0  0
   17.3013   19.9786   23.3549 H   0  0  0  0  0  0  0  0  0  0  0  0
   18.0399   18.0862   23.9950 C   0  0  0  0  0  0  0  0  0  0  0  0
   17.8801   17.2568   24.6836 H   0  0  0  0  0  0  0  0  0  0  0  0
   19.2473   17.9186   23.0878 C   0  0  0  0  0  0  0  0  0  0  0  0
   19.1352   16.9851   22.5202 H   0  0  0  0  0  0  0  0  0  0  0  0
   20.1407   17.7805   23.7114 H   0  0  0  0  0  0  0  0  0  0  0  0
   19.4922   19.0851   22.1022 C   0  0  0  0  0  0  0  0  0  0  0  0
   18.6096   19.2151   21.4609 H   0  0  0  0  0  0  0  0  0  0  0  0
   19.6259   20.0191   22.6650 H   0  0  0  0  0  0  0  0  0  0  0  0
   20.7346   18.8369   21.2192 C   0  0  0  0  0  0  0  0  0  0  0  0
   20.6070   17.9036   20.6534 H   0  0  0  0  0  0  0  0  0  0  0  0
   21.6213   18.7059   21.8550 H   0  0  0  0  0  0  0  0  0  0  0  0
   20.9820   20.0036   20.2314 C   0  0  0  0  0  0  0  0  0  0  0  0
   20.1106   20.1392   19.5795 H   0  0  0  0  0  0  0  0  0  0  0  0
   21.1248   20.9417   20.7812 H   0  0  0  0  0  0  0  0  0  0  0  0
   22.2043   19.7820   19.3478 C   0  0  0  0  0  0  0  0  0  0  0  0
   22.0504   19.2027   18.2907 O   0  5  0  0  0  0  0  0  0  0  0  0
   23.2812   20.1769   19.7489 O   0  0  0  0  0  0  0  0  0  0  0  0
  1  2  1  0  0  0  0
  1  3  1  0  0  0  0
  1  4  2  0  0  0  0
  4  5  1  0  0  0  0
  4  6  1  0  0  0  0
  6  7  1  0  0  0  0
  6  8  1  0  0  0  0
  6  9  1  0  0  0  0
  9 10  1  0  0  0  0
  9 11  1  0  0  0  0
  9 12  1  0  0  0  0
 12 13  1  0  0  0  0
 12 14  1  0  0  0  0
 12 15  1  0  0  0  0
 15 16  1  0  0  0  0
 15 17  1  0  0  0  0
 15 18  1  0  0  0  0
 18 19  1  0  0  0  0
 18 20  2  0  0  0  0
M  END
> <VConfSearch Rank>
583

> <Conf_Id>
44

> <Delta U+W>
-1.440

> <U+W>
-53.185

> <U>
6.572

> <W>
-59.757

> <W(PB)>
-62.007

> <W(SA)>
2.249

> <Valence>
7.989

> <Coulomb>
-2.697

> <VdW>
1.281

> <VdW6>
-6.467

> <VdW12>
7.748

> <Bond>
0.136

> <Angle>
2.854

> <Pdih>
4.997

> <Idih>
0.001

> <Tether>
0.000

$$$$
VeraChem MOL file


 20 19  0  0  0  0  0  0  0  0999 V2000     
   18.0942   17.0930   24.2084 C   0  0  0  0  0  0  0  0  0  0  0  0
   18.4047   17.8982   24.8724 H   0  0  0  0  0  0  0  0  0  0  0  0
   17.7177   16.1811   24.6688 H   0  0  0  0  0  0  0  0  0  0  0  0
   18.1730   17.2140   22.8807 C   0  0  0  0  0  0  0  0  0  0  0  0
   17.8575   16.3957   22.2338 H   0  0  0  0  0  0  0  0  0  0  0  0
   18.6831   18.4483   22.1706 C   0  0  0  0  0  0  0  0  0  0  0  0
   18.7152   19.2939   22.8695 H   0  0  0  0  0  0  0  0  0  0  0  0
   17.9851   18.7252   21.3694 H   0  0  0  0  0  0  0  0  0  0  0  0
   20.0874   18.2046   21.5733 C   0  0  0  0  0  0  0  0  0  0  0  0
   20.7970   17.9812   22.3819 H   0  0  0  0  0  0  0  0  0  0  0  0
   20.0523   17.3103   20.9361 H   0  0  0  0  0  0  0  0  0  0  0  0
   20.6143   19.3902   20.7301 C   0  0  0  0  0  0  0  0  0  0  0  0
   19.9103   19.6084   19.9151 H   0  0  0  0  0  0  0  0  0  0  0  0
   21.5577   19.0908   20.2528 H   0  0  0  0  0  0  0  0  0  0  0  0
   20.8626   20.6773   21.5588 C   0  0  0  0  0  0  0  0  0  0  0  0
   19.9227   21.0562   21.9757 H   0  0  0  0  0  0  0  0  0  0  0  0
   21.5297   20.4618   22.4019 H   0  0  0  0  0  0  0  0  0  0  0  0
   21.4883   21.7968   20.7348 C   0  0  0  0  0  0  0  0  0  0  0  0
   22.7007   21.8622   20.6831 O   0  5  0  0  0  0  0  0  0  0  0  0
   20.7473   22.5621   20.1501 O   0  0  0  0  0  0  0  0  0  0  0  0
  1  2  1  0  0  0  0
  1  3  1  0  0  0  0
  1  4  2  0  0  0  0
  4  5  1  0  0  0  0
  4  6  1  0  0  0  0
  6  7  1  0  0  0  0
  6  8  1  0  0  0  0
  6  9  1  0  0  0  0
  9 10  1  0  0  0  0
  9 11  1  0  0  0  0
  9 12  1  0  0  0  0
 12 13  1  0  0  0  0
 12 14  1  0  0  0  0
 12 15  1  0  0  0  0
 15 16  1  0  0  0  0
 15 17  1  0  0  0  0
 15 18  1  0  0  0  0
 18 19  1  0  0  0  0
 18 20  2  0  0  0  0
M  END
> <VConfSearch Rank>
584

> <Conf_Id>
38

> <Delta U+W>
-0.381

> <U+W>
-52.126

> <U>
7.601

> <W>
-59.727

> <W(PB)>
-61.964

> <W(SA)>
2.236

> <Valence>
9.602

> <Coulomb>
-2.686

> <VdW>
0.685

> <VdW6>
-6.453

> <VdW12>
7.139

> <Bond>
0.125

> <Angle>
2.485

> <Pdih>
6.991

> <Idih>
0.001

> <Tether>
0.000

$$$$
VeraChem MOL file


 20 19  0  0  0  0  0  0  0  0999 V2000     
   19.5178   17.0108   19.2569 C   0  0  0  0  0  0  0  0  0  0  0  0
   18.4786   16.7578   19.4608 H   0  0  0  0  0  0  0  0  0  0  0  0
   19.8842   16.8465   18.2450 H   0  0  0  0  0  0  0  0  0  0  0  0
   20.3147   17.5059   20.2074 C   0  0  0  0  0  0  0  0  0  0  0  0
   21.3519   17.7536   19.9823 H   0  0  0  0  0  0  0  0  0  0  0  0
   19.8774   17.7602   21.6328 C   0  0  0  0  0  0  0  0  0  0  0  0
   20.6143   17.3314   22.3252 H   0  0  0  0  0  0  0  0  0  0  0  0
   18.9231   17.2547   21.8337 H   0  0  0  0  0  0  0  0  0  0  0  0
   19.7273   19.2710   21.9084 C   0  0  0  0  0  0  0  0  0  0  0  0
   20.6837   19.7739   21.7090 H   0  0  0  0  0  0  0  0  0  0  0  0
   18.9931   19.6973   21.2109 H   0  0  0  0  0  0  0  0  0  0  0  0
   19.2835   19.5487   23.3625 C   0  0  0  0  0  0  0  0  0  0  0  0
   20.0212   19.1328   24.0628 H   0  0  0  0  0  0  0  0  0  0  0  0
   18.3352   19.0296   23.5571 H   0  0  0  0  0  0  0  0  0  0  0  0
   19.0976   21.0611   23.6506 C   0  0  0  0  0  0  0  0  0  0  0  0
   18.3841   21.4972   22.9409 H   0  0  0  0  0  0  0  0  0  0  0  0
   18.6708   21.1937   24.6518 H   0  0  0  0  0  0  0  0  0  0  0  0
   20.3927   21.8664   23.5964 C   0  0  0  0  0  0  0  0  0  0  0  0
   20.5909   22.5740   22.6284 O   0  5  0  0  0  0  0  0  0  0  0  0
   21.1645   21.7726   24.5305 O   0  0  0  0  0  0  0  0  0  0  0  0
  1  2  1  0  0  0  0
  1  3  1  0  0  0  0
  1  4  2  0  0  0  0
  4  5  1  0  0  0  0
  4  6  1  0  0  0  0
  6  7  1  0  0  0  0
  6  8  1  0  0  0  0
  6  9  1  0  0  0  0
  9 10  1  0  0  0  0
  9 11  1  0  0  0  0
  9 12  1  0  0  0  0
 12 13  1  0  0  0  0
 12 14  1  0  0  0  0
 12 15  1  0  0  0  0
 15 16  1  0  0  0  0
 15 17  1  0  0  0  0
 15 18  1  0  0  0  0
 18 19  1  0  0  0  0
 18 20  2  0  0  0  0
M  END
> <VConfSearch Rank>
585

> <Conf_Id>
58

> <Delta U+W>
0.019

> <U+W>
-51.727

> <U>
8.963

> <W>
-60.690

> <W(PB)>
-62.934

> <W(SA)>
2.244

> <Valence>
9.327

> <Coulomb>
-0.780

> <VdW>
0.417

> <VdW6>
-6.635

> <VdW12>
7.052

> <Bond>
0.105

> <Angle>
2.399

> <Pdih>
6.822

> <Idih>
0.000

> <Tether>
0.000

$$$$
VeraChem MOL file


 20 19  0  0  0  0  0  0  0  0999 V2000     
   22.4588   17.4645   23.5316 C   0  0  0  0  0  0  0  0  0  0  0  0
   22.7698   17.0302   22.5827 H   0  0  0  0  0  0  0  0  0  0  0  0
   22.7730   16.9566   24.4418 H   0  0  0  0  0  0  0  0  0  0  0  0
   21.7185   18.5750   23.5813 C   0  0  0  0  0  0  0  0  0  0  0  0
   21.4169   18.9929   24.5416 H   0  0  0  0  0  0  0  0  0  0  0  0
   21.2459   19.3342   22.3616 C   0  0  0  0  0  0  0  0  0  0  0  0
   21.7962   19.0027   21.4705 H   0  0  0  0  0  0  0  0  0  0  0  0
   21.4628   20.4034   22.4876 H   0  0  0  0  0  0  0  0  0  0  0  0
   19.7324   19.1371   22.1345 C   0  0  0  0  0  0  0  0  0  0  0  0
   19.5187   18.0661   22.0137 H   0  0  0  0  0  0  0  0  0  0  0  0
   19.1842   19.4715   23.0261 H   0  0  0  0  0  0  0  0  0  0  0  0
   19.2322   19.9093   20.8928 C   0  0  0  0  0  0  0  0  0  0  0  0
   19.7964   19.5797   20.0098 H   0  0  0  0  0  0  0  0  0  0  0  0
   19.4349   20.9825   21.0151 H   0  0  0  0  0  0  0  0  0  0  0  0
   17.7184   19.6993   20.6298 C   0  0  0  0  0  0  0  0  0  0  0  0
   17.4432   20.1684   19.6779 H   0  0  0  0  0  0  0  0  0  0  0  0
   17.4954   18.6298   20.5331 H   0  0  0  0  0  0  0  0  0  0  0  0
   16.8141   20.2899   21.7078 C   0  0  0  0  0  0  0  0  0  0  0  0
   16.6548   21.4947   21.7242 O   0  5  0  0  0  0  0  0  0  0  0  0
   16.2844   19.5304   22.4950 O   0  0  0  0  0  0  0  0  0  0  0  0
  1  2  1  0  0  0  0
  1  3  1  0  0  0  0
  1  4  2  0  0  0  0
  4  5  1  0  0  0  0
  4  6  1  0  0  0  0
  6  7  1  0  0  0  0
  6  8  1  0  0  0  0
  6  9  1  0  0  0  0
  9 10  1  0  0  0  0
  9 11  1  0  0  0  0
  9 12  1  0  0  0  0
 12 13  1  0  0  0  0
 12 14  1  0  0  0  0
 12 15  1  0  0  0  0
 15 16  1  0  0  0  0
 15 17  1  0  0  0  0
 15 18  1  0  0  0  0
 18 19  1  0  0  0  0
 18 20  2  0  0  0  0
M  END
> <VConfSearch Rank>
586

> <Conf_Id>
54

> <Delta U+W>
-0.048

> <U+W>
-51.793

> <U>
8.964

> <W>
-60.756

> <W(PB)>
-63.007

> <W(SA)>
2.251

> <Valence>
9.327

> <Coulomb>
-0.780

> <VdW>
0.417

> <VdW6>
-6.635

> <VdW12>
7.052

> <Bond>
0.105

> <Angle>
2.399

> <Pdih>
6.822

> <Idih>
0.000

> <Tether>
0.000

$$$$
VeraChem MOL file


 20 19  0  0  0  0  0  0  0  0999 V2000     
   21.8906   17.0620   20.3180 C   0  0  0  0  0  0  0  0  0  0  0  0
   22.9224   16.7567   20.4835 H   0  0  0  0  0  0  0  0  0  0  0  0
   21.2042   16.3149   19.9228 H   0  0  0  0  0  0  0  0  0  0  0  0
   21.4859   18.3046   20.5933 C   0  0  0  0  0  0  0  0  0  0  0  0
   22.1903   19.0378   20.9850 H   0  0  0  0  0  0  0  0  0  0  0  0
   20.0714   18.8013   20.3825 C   0  0  0  0  0  0  0  0  0  0  0  0
   19.5511   18.1453   19.6716 H   0  0  0  0  0  0  0  0  0  0  0  0
   20.0893   19.7988   19.9234 H   0  0  0  0  0  0  0  0  0  0  0  0
   19.2610   18.8472   21.6976 C   0  0  0  0  0  0  0  0  0  0  0  0
   18.2145   19.0800   21.4572 H   0  0  0  0  0  0  0  0  0  0  0  0
   19.2611   17.8513   22.1617 H   0  0  0  0  0  0  0  0  0  0  0  0
   19.8013   19.8934   22.7014 C   0  0  0  0  0  0  0  0  0  0  0  0
   19.8150   20.8870   22.2325 H   0  0  0  0  0  0  0  0  0  0  0  0
   20.8405   19.6510   22.9597 H   0  0  0  0  0  0  0  0  0  0  0  0
   18.9662   19.9529   24.0069 C   0  0  0  0  0  0  0  0  0  0  0  0
   18.9151   18.9597   24.4692 H   0  0  0  0  0  0  0  0  0  0  0  0
   19.4609   20.6138   24.7282 H   0  0  0  0  0  0  0  0  0  0  0  0
   17.5450   20.4734   23.8117 C   0  0  0  0  0  0  0  0  0  0  0  0
   16.6302   19.6738   23.8369 O   0  5  0  0  0  0  0  0  0  0  0  0
   17.3901   21.6680   23.6503 O   0  0  0  0  0  0  0  0  0  0  0  0
  1  2  1  0  0  0  0
  1  3  1  0  0  0  0
  1  4  2  0  0  0  0
  4  5  1  0  0  0  0
  4  6  1  0  0  0  0
  6  7  1  0  0  0  0
  6  8  1  0  0  0  0
  6  9  1  0  0  0  0
  9 10  1  0  0  0  0
  9 11  1  0  0  0  0
  9 12  1  0  0  0  0
 12 13  1  0  0  0  0
 12 14  1  0  0  0  0
 12 15  1  0  0  0  0
 15 16  1  0  0  0  0
 15 17  1  0  0  0  0
 15 18  1  0  0  0  0
 18 19  1  0  0  0  0
 18 20  2  0  0  0  0
M  END
> <VConfSearch Rank>
587

> <Conf_Id>
27

> <Delta U+W>
0.478

> <U+W>
-51.267

> <U>
9.192

> <W>
-60.459

> <W(PB)>
-62.649

> <W(SA)>
2.190

> <Valence>
9.572

> <Coulomb>
-0.884

> <VdW>
0.504

> <VdW6>
-7.168

> <VdW12>
7.672

> <Bond>
0.127

> <Angle>
2.504

> <Pdih>
6.941

> <Idih>
0.001

> <Tether>
0.000

$$$$
VeraChem MOL file


 20 19  0  0  0  0  0  0  0  0999 V2000     
   22.3595   20.5482   20.9157 C   0  0  0  0  0  0  0  0  0  0  0  0
   23.1569   19.8269   20.7440 H   0  0  0  0  0  0  0  0  0  0  0  0
   22.6494   21.5542   21.2140 H   0  0  0  0  0  0  0  0  0  0  0  0
   21.0744   20.2148   20.7704 C   0  0  0  0  0  0  0  0  0  0  0  0
   20.2921   20.9531   20.9443 H   0  0  0  0  0  0  0  0  0  0  0  0
   20.5975   18.8400   20.3529 C   0  0  0  0  0  0  0  0  0  0  0  0
   21.4182   18.2951   19.8669 H   0  0  0  0  0  0  0  0  0  0  0  0
   19.8023   18.9321   19.6011 H   0  0  0  0  0  0  0  0  0  0  0  0
   20.0895   18.0050   21.5499 C   0  0  0  0  0  0  0  0  0  0  0  0
   19.8846   16.9820   21.2059 H   0  0  0  0  0  0  0  0  0  0  0  0
   20.8838   17.9297   22.3054 H   0  0  0  0  0  0  0  0  0  0  0  0
   18.8103   18.5902   22.1913 C   0  0  0  0  0  0  0  0  0  0  0  0
   18.0253   18.6892   21.4288 H   0  0  0  0  0  0  0  0  0  0  0  0
   19.0113   19.5995   22.5755 H   0  0  0  0  0  0  0  0  0  0  0  0
   18.2898   17.7034   23.3491 C   0  0  0  0  0  0  0  0  0  0  0  0
   18.0668   16.6941   22.9829 H   0  0  0  0  0  0  0  0  0  0  0  0
   19.0585   17.6046   24.1250 H   0  0  0  0  0  0  0  0  0  0  0  0
   17.0286   18.2600   23.9999 C   0  0  0  0  0  0  0  0  0  0  0  0
   17.1553   19.0220   24.9379 O   0  5  0  0  0  0  0  0  0  0  0  0
   15.9529   17.9307   23.5403 O   0  0  0  0  0  0  0  0  0  0  0  0
  1  2  1  0  0  0  0
  1  3  1  0  0  0  0
  1  4  2  0  0  0  0
  4  5  1  0  0  0  0
  4  6  1  0  0  0  0
  6  7  1  0  0  0  0
  6  8  1  0  0  0  0
  6  9  1  0  0  0  0
  9 10  1  0  0  0  0
  9 11  1  0  0  0  0
  9 12  1  0  0  0  0
 12 13  1  0  0  0  0
 12 14  1  0  0  0  0
 12 15  1  0  0  0  0
 15 16  1  0  0  0  0
 15 17  1  0  0  0  0
 15 18  1  0  0  0  0
 18 19  1  0  0  0  0
 18 20  2  0  0  0  0
M  END
> <VConfSearch Rank>
588

> <Conf_Id>
41

> <Delta U+W>
-0.634

> <U+W>
-52.379

> <U>
7.828

> <W>
-60.207

> <W(PB)>
-62.449

> <W(SA)>
2.242

> <Valence>
9.300

> <Coulomb>
-2.080

> <VdW>
0.608

> <VdW6>
-6.341

> <VdW12>
6.949

> <Bond>
0.103

> <Angle>
2.334

> <Pdih>
6.862

> <Idih>
0.001

> <Tether>
0.000

$$$$
VeraChem MOL file


 20 19  0  0  0  0  0  0  0  0999 V2000     
   16.6594   19.7220   22.7600 C   0  0  0  0  0  0  0  0  0  0  0  0
   15.9232   20.0330   23.4993 H   0  0  0  0  0  0  0  0  0  0  0  0
   16.4149   19.8822   21.7112 H   0  0  0  0  0  0  0  0  0  0  0  0
   17.8170   19.1679   23.1296 C   0  0  0  0  0  0  0  0  0  0  0  0
   18.0431   19.0166   24.1849 H   0  0  0  0  0  0  0  0  0  0  0  0
   18.8857   18.7107   22.1619 C   0  0  0  0  0  0  0  0  0  0  0  0
   18.4791   18.6594   21.1428 H   0  0  0  0  0  0  0  0  0  0  0  0
   19.2031   17.6948   22.4305 H   0  0  0  0  0  0  0  0  0  0  0  0
   20.1005   19.6650   22.1856 C   0  0  0  0  0  0  0  0  0  0  0  0
   19.7485   20.6914   22.0135 H   0  0  0  0  0  0  0  0  0  0  0  0
   20.5535   19.6582   23.1866 H   0  0  0  0  0  0  0  0  0  0  0  0
   21.1736   19.3271   21.1213 C   0  0  0  0  0  0  0  0  0  0  0  0
   21.9590   20.0948   21.1551 H   0  0  0  0  0  0  0  0  0  0  0  0
   20.7240   19.3912   20.1213 H   0  0  0  0  0  0  0  0  0  0  0  0
   21.8330   17.9316   21.2946 C   0  0  0  0  0  0  0  0  0  0  0  0
   21.0871   17.1353   21.1914 H   0  0  0  0  0  0  0  0  0  0  0  0
   22.5661   17.7749   20.4948 H   0  0  0  0  0  0  0  0  0  0  0  0
   22.5634   17.7481   22.6219 C   0  0  0  0  0  0  0  0  0  0  0  0
   23.6126   18.3397   22.7843 O   0  5  0  0  0  0  0  0  0  0  0  0
   22.0745   17.0057   23.4506 O   0  0  0  0  0  0  0  0  0  0  0  0
  1  2  1  0  0  0  0
  1  3  1  0  0  0  0
  1  4  2  0  0  0  0
  4  5  1  0  0  0  0
  4  6  1  0  0  0  0
  6  7  1  0  0  0  0
  6  8  1  0  0  0  0
  6  9  1  0  0  0  0
  9 10  1  0  0  0  0
  9 11  1  0  0  0  0
  9 12  1  0  0  0  0
 12 13  1  0  0  0  0
 12 14  1  0  0  0  0
 12 15  1  0  0  0  0
 15 16  1  0  0  0  0
 15 17  1  0  0  0  0
 15 18  1  0  0  0  0
 18 19  1  0  0  0  0
 18 20  2  0  0  0  0
M  END
> <VConfSearch Rank>
589

> <Conf_Id>
84

> <Delta U+W>
0.942

> <U+W>
-50.803

> <U>
10.196

> <W>
-60.999

> <W(PB)>
-63.182

> <W(SA)>
2.182

> <Valence>
9.837

> <Coulomb>
0.032

> <VdW>
0.328

> <VdW6>
-7.642

> <VdW12>
7.969

> <Bond>
0.151

> <Angle>
2.748

> <Pdih>
6.937

> <Idih>
0.001

> <Tether>
0.000

$$$$
VeraChem MOL file


 20 19  0  0  0  0  0  0  0  0999 V2000     
   17.2351   18.9456   24.5642 C   0  0  0  0  0  0  0  0  0  0  0  0
   16.3358   19.3757   25.0019 H   0  0  0  0  0  0  0  0  0  0  0  0
   17.2427   17.8708   24.3900 H   0  0  0  0  0  0  0  0  0  0  0  0
   18.2846   19.7103   24.2523 C   0  0  0  0  0  0  0  0  0  0  0  0
   18.2563   20.7845   24.4340 H   0  0  0  0  0  0  0  0  0  0  0  0
   19.5655   19.1846   23.6436 C   0  0  0  0  0  0  0  0  0  0  0  0
   19.6088   18.0907   23.7343 H   0  0  0  0  0  0  0  0  0  0  0  0
   20.4259   19.5821   24.1984 H   0  0  0  0  0  0  0  0  0  0  0  0
   19.6799   19.5814   22.1568 C   0  0  0  0  0  0  0  0  0  0  0  0
   18.8130   19.1861   21.6092 H   0  0  0  0  0  0  0  0  0  0  0  0
   19.6408   20.6756   22.0656 H   0  0  0  0  0  0  0  0  0  0  0  0
   20.9858   19.0544   21.5203 C   0  0  0  0  0  0  0  0  0  0  0  0
   21.0216   17.9588   21.5972 H   0  0  0  0  0  0  0  0  0  0  0  0
   21.8454   19.4392   22.0857 H   0  0  0  0  0  0  0  0  0  0  0  0
   21.1348   19.4700   20.0337 C   0  0  0  0  0  0  0  0  0  0  0  0
   21.0739   20.5608   19.9372 H   0  0  0  0  0  0  0  0  0  0  0  0
   22.1249   19.1737   19.6678 H   0  0  0  0  0  0  0  0  0  0  0  0
   20.0987   18.8404   19.1069 C   0  0  0  0  0  0  0  0  0  0  0  0
   19.1905   19.5379   18.7001 O   0  5  0  0  0  0  0  0  0  0  0  0
   20.2357   17.6708   18.8060 O   0  0  0  0  0  0  0  0  0  0  0  0
  1  2  1  0  0  0  0
  1  3  1  0  0  0  0
  1  4  2  0  0  0  0
  4  5  1  0  0  0  0
  4  6  1  0  0  0  0
  6  7  1  0  0  0  0
  6  8  1  0  0  0  0
  6  9  1  0  0  0  0
  9 10  1  0  0  0  0
  9 11  1  0  0  0  0
  9 12  1  0  0  0  0
 12 13  1  0  0  0  0
 12 14  1  0  0  0  0
 12 15  1  0  0  0  0
 15 16  1  0  0  0  0
 15 17  1  0  0  0  0
 15 18  1  0  0  0  0
 18 19  1  0  0  0  0
 18 20  2  0  0  0  0
M  END
> <VConfSearch Rank>
590

> <Conf_Id>
81

> <Delta U+W>
-0.051

> <U+W>
-51.796

> <U>
9.412

> <W>
-61.209

> <W(PB)>
-63.452

> <W(SA)>
2.243

> <Valence>
9.329

> <Coulomb>
-0.323

> <VdW>
0.406

> <VdW6>
-6.640

> <VdW12>
7.046

> <Bond>
0.105

> <Angle>
2.401

> <Pdih>
6.823

> <Idih>
0.000

> <Tether>
0.000

$$$$
VeraChem MOL file


 20 19  0  0  0  0  0  0  0  0999 V2000     
   17.2745   20.6448   23.5984 C   0  0  0  0  0  0  0  0  0  0  0  0
   17.0218   21.5261   23.0111 H   0  0  0  0  0  0  0  0  0  0  0  0
   16.5684   20.3352   24.3670 H   0  0  0  0  0  0  0  0  0  0  0  0
   18.4045   19.9654   23.3853 C   0  0  0  0  0  0  0  0  0  0  0  0
   18.6397   19.0872   23.9859 H   0  0  0  0  0  0  0  0  0  0  0  0
   19.4343   20.3385   22.3404 C   0  0  0  0  0  0  0  0  0  0  0  0
   20.4434   20.2796   22.7683 H   0  0  0  0  0  0  0  0  0  0  0  0
   19.2965   21.3865   22.0426 H   0  0  0  0  0  0  0  0  0  0  0  0
   19.3407   19.4522   21.0753 C   0  0  0  0  0  0  0  0  0  0  0  0
   18.3528   19.5943   20.6164 H   0  0  0  0  0  0  0  0  0  0  0  0
   20.0728   19.8072   20.3371 H   0  0  0  0  0  0  0  0  0  0  0  0
   19.5614   17.9382   21.3267 C   0  0  0  0  0  0  0  0  0  0  0  0
   19.4471   17.4031   20.3739 H   0  0  0  0  0  0  0  0  0  0  0  0
   18.7700   17.5570   21.9855 H   0  0  0  0  0  0  0  0  0  0  0  0
   20.9458   17.5826   21.9342 C   0  0  0  0  0  0  0  0  0  0  0  0
   21.0627   18.0404   22.9230 H   0  0  0  0  0  0  0  0  0  0  0  0
   21.0084   16.4987   22.0850 H   0  0  0  0  0  0  0  0  0  0  0  0
   22.1311   17.9895   21.0636 C   0  0  0  0  0  0  0  0  0  0  0  0
   22.8224   18.9198   21.4293 O   0  5  0  0  0  0  0  0  0  0  0  0
   22.3420   17.3527   20.0500 O   0  0  0  0  0  0  0  0  0  0  0  0
  1  2  1  0  0  0  0
  1  3  1  0  0  0  0
  1  4  2  0  0  0  0
  4  5  1  0  0  0  0
  4  6  1  0  0  0  0
  6  7  1  0  0  0  0
  6  8  1  0  0  0  0
  6  9  1  0  0  0  0
  9 10  1  0  0  0  0
  9 11  1  0  0  0  0
  9 12  1  0  0  0  0
 12 13  1  0  0  0  0
 12 14  1  0  0  0  0
 12 15  1  0  0  0  0
 15 16  1  0  0  0  0
 15 17  1  0  0  0  0
 15 18  1  0  0  0  0
 18 19  1  0  0  0  0
 18 20  2  0  0  0  0
M  END
> <VConfSearch Rank>
591

> <Conf_Id>
86

> <Delta U+W>
1.248

> <U+W>
-50.498

> <U>
10.404

> <W>
-60.901

> <W(PB)>
-63.061

> <W(SA)>
2.159

> <Valence>
10.021

> <Coulomb>
0.094

> <VdW>
0.289

> <VdW6>
-8.409

> <VdW12>
8.698

> <Bond>
0.179

> <Angle>
2.939

> <Pdih>
6.902

> <Idih>
0.001

> <Tether>
0.000

$$$$
VeraChem MOL file


 20 19  0  0  0  0  0  0  0  0999 V2000     
   18.4103   20.8392   24.1725 C   0  0  0  0  0  0  0  0  0  0  0  0
   18.3371   21.8922   24.4390 H   0  0  0  0  0  0  0  0  0  0  0  0
   17.4828   20.3106   23.9589 H   0  0  0  0  0  0  0  0  0  0  0  0
   19.5942   20.2243   24.1076 C   0  0  0  0  0  0  0  0  0  0  0  0
   20.5112   20.7722   24.3230 H   0  0  0  0  0  0  0  0  0  0  0  0
   19.7751   18.7657   23.7444 C   0  0  0  0  0  0  0  0  0  0  0  0
   18.8081   18.2446   23.7425 H   0  0  0  0  0  0  0  0  0  0  0  0
   20.3881   18.2780   24.5139 H   0  0  0  0  0  0  0  0  0  0  0  0
   20.4613   18.5838   22.3718 C   0  0  0  0  0  0  0  0  0  0  0  0
   21.4268   19.1080   22.3714 H   0  0  0  0  0  0  0  0  0  0  0  0
   20.6842   17.5177   22.2277 H   0  0  0  0  0  0  0  0  0  0  0  0
   19.5902   19.0891   21.1972 C   0  0  0  0  0  0  0  0  0  0  0  0
   19.3724   20.1565   21.3364 H   0  0  0  0  0  0  0  0  0  0  0  0
   18.6232   18.5674   21.2002 H   0  0  0  0  0  0  0  0  0  0  0  0
   20.2755   18.8950   19.8197 C   0  0  0  0  0  0  0  0  0  0  0  0
   19.6743   19.3778   19.0404 H   0  0  0  0  0  0  0  0  0  0  0  0
   21.2569   19.3845   19.8126 H   0  0  0  0  0  0  0  0  0  0  0  0
   20.4564   17.4343   19.4168 C   0  0  0  0  0  0  0  0  0  0  0  0
   19.4826   16.8251   19.0198 O   0  5  0  0  0  0  0  0  0  0  0  0
   21.5669   16.9473   19.4994 O   0  0  0  0  0  0  0  0  0  0  0  0
  1  2  1  0  0  0  0
  1  3  1  0  0  0  0
  1  4  2  0  0  0  0
  4  5  1  0  0  0  0
  4  6  1  0  0  0  0
  6  7  1  0  0  0  0
  6  8  1  0  0  0  0
  6  9  1  0  0  0  0
  9 10  1  0  0  0  0
  9 11  1  0  0  0  0
  9 12  1  0  0  0  0
 12 13  1  0  0  0  0
 12 14  1  0  0  0  0
 12 15  1  0  0  0  0
 15 16  1  0  0  0  0
 15 17  1  0  0  0  0
 15 18  1  0  0  0  0
 18 19  1  0  0  0  0
 18 20  2  0  0  0  0
M  END
> <VConfSearch Rank>
592

> <Conf_Id>
28

> <Delta U+W>
0.446

> <U+W>
-51.299

> <U>
9.295

> <W>
-60.594

> <W(PB)>
-62.806

> <W(SA)>
2.212

> <Valence>
9.495

> <Coulomb>
-0.610

> <VdW>
0.409

> <VdW6>
-7.332

> <VdW12>
7.741

> <Bond>
0.126

> <Angle>
2.497

> <Pdih>
6.872

> <Idih>
0.000

> <Tether>
0.000

$$$$
VeraChem MOL file


 20 19  0  0  0  0  0  0  0  0999 V2000     
   22.4713   20.8925   22.3825 C   0  0  0  0  0  0  0  0  0  0  0  0
   22.7406   19.8491   22.2326 H   0  0  0  0  0  0  0  0  0  0  0  0
   23.2810   21.6192   22.3445 H   0  0  0  0  0  0  0  0  0  0  0  0
   21.2109   21.2846   22.6007 C   0  0  0  0  0  0  0  0  0  0  0  0
   21.0029   22.3450   22.7414 H   0  0  0  0  0  0  0  0  0  0  0  0
   19.9827   20.3933   22.6821 C   0  0  0  0  0  0  0  0  0  0  0  0
   19.2930   20.6799   21.8779 H   0  0  0  0  0  0  0  0  0  0  0  0
   19.4546   20.6082   23.6206 H   0  0  0  0  0  0  0  0  0  0  0  0
   20.2720   18.8738   22.6037 C   0  0  0  0  0  0  0  0  0  0  0  0
   20.7205   18.6332   21.6300 H   0  0  0  0  0  0  0  0  0  0  0  0
   21.0173   18.6117   23.3669 H   0  0  0  0  0  0  0  0  0  0  0  0
   19.0176   17.9939   22.8304 C   0  0  0  0  0  0  0  0  0  0  0  0
   18.6035   18.2036   23.8259 H   0  0  0  0  0  0  0  0  0  0  0  0
   19.3240   16.9387   22.8414 H   0  0  0  0  0  0  0  0  0  0  0  0
   17.9012   18.1765   21.7660 C   0  0  0  0  0  0  0  0  0  0  0  0
   17.0545   17.5258   22.0137 H   0  0  0  0  0  0  0  0  0  0  0  0
   17.5172   19.2027   21.7792 H   0  0  0  0  0  0  0  0  0  0  0  0
   18.3339   17.8343   20.3430 C   0  0  0  0  0  0  0  0  0  0  0  0
   18.5299   16.6664   20.0694 O   0  5  0  0  0  0  0  0  0  0  0  0
   18.4431   18.7405   19.5407 O   0  0  0  0  0  0  0  0  0  0  0  0
  1  2  1  0  0  0  0
  1  3  1  0  0  0  0
  1  4  2  0  0  0  0
  4  5  1  0  0  0  0
  4  6  1  0  0  0  0
  6  7  1  0  0  0  0
  6  8  1  0  0  0  0
  6  9  1  0  0  0  0
  9 10  1  0  0  0  0
  9 11  1  0  0  0  0
  9 12  1  0  0  0  0
 12 13  1  0  0  0  0
 12 14  1  0  0  0  0
 12 15  1  0  0  0  0
 15 16  1  0  0  0  0
 15 17  1  0  0  0  0
 15 18  1  0  0  0  0
 18 19  1  0  0  0  0
 18 20  2  0  0  0  0
M  END
> <VConfSearch Rank>
593

> <Conf_Id>
53

> <Delta U+W>
0.549

> <U+W>
-51.197

> <U>
10.870

> <W>
-62.067

> <W(PB)>
-64.228

> <W(SA)>
2.161

> <Valence>
8.803

> <Coulomb>
1.020

> <VdW>
1.048

> <VdW6>
-8.312

> <VdW12>
9.360

> <Bond>
0.212

> <Angle>
3.379

> <Pdih>
5.211

> <Idih>
0.001

> <Tether>
0.000

$$$$
VeraChem MOL file


 20 19  0  0  0  0  0  0  0  0999 V2000     
   17.1354   19.4292   21.0507 C   0  0  0  0  0  0  0  0  0  0  0  0
   16.9062   18.5978   21.7135 H   0  0  0  0  0  0  0  0  0  0  0  0
   16.4886   19.5644   20.1856 H   0  0  0  0  0  0  0  0  0  0  0  0
   18.1582   20.2603   21.2784 C   0  0  0  0  0  0  0  0  0  0  0  0
   18.3425   21.0797   20.5842 H   0  0  0  0  0  0  0  0  0  0  0  0
   19.1397   20.1866   22.4365 C   0  0  0  0  0  0  0  0  0  0  0  0
   18.8272   20.9019   23.2085 H   0  0  0  0  0  0  0  0  0  0  0  0
   20.1185   20.5505   22.0987 H   0  0  0  0  0  0  0  0  0  0  0  0
   19.3225   18.7879   23.0813 C   0  0  0  0  0  0  0  0  0  0  0  0
   19.9946   18.8863   23.9447 H   0  0  0  0  0  0  0  0  0  0  0  0
   18.3631   18.4473   23.4924 H   0  0  0  0  0  0  0  0  0  0  0  0
   19.8866   17.7014   22.1283 C   0  0  0  0  0  0  0  0  0  0  0  0
   19.1879   17.5400   21.2974 H   0  0  0  0  0  0  0  0  0  0  0  0
   19.9375   16.7485   22.6726 H   0  0  0  0  0  0  0  0  0  0  0  0
   21.2925   18.0189   21.5497 C   0  0  0  0  0  0  0  0  0  0  0  0
   21.6050   17.2026   20.8882 H   0  0  0  0  0  0  0  0  0  0  0  0
   21.2598   18.9229   20.9309 H   0  0  0  0  0  0  0  0  0  0  0  0
   22.3793   18.1880   22.6074 C   0  0  0  0  0  0  0  0  0  0  0  0
   22.8145   19.3039   22.8136 O   0  5  0  0  0  0  0  0  0  0  0  0
   22.7752   17.1945   23.1852 O   0  0  0  0  0  0  0  0  0  0  0  0
  1  2  1  0  0  0  0
  1  3  1  0  0  0  0
  1  4  2  0  0  0  0
  4  5  1  0  0  0  0
  4  6  1  0  0  0  0
  6  7  1  0  0  0  0
  6  8  1  0  0  0  0
  6  9  1  0  0  0  0
  9 10  1  0  0  0  0
  9 11  1  0  0  0  0
  9 12  1  0  0  0  0
 12 13  1  0  0  0  0
 12 14  1  0  0  0  0
 12 15  1  0  0  0  0
 15 16  1  0  0  0  0
 15 17  1  0  0  0  0
 15 18  1  0  0  0  0
 18 19  1  0  0  0  0
 18 20  2  0  0  0  0
M  END
> <VConfSearch Rank>
594

> <Conf_Id>
66

> <Delta U+W>
1.737

> <U+W>
-50.008

> <U>
11.091

> <W>
-61.099

> <W(PB)>
-63.213

> <W(SA)>
2.114

> <Valence>
9.664

> <Coulomb>
0.658

> <VdW>
0.769

> <VdW6>
-9.171

> <VdW12>
9.940

> <Bond>
0.244

> <Angle>
3.658

> <Pdih>
5.762

> <Idih>
0.001

> <Tether>
0.000

$$$$
VeraChem MOL file


 20 19  0  0  0  0  0  0  0  0999 V2000     
   21.4814   20.5639   20.7831 C   0  0  0  0  0  0  0  0  0  0  0  0
   21.8084   19.5570   20.5331 H   0  0  0  0  0  0  0  0  0  0  0  0
   21.6575   21.3390   20.0394 H   0  0  0  0  0  0  0  0  0  0  0  0
   20.8937   20.8540   21.9490 C   0  0  0  0  0  0  0  0  0  0  0  0
   20.5882   21.8807   22.1486 H   0  0  0  0  0  0  0  0  0  0  0  0
   20.5810   19.8783   23.0719 C   0  0  0  0  0  0  0  0  0  0  0  0
   19.6464   20.1844   23.5582 H   0  0  0  0  0  0  0  0  0  0  0  0
   21.3489   19.9822   23.8498 H   0  0  0  0  0  0  0  0  0  0  0  0
   20.4706   18.3861   22.6628 C   0  0  0  0  0  0  0  0  0  0  0  0
   21.4230   18.0560   22.2276 H   0  0  0  0  0  0  0  0  0  0  0  0
   20.3345   17.7819   23.5700 H   0  0  0  0  0  0  0  0  0  0  0  0
   19.3173   18.0681   21.6771 C   0  0  0  0  0  0  0  0  0  0  0  0
   19.3840   17.0096   21.3906 H   0  0  0  0  0  0  0  0  0  0  0  0
   19.4392   18.6451   20.7510 H   0  0  0  0  0  0  0  0  0  0  0  0
   17.9076   18.3353   22.2657 C   0  0  0  0  0  0  0  0  0  0  0  0
   17.7877   17.8056   23.2182 H   0  0  0  0  0  0  0  0  0  0  0  0
   17.7708   19.4038   22.4664 H   0  0  0  0  0  0  0  0  0  0  0  0
   16.7857   17.8905   21.3341 C   0  0  0  0  0  0  0  0  0  0  0  0
   16.3388   18.6993   20.5449 O   0  5  0  0  0  0  0  0  0  0  0  0
   16.3975   16.7415   21.4123 O   0  0  0  0  0  0  0  0  0  0  0  0
  1  2  1  0  0  0  0
  1  3  1  0  0  0  0
  1  4  2  0  0  0  0
  4  5  1  0  0  0  0
  4  6  1  0  0  0  0
  6  7  1  0  0  0  0
  6  8  1  0  0  0  0
  6  9  1  0  0  0  0
  9 10  1  0  0  0  0
  9 11  1  0  0  0  0
  9 12  1  0  0  0  0
 12 13  1  0  0  0  0
 12 14  1  0  0  0  0
 12 15  1  0  0  0  0
 15 16  1  0  0  0  0
 15 17  1  0  0  0  0
 15 18  1  0  0  0  0
 18 19  1  0  0  0  0
 18 20  2  0  0  0  0
M  END
> <VConfSearch Rank>
595

> <Conf_Id>
64

> <Delta U+W>
0.366

> <U+W>
-51.379

> <U>
10.000

> <W>
-61.379

> <W(PB)>
-63.541

> <W(SA)>
2.162

> <Valence>
9.398

> <Coulomb>
-0.504

> <VdW>
1.105

> <VdW6>
-7.975

> <VdW12>
9.080

> <Bond>
0.216

> <Angle>
3.417

> <Pdih>
5.765

> <Idih>
0.001

> <Tether>
0.000

$$$$
VeraChem MOL file


 20 19  0  0  0  0  0  0  0  0999 V2000     
   21.4520   20.3737   19.7785 C   0  0  0  0  0  0  0  0  0  0  0  0
   22.3379   19.8556   20.1421 H   0  0  0  0  0  0  0  0  0  0  0  0
   21.5773   21.3984   19.4328 H   0  0  0  0  0  0  0  0  0  0  0  0
   20.2557   19.7802   19.7596 C   0  0  0  0  0  0  0  0  0  0  0  0
   19.3809   20.3174   19.3941 H   0  0  0  0  0  0  0  0  0  0  0  0
   20.0040   18.3613   20.2238 C   0  0  0  0  0  0  0  0  0  0  0  0
   20.9534   17.8314   20.3799 H   0  0  0  0  0  0  0  0  0  0  0  0
   19.4706   17.8150   19.4345 H   0  0  0  0  0  0  0  0  0  0  0  0
   19.1649   18.3093   21.5204 C   0  0  0  0  0  0  0  0  0  0  0  0
   18.2156   18.8399   21.3644 H   0  0  0  0  0  0  0  0  0  0  0  0
   18.9087   17.2628   21.7353 H   0  0  0  0  0  0  0  0  0  0  0  0
   19.9073   18.9104   22.7357 C   0  0  0  0  0  0  0  0  0  0  0  0
   20.1457   19.9657   22.5439 H   0  0  0  0  0  0  0  0  0  0  0  0
   20.8641   18.3896   22.8795 H   0  0  0  0  0  0  0  0  0  0  0  0
   19.0677   18.8070   24.0328 C   0  0  0  0  0  0  0  0  0  0  0  0
   18.1138   19.3335   23.9089 H   0  0  0  0  0  0  0  0  0  0  0  0
   18.8337   17.7580   24.2502 H   0  0  0  0  0  0  0  0  0  0  0  0
   19.7791   19.3941   25.2466 C   0  0  0  0  0  0  0  0  0  0  0  0
   20.5076   18.6664   25.8919 O   0  5  0  0  0  0  0  0  0  0  0  0
   19.5970   20.5671   25.5069 O   0  0  0  0  0  0  0  0  0  0  0  0
  1  2  1  0  0  0  0
  1  3  1  0  0  0  0
  1  4  2  0  0  0  0
  4  5  1  0  0  0  0
  4  6  1  0  0  0  0
  6  7  1  0  0  0  0
  6  8  1  0  0  0  0
  6  9  1  0  0  0  0
  9 10  1  0  0  0  0
  9 11  1  0  0  0  0
  9 12  1  0  0  0  0
 12 13  1  0  0  0  0
 12 14  1  0  0  0  0
 12 15  1  0  0  0  0
 15 16  1  0  0  0  0
 15 17  1  0  0  0  0
 15 18  1  0  0  0  0
 18 19  1  0  0  0  0
 18 20  2  0  0  0  0
M  END
> <VConfSearch Rank>
596

> <Conf_Id>
42

> <Delta U+W>
-0.601

> <U+W>
-52.347

> <U>
8.428

> <W>
-60.774

> <W(PB)>
-62.982

> <W(SA)>
2.208

> <Valence>
9.231

> <Coulomb>
-1.304

> <VdW>
0.501

> <VdW6>
-6.515

> <VdW12>
7.016

> <Bond>
0.103

> <Angle>
2.328

> <Pdih>
6.799

> <Idih>
0.000

> <Tether>
0.000

$$$$
VeraChem MOL file


 20 19  0  0  0  0  0  0  0  0999 V2000     
   21.3292   16.7364   21.7177 C   0  0  0  0  0  0  0  0  0  0  0  0
   20.5517   16.2073   21.1693 H   0  0  0  0  0  0  0  0  0  0  0  0
   21.9375   16.1566   22.4097 H   0  0  0  0  0  0  0  0  0  0  0  0
   21.5297   18.0468   21.5536 C   0  0  0  0  0  0  0  0  0  0  0  0
   22.3116   18.5581   22.1144 H   0  0  0  0  0  0  0  0  0  0  0  0
   20.7248   18.9179   20.6127 C   0  0  0  0  0  0  0  0  0  0  0  0
   20.1013   18.3004   19.9520 H   0  0  0  0  0  0  0  0  0  0  0  0
   21.4124   19.4724   19.9605 H   0  0  0  0  0  0  0  0  0  0  0  0
   19.8327   19.9278   21.3692 C   0  0  0  0  0  0  0  0  0  0  0  0
   20.4591   20.5488   22.0243 H   0  0  0  0  0  0  0  0  0  0  0  0
   19.3704   20.6085   20.6414 H   0  0  0  0  0  0  0  0  0  0  0  0
   18.7225   19.2394   22.1980 C   0  0  0  0  0  0  0  0  0  0  0  0
   19.1723   18.5866   22.9589 H   0  0  0  0  0  0  0  0  0  0  0  0
   18.1279   18.5923   21.5393 H   0  0  0  0  0  0  0  0  0  0  0  0
   17.7793   20.2564   22.8915 C   0  0  0  0  0  0  0  0  0  0  0  0
   17.3389   20.9327   22.1490 H   0  0  0  0  0  0  0  0  0  0  0  0
   16.9483   19.7208   23.3654 H   0  0  0  0  0  0  0  0  0  0  0  0
   18.4580   21.0945   23.9712 C   0  0  0  0  0  0  0  0  0  0  0  0
   18.7524   22.2439   23.7077 O   0  5  0  0  0  0  0  0  0  0  0  0
   18.6578   20.5802   25.0541 O   0  0  0  0  0  0  0  0  0  0  0  0
  1  2  1  0  0  0  0
  1  3  1  0  0  0  0
  1  4  2  0  0  0  0
  4  5  1  0  0  0  0
  4  6  1  0  0  0  0
  6  7  1  0  0  0  0
  6  8  1  0  0  0  0
  6  9  1  0  0  0  0
  9 10  1  0  0  0  0
  9 11  1  0  0  0  0
  9 12  1  0  0  0  0
 12 13  1  0  0  0  0
 12 14  1  0  0  0  0
 12 15  1  0  0  0  0
 15 16  1  0  0  0  0
 15 17  1  0  0  0  0
 15 18  1  0  0  0  0
 18 19  1  0  0  0  0
 18 20  2  0  0  0  0
M  END
> <VConfSearch Rank>
597

> <Conf_Id>
68

> <Delta U+W>
0.492

> <U+W>
-51.253

> <U>
10.179

> <W>
-61.432

> <W(PB)>
-63.627

> <W(SA)>
2.195

> <Valence>
9.483

> <Coulomb>
0.361

> <VdW>
0.335

> <VdW6>
-7.385

> <VdW12>
7.720

> <Bond>
0.125

> <Angle>
2.487

> <Pdih>
6.870

> <Idih>
0.001

> <Tether>
0.000

$$$$
VeraChem MOL file


 20 19  0  0  0  0  0  0  0  0999 V2000     
   17.4693   19.1919   19.7692 C   0  0  0  0  0  0  0  0  0  0  0  0
   17.3458   20.2474   19.5321 H   0  0  0  0  0  0  0  0  0  0  0  0
   16.5994   18.5474   19.6549 H   0  0  0  0  0  0  0  0  0  0  0  0
   18.6398   18.7035   20.1876 C   0  0  0  0  0  0  0  0  0  0  0  0
   18.7423   17.6432   20.4169 H   0  0  0  0  0  0  0  0  0  0  0  0
   19.8914   19.5366   20.3641 C   0  0  0  0  0  0  0  0  0  0  0  0
   19.7967   20.4724   19.7968 H   0  0  0  0  0  0  0  0  0  0  0  0
   20.7558   19.0073   19.9413 H   0  0  0  0  0  0  0  0  0  0  0  0
   20.1643   19.8814   21.8456 C   0  0  0  0  0  0  0  0  0  0  0  0
   21.0025   20.5896   21.8959 H   0  0  0  0  0  0  0  0  0  0  0  0
   19.2909   20.4003   22.2646 H   0  0  0  0  0  0  0  0  0  0  0  0
   20.4995   18.6365   22.7009 C   0  0  0  0  0  0  0  0  0  0  0  0
   21.3420   18.0995   22.2447 H   0  0  0  0  0  0  0  0  0  0  0  0
   19.6474   17.9432   22.7066 H   0  0  0  0  0  0  0  0  0  0  0  0
   20.8673   19.0008   24.1628 C   0  0  0  0  0  0  0  0  0  0  0  0
   21.2068   18.1015   24.6900 H   0  0  0  0  0  0  0  0  0  0  0  0
   21.7020   19.7119   24.1781 H   0  0  0  0  0  0  0  0  0  0  0  0
   19.7104   19.5909   24.9642 C   0  0  0  0  0  0  0  0  0  0  0  0
   18.8618   18.8312   25.3883 O   0  5  0  0  0  0  0  0  0  0  0  0
   19.6981   20.7903   25.1598 O   0  0  0  0  0  0  0  0  0  0  0  0
  1  2  1  0  0  0  0
  1  3  1  0  0  0  0
  1  4  2  0  0  0  0
  4  5  1  0  0  0  0
  4  6  1  0  0  0  0
  6  7  1  0  0  0  0
  6  8  1  0  0  0  0
  6  9  1  0  0  0  0
  9 10  1  0  0  0  0
  9 11  1  0  0  0  0
  9 12  1  0  0  0  0
 12 13  1  0  0  0  0
 12 14  1  0  0  0  0
 12 15  1  0  0  0  0
 15 16  1  0  0  0  0
 15 17  1  0  0  0  0
 15 18  1  0  0  0  0
 18 19  1  0  0  0  0
 18 20  2  0  0  0  0
M  END
> <VConfSearch Rank>
598

> <Conf_Id>
87

> <Delta U+W>
0.339

> <U+W>
-51.407

> <U>
10.461

> <W>
-61.867

> <W(PB)>
-64.045

> <W(SA)>
2.178

> <Valence>
9.555

> <Coulomb>
0.483

> <VdW>
0.423

> <VdW6>
-7.223

> <VdW12>
7.646

> <Bond>
0.126

> <Angle>
2.492

> <Pdih>
6.936

> <Idih>
0.001

> <Tether>
0.000

$$$$
VeraChem MOL file


 20 19  0  0  0  0  0  0  0  0999 V2000     
   21.4590   18.4570   24.0260 C   0  0  0  0  0  0  0  0  0  0  0  0
   21.3778   19.3530   24.6392 H   0  0  0  0  0  0  0  0  0  0  0  0
   21.6422   17.5135   24.5371 H   0  0  0  0  0  0  0  0  0  0  0  0
   21.3364   18.5106   22.6971 C   0  0  0  0  0  0  0  0  0  0  0  0
   21.4298   17.6043   22.0998 H   0  0  0  0  0  0  0  0  0  0  0  0
   21.0943   19.7875   21.9209 C   0  0  0  0  0  0  0  0  0  0  0  0
   21.3723   19.6507   20.8673 H   0  0  0  0  0  0  0  0  0  0  0  0
   21.7684   20.5632   22.3084 H   0  0  0  0  0  0  0  0  0  0  0  0
   19.6387   20.3072   22.0219 C   0  0  0  0  0  0  0  0  0  0  0  0
   19.2968   20.2665   23.0652 H   0  0  0  0  0  0  0  0  0  0  0  0
   19.6408   21.3708   21.7471 H   0  0  0  0  0  0  0  0  0  0  0  0
   18.6229   19.5861   21.1004 C   0  0  0  0  0  0  0  0  0  0  0  0
   18.9749   19.6167   20.0601 H   0  0  0  0  0  0  0  0  0  0  0  0
   17.6789   20.1482   21.1219 H   0  0  0  0  0  0  0  0  0  0  0  0
   18.3261   18.1191   21.5043 C   0  0  0  0  0  0  0  0  0  0  0  0
   19.2102   17.4918   21.3529 H   0  0  0  0  0  0  0  0  0  0  0  0
   18.0633   18.0637   22.5675 H   0  0  0  0  0  0  0  0  0  0  0  0
   17.1852   17.5054   20.7010 C   0  0  0  0  0  0  0  0  0  0  0  0
   17.4532   16.9555   19.6509 O   0  5  0  0  0  0  0  0  0  0  0  0
   16.0553   17.6114   21.1358 O   0  0  0  0  0  0  0  0  0  0  0  0
  1  2  1  0  0  0  0
  1  3  1  0  0  0  0
  1  4  2  0  0  0  0
  4  5  1  0  0  0  0
  4  6  1  0  0  0  0
  6  7  1  0  0  0  0
  6  8  1  0  0  0  0
  6  9  1  0  0  0  0
  9 10  1  0  0  0  0
  9 11  1  0  0  0  0
  9 12  1  0  0  0  0
 12 13  1  0  0  0  0
 12 14  1  0  0  0  0
 12 15  1  0  0  0  0
 15 16  1  0  0  0  0
 15 17  1  0  0  0  0
 15 18  1  0  0  0  0
 18 19  1  0  0  0  0
 18 20  2  0  0  0  0
M  END
> <VConfSearch Rank>
599

> <Conf_Id>
51

> <Delta U+W>
1.709

> <U+W>
-50.036

> <U>
10.643

> <W>
-60.679

> <W(PB)>
-62.882

> <W(SA)>
2.203

> <Valence>
11.231

> <Coulomb>
-1.077

> <VdW>
0.489

> <VdW6>
-7.546

> <VdW12>
8.035

> <Bond>
0.159

> <Angle>
3.005

> <Pdih>
8.065

> <Idih>
0.002

> <Tether>
0.000

$$$$
VeraChem MOL file


 20 19  0  0  0  0  0  0  0  0999 V2000     
   17.2235   20.5400   22.4827 C   0  0  0  0  0  0  0  0  0  0  0  0
   16.4583   19.9189   22.0201 H   0  0  0  0  0  0  0  0  0  0  0  0
   17.0888   21.6193   22.4384 H   0  0  0  0  0  0  0  0  0  0  0  0
   18.2893   20.0006   23.0800 C   0  0  0  0  0  0  0  0  0  0  0  0
   19.0400   20.6385   23.5451 H   0  0  0  0  0  0  0  0  0  0  0  0
   18.5338   18.5107   23.1895 C   0  0  0  0  0  0  0  0  0  0  0  0
   17.5966   18.0260   23.4946 H   0  0  0  0  0  0  0  0  0  0  0  0
   19.2525   18.3011   23.9929 H   0  0  0  0  0  0  0  0  0  0  0  0
   19.0133   17.8627   21.8669 C   0  0  0  0  0  0  0  0  0  0  0  0
   18.8260   16.7823   21.9336 H   0  0  0  0  0  0  0  0  0  0  0  0
   18.4016   18.2230   21.0285 H   0  0  0  0  0  0  0  0  0  0  0  0
   20.5175   18.0600   21.5514 C   0  0  0  0  0  0  0  0  0  0  0  0
   20.7782   17.4159   20.7001 H   0  0  0  0  0  0  0  0  0  0  0  0
   21.1255   17.7116   22.3976 H   0  0  0  0  0  0  0  0  0  0  0  0
   20.9084   19.5178   21.1976 C   0  0  0  0  0  0  0  0  0  0  0  0
   20.2459   19.9097   20.4168 H   0  0  0  0  0  0  0  0  0  0  0  0
   20.8032   20.1675   22.0722 H   0  0  0  0  0  0  0  0  0  0  0  0
   22.3459   19.6402   20.7056 C   0  0  0  0  0  0  0  0  0  0  0  0
   23.2221   19.8135   21.5296 O   0  5  0  0  0  0  0  0  0  0  0  0
   22.5548   19.5385   19.5127 O   0  0  0  0  0  0  0  0  0  0  0  0
  1  2  1  0  0  0  0
  1  3  1  0  0  0  0
  1  4  2  0  0  0  0
  4  5  1  0  0  0  0
  4  6  1  0  0  0  0
  6  7  1  0  0  0  0
  6  8  1  0  0  0  0
  6  9  1  0  0  0  0
  9 10  1  0  0  0  0
  9 11  1  0  0  0  0
  9 12  1  0  0  0  0
 12 13  1  0  0  0  0
 12 14  1  0  0  0  0
 12 15  1  0  0  0  0
 15 16  1  0  0  0  0
 15 17  1  0  0  0  0
 15 18  1  0  0  0  0
 18 19  1  0  0  0  0
 18 20  2  0  0  0  0
M  END
> <VConfSearch Rank>
600

> <Conf_Id>
91

> <Delta U+W>
1.604

> <U+W>
-50.141

> <U>
10.644

> <W>
-60.786

> <W(PB)>
-62.965

> <W(SA)>
2.179

> <Valence>
11.230

> <Coulomb>
-1.075

> <VdW>
0.489

> <VdW6>
-7.547

> <VdW12>
8.036

> <Bond>
0.159

> <Angle>
3.006

> <Pdih>
8.064

> <Idih>
0.002

> <Tether>
0.000

$$$$
VeraChem MOL file


 20 19  0  0  0  0  0  0  0  0999 V2000     
   18.3126   16.3700   19.7807 C   0  0  0  0  0  0  0  0  0  0  0  0
   17.3388   16.6487   20.1801 H   0  0  0  0  0  0  0  0  0  0  0  0
   18.4077   15.3799   19.3380 H   0  0  0  0  0  0  0  0  0  0  0  0
   19.3529   17.2058   19.8321 C   0  0  0  0  0  0  0  0  0  0  0  0
   20.3196   16.9070   19.4271 H   0  0  0  0  0  0  0  0  0  0  0  0
   19.2963   18.5941   20.4296 C   0  0  0  0  0  0  0  0  0  0  0  0
   18.2522   18.9058   20.5692 H   0  0  0  0  0  0  0  0  0  0  0  0
   19.7500   19.3125   19.7338 H   0  0  0  0  0  0  0  0  0  0  0  0
   20.0341   18.6483   21.7837 C   0  0  0  0  0  0  0  0  0  0  0  0
   19.5791   17.9250   22.4745 H   0  0  0  0  0  0  0  0  0  0  0  0
   21.0795   18.3409   21.6428 H   0  0  0  0  0  0  0  0  0  0  0  0
   19.9884   20.0606   22.4070 C   0  0  0  0  0  0  0  0  0  0  0  0
   18.9431   20.3686   22.5487 H   0  0  0  0  0  0  0  0  0  0  0  0
   20.4422   20.7846   21.7161 H   0  0  0  0  0  0  0  0  0  0  0  0
   20.7299   20.1145   23.7692 C   0  0  0  0  0  0  0  0  0  0  0  0
   20.2780   19.3988   24.4659 H   0  0  0  0  0  0  0  0  0  0  0  0
   21.7757   19.8145   23.6342 H   0  0  0  0  0  0  0  0  0  0  0  0
   20.7326   21.4807   24.4569 C   0  0  0  0  0  0  0  0  0  0  0  0
   21.3050   21.5624   25.5255 O   0  5  0  0  0  0  0  0  0  0  0  0
   20.1755   22.4231   23.9278 O   0  0  0  0  0  0  0  0  0  0  0  0
  1  2  1  0  0  0  0
  1  3  1  0  0  0  0
  1  4  2  0  0  0  0
  4  5  1  0  0  0  0
  4  6  1  0  0  0  0
  6  7  1  0  0  0  0
  6  8  1  0  0  0  0
  6  9  1  0  0  0  0
  9 10  1  0  0  0  0
  9 11  1  0  0  0  0
  9 12  1  0  0  0  0
 12 13  1  0  0  0  0
 12 14  1  0  0  0  0
 12 15  1  0  0  0  0
 15 16  1  0  0  0  0
 15 17  1  0  0  0  0
 15 18  1  0  0  0  0
 18 19  1  0  0  0  0
 18 20  2  0  0  0  0
M  END
> <VConfSearch Rank>
601

> <Conf_Id>
33

> <Delta U+W>
0.000

> <U+W>
-51.745

> <U>
7.593

> <W>
-59.338

> <W(PB)>
-61.574

> <W(SA)>
2.236

> <Valence>
9.570

> <Coulomb>
-3.091

> <VdW>
1.114

> <VdW6>
-6.064

> <VdW12>
7.178

> <Bond>
0.117

> <Angle>
2.692

> <Pdih>
6.761

> <Idih>
0.000

> <Tether>
0.000

$$$$
VeraChem MOL file


 20 19  0  0  0  0  0  0  0  0999 V2000     
   21.1283   17.6160   24.9113 C   0  0  0  0  0  0  0  0  0  0  0  0
   22.1231   17.7275   24.4829 H   0  0  0  0  0  0  0  0  0  0  0  0
   21.0410   17.0431   25.8329 H   0  0  0  0  0  0  0  0  0  0  0  0
   20.0541   18.1571   24.3307 C   0  0  0  0  0  0  0  0  0  0  0  0
   19.0670   18.0331   24.7753 H   0  0  0  0  0  0  0  0  0  0  0  0
   20.0976   18.9649   23.0527 C   0  0  0  0  0  0  0  0  0  0  0  0
   21.1318   19.2540   22.8213 H   0  0  0  0  0  0  0  0  0  0  0  0
   19.5324   19.8946   23.1952 H   0  0  0  0  0  0  0  0  0  0  0  0
   19.5104   18.1631   21.8694 C   0  0  0  0  0  0  0  0  0  0  0  0
   20.0356   17.2005   21.7995 H   0  0  0  0  0  0  0  0  0  0  0  0
   18.4562   17.9273   22.0696 H   0  0  0  0  0  0  0  0  0  0  0  0
   19.6320   18.8913   20.5096 C   0  0  0  0  0  0  0  0  0  0  0  0
   19.2977   18.2106   19.7144 H   0  0  0  0  0  0  0  0  0  0  0  0
   20.6873   19.1160   20.3017 H   0  0  0  0  0  0  0  0  0  0  0  0
   18.7991   20.1970   20.4300 C   0  0  0  0  0  0  0  0  0  0  0  0
   17.7506   19.9929   20.6776 H   0  0  0  0  0  0  0  0  0  0  0  0
   19.1667   20.9348   21.1521 H   0  0  0  0  0  0  0  0  0  0  0  0
   18.8421   20.8398   19.0484 C   0  0  0  0  0  0  0  0  0  0  0  0
   19.7303   21.6350   18.8128 O   0  5  0  0  0  0  0  0  0  0  0  0
   17.9979   20.5135   18.2374 O   0  0  0  0  0  0  0  0  0  0  0  0
  1  2  1  0  0  0  0
  1  3  1  0  0  0  0
  1  4  2  0  0  0  0
  4  5  1  0  0  0  0
  4  6  1  0  0  0  0
  6  7  1  0  0  0  0
  6  8  1  0  0  0  0
  6  9  1  0  0  0  0
  9 10  1  0  0  0  0
  9 11  1  0  0  0  0
  9 12  1  0  0  0  0
 12 13  1  0  0  0  0
 12 14  1  0  0  0  0
 12 15  1  0  0  0  0
 15 16  1  0  0  0  0
 15 17  1  0  0  0  0
 15 18  1  0  0  0  0
 18 19  1  0  0  0  0
 18 20  2  0  0  0  0
M  END
> <VConfSearch Rank>
602

> <Conf_Id>
37

> <Delta U+W>
-0.384

> <U+W>
-52.130

> <U>
7.491

> <W>
-59.621

> <W(PB)>
-61.853

> <W(SA)>
2.232

> <Valence>
9.604

> <Coulomb>
-2.799

> <VdW>
0.686

> <VdW6>
-6.435

> <VdW12>
7.121

> <Bond>
0.124

> <Angle>
2.493

> <Pdih>
6.986

> <Idih>
0.001

> <Tether>
0.000

$$$$
VeraChem MOL file


 20 19  0  0  0  0  0  0  0  0999 V2000     
   17.3364   19.0274   19.6183 C   0  0  0  0  0  0  0  0  0  0  0  0
   16.5518   19.0380   18.8637 H   0  0  0  0  0  0  0  0  0  0  0  0
   17.0544   18.6943   20.6149 H   0  0  0  0  0  0  0  0  0  0  0  0
   18.5820   19.4096   19.3143 C   0  0  0  0  0  0  0  0  0  0  0  0
   18.8036   19.7334   18.2977 H   0  0  0  0  0  0  0  0  0  0  0  0
   19.7752   19.4486   20.2544 C   0  0  0  0  0  0  0  0  0  0  0  0
   20.1766   20.4707   20.2727 H   0  0  0  0  0  0  0  0  0  0  0  0
   20.5752   18.8238   19.8352 H   0  0  0  0  0  0  0  0  0  0  0  0
   19.4822   18.9929   21.7030 C   0  0  0  0  0  0  0  0  0  0  0  0
   18.6968   19.6277   22.1357 H   0  0  0  0  0  0  0  0  0  0  0  0
   19.0997   17.9630   21.6934 H   0  0  0  0  0  0  0  0  0  0  0  0
   20.7438   19.0623   22.5910 C   0  0  0  0  0  0  0  0  0  0  0  0
   21.1315   20.0905   22.6047 H   0  0  0  0  0  0  0  0  0  0  0  0
   21.5336   18.4291   22.1633 H   0  0  0  0  0  0  0  0  0  0  0  0
   20.4530   18.6064   24.0421 C   0  0  0  0  0  0  0  0  0  0  0  0
   19.6753   19.2376   24.4888 H   0  0  0  0  0  0  0  0  0  0  0  0
   20.0773   17.5762   24.0474 H   0  0  0  0  0  0  0  0  0  0  0  0
   21.6841   18.6660   24.9392 C   0  0  0  0  0  0  0  0  0  0  0  0
   21.9090   19.7000   25.5366 O   0  5  0  0  0  0  0  0  0  0  0  0
   22.3966   17.6835   25.0013 O   0  0  0  0  0  0  0  0  0  0  0  0
  1  2  1  0  0  0  0
  1  3  1  0  0  0  0
  1  4  2  0  0  0  0
  4  5  1  0  0  0  0
  4  6  1  0  0  0  0
  6  7  1  0  0  0  0
  6  8  1  0  0  0  0
  6  9  1  0  0  0  0
  9 10  1  0  0  0  0
  9 11  1  0  0  0  0
  9 12  1  0  0  0  0
 12 13  1  0  0  0  0
 12 14  1  0  0  0  0
 12 15  1  0  0  0  0
 15 16  1  0  0  0  0
 15 17  1  0  0  0  0
 15 18  1  0  0  0  0
 18 19  1  0  0  0  0
 18 20  2  0  0  0  0
M  END
> <VConfSearch Rank>
603

> <Conf_Id>
44

> <Delta U+W>
-1.440

> <U+W>
-53.185

> <U>
6.572

> <W>
-59.757

> <W(PB)>
-62.007

> <W(SA)>
2.249

> <Valence>
7.989

> <Coulomb>
-2.697

> <VdW>
1.281

> <VdW6>
-6.467

> <VdW12>
7.748

> <Bond>
0.136

> <Angle>
2.854

> <Pdih>
4.997

> <Idih>
0.001

> <Tether>
0.000

$$$$
VeraChem MOL file


 20 19  0  0  0  0  0  0  0  0999 V2000     
   19.6803   20.2795   18.6916 C   0  0  0  0  0  0  0  0  0  0  0  0
   20.7364   20.4423   18.9008 H   0  0  0  0  0  0  0  0  0  0  0  0
   19.2625   20.7684   17.8132 H   0  0  0  0  0  0  0  0  0  0  0  0
   18.9229   19.5131   19.4807 C   0  0  0  0  0  0  0  0  0  0  0  0
   17.8675   19.3635   19.2537 H   0  0  0  0  0  0  0  0  0  0  0  0
   19.4326   18.8022   20.7146 C   0  0  0  0  0  0  0  0  0  0  0  0
   20.5300   18.7853   20.7084 H   0  0  0  0  0  0  0  0  0  0  0  0
   19.0990   17.7561   20.6992 H   0  0  0  0  0  0  0  0  0  0  0  0
   18.9233   19.4897   22.0015 C   0  0  0  0  0  0  0  0  0  0  0  0
   19.3031   20.5199   22.0427 H   0  0  0  0  0  0  0  0  0  0  0  0
   17.8282   19.5648   21.9548 H   0  0  0  0  0  0  0  0  0  0  0  0
   19.3110   18.7389   23.2978 C   0  0  0  0  0  0  0  0  0  0  0  0
   18.9235   17.7114   23.2621 H   0  0  0  0  0  0  0  0  0  0  0  0
   18.8162   19.2274   24.1487 H   0  0  0  0  0  0  0  0  0  0  0  0
   20.8389   18.7075   23.5617 C   0  0  0  0  0  0  0  0  0  0  0  0
   21.3558   18.1462   22.7754 H   0  0  0  0  0  0  0  0  0  0  0  0
   21.2450   19.7261   23.5558 H   0  0  0  0  0  0  0  0  0  0  0  0
   21.1926   18.0652   24.8982 C   0  0  0  0  0  0  0  0  0  0  0  0
   21.2621   18.7807   25.8780 O   0  5  0  0  0  0  0  0  0  0  0  0
   21.3698   16.8633   24.9282 O   0  0  0  0  0  0  0  0  0  0  0  0
  1  2  1  0  0  0  0
  1  3  1  0  0  0  0
  1  4  2  0  0  0  0
  4  5  1  0  0  0  0
  4  6  1  0  0  0  0
  6  7  1  0  0  0  0
  6  8  1  0  0  0  0
  6  9  1  0  0  0  0
  9 10  1  0  0  0  0
  9 11  1  0  0  0  0
  9 12  1  0  0  0  0
 12 13  1  0  0  0  0
 12 14  1  0  0  0  0
 12 15  1  0  0  0  0
 15 16  1  0  0  0  0
 15 17  1  0  0  0  0
 15 18  1  0  0  0  0
 18 19  1  0  0  0  0
 18 20  2  0  0  0  0
M  END
> <VConfSearch Rank>
604

> <Conf_Id>
38

> <Delta U+W>
-0.381

> <U+W>
-52.126

> <U>
7.601

> <W>
-59.727

> <W(PB)>
-61.964

> <W(SA)>
2.236

> <Valence>
9.602

> <Coulomb>
-2.686

> <VdW>
0.685

> <VdW6>
-6.453

> <VdW12>
7.139

> <Bond>
0.125

> <Angle>
2.485

> <Pdih>
6.991

> <Idih>
0.001

> <Tether>
0.000

$$$$
VeraChem MOL file


 20 19  0  0  0  0  0  0  0  0999 V2000     
   21.5846   17.5342   24.5533 C   0  0  0  0  0  0  0  0  0  0  0  0
   22.4902   18.1008   24.3424 H   0  0  0  0  0  0  0  0  0  0  0  0
   21.5033   17.0663   25.5329 H   0  0  0  0  0  0  0  0  0  0  0  0
   20.6084   17.4174   23.6494 C   0  0  0  0  0  0  0  0  0  0  0  0
   19.7094   16.8465   23.8809 H   0  0  0  0  0  0  0  0  0  0  0  0
   20.6509   18.0376   22.2706 C   0  0  0  0  0  0  0  0  0  0  0  0
   20.3779   17.2837   21.5201 H   0  0  0  0  0  0  0  0  0  0  0  0
   21.6719   18.3656   22.0325 H   0  0  0  0  0  0  0  0  0  0  0  0
   19.6880   19.2391   22.1703 C   0  0  0  0  0  0  0  0  0  0  0  0
   18.6673   18.9079   22.4065 H   0  0  0  0  0  0  0  0  0  0  0  0
   19.9612   19.9889   22.9256 H   0  0  0  0  0  0  0  0  0  0  0  0
   19.7170   19.8831   20.7657 C   0  0  0  0  0  0  0  0  0  0  0  0
   19.4339   19.1385   20.0087 H   0  0  0  0  0  0  0  0  0  0  0  0
   20.7435   20.1967   20.5322 H   0  0  0  0  0  0  0  0  0  0  0  0
   18.7777   21.1120   20.6537 C   0  0  0  0  0  0  0  0  0  0  0  0
   19.0301   21.8531   21.4218 H   0  0  0  0  0  0  0  0  0  0  0  0
   18.9251   21.5987   19.6824 H   0  0  0  0  0  0  0  0  0  0  0  0
   17.2949   20.7719   20.7734 C   0  0  0  0  0  0  0  0  0  0  0  0
   16.7235   21.0436   21.8110 O   0  5  0  0  0  0  0  0  0  0  0  0
   16.7478   20.2537   19.8198 O   0  0  0  0  0  0  0  0  0  0  0  0
  1  2  1  0  0  0  0
  1  3  1  0  0  0  0
  1  4  2  0  0  0  0
  4  5  1  0  0  0  0
  4  6  1  0  0  0  0
  6  7  1  0  0  0  0
  6  8  1  0  0  0  0
  6  9  1  0  0  0  0
  9 10  1  0  0  0  0
  9 11  1  0  0  0  0
  9 12  1  0  0  0  0
 12 13  1  0  0  0  0
 12 14  1  0  0  0  0
 12 15  1  0  0  0  0
 15 16  1  0  0  0  0
 15 17  1  0  0  0  0
 15 18  1  0  0  0  0
 18 19  1  0  0  0  0
 18 20  2  0  0  0  0
M  END
> <VConfSearch Rank>
605

> <Conf_Id>
58

> <Delta U+W>
0.019

> <U+W>
-51.727

> <U>
8.963

> <W>
-60.690

> <W(PB)>
-62.934

> <W(SA)>
2.244

> <Valence>
9.327

> <Coulomb>
-0.780

> <VdW>
0.417

> <VdW6>
-6.635

> <VdW12>
7.052

> <Bond>
0.105

> <Angle>
2.399

> <Pdih>
6.822

> <Idih>
0.000

> <Tether>
0.000

$$$$
VeraChem MOL file


 20 19  0  0  0  0  0  0  0  0999 V2000     
   23.1408   19.8405   22.9512 C   0  0  0  0  0  0  0  0  0  0  0  0
   22.9279   20.8519   23.2936 H   0  0  0  0  0  0  0  0  0  0  0  0
   24.1698   19.6092   22.6813 H   0  0  0  0  0  0  0  0  0  0  0  0
   22.1798   18.9173   22.8620 C   0  0  0  0  0  0  0  0  0  0  0  0
   22.4139   17.9108   22.5160 H   0  0  0  0  0  0  0  0  0  0  0  0
   20.7311   19.1644   23.2193 C   0  0  0  0  0  0  0  0  0  0  0  0
   20.6339   20.0985   23.7892 H   0  0  0  0  0  0  0  0  0  0  0  0
   20.3707   18.3573   23.8712 H   0  0  0  0  0  0  0  0  0  0  0  0
   19.8503   19.2393   21.9545 C   0  0  0  0  0  0  0  0  0  0  0  0
   20.2166   20.0445   21.3028 H   0  0  0  0  0  0  0  0  0  0  0  0
   19.9474   18.3031   21.3876 H   0  0  0  0  0  0  0  0  0  0  0  0
   18.3652   19.4885   22.3023 C   0  0  0  0  0  0  0  0  0  0  0  0
   18.2800   20.4177   22.8819 H   0  0  0  0  0  0  0  0  0  0  0  0
   17.9926   18.6792   22.9456 H   0  0  0  0  0  0  0  0  0  0  0  0
   17.4679   19.5975   21.0422 C   0  0  0  0  0  0  0  0  0  0  0  0
   16.4539   19.8907   21.3386 H   0  0  0  0  0  0  0  0  0  0  0  0
   17.8439   20.3834   20.3761 H   0  0  0  0  0  0  0  0  0  0  0  0
   17.3537   18.2993   20.2482 C   0  0  0  0  0  0  0  0  0  0  0  0
   16.6432   17.4183   20.6909 O   0  5  0  0  0  0  0  0  0  0  0  0
   17.9684   18.2069   19.2039 O   0  0  0  0  0  0  0  0  0  0  0  0
  1  2  1  0  0  0  0
  1  3  1  0  0  0  0
  1  4  2  0  0  0  0
  4  5  1  0  0  0  0
  4  6  1  0  0  0  0
  6  7  1  0  0  0  0
  6  8  1  0  0  0  0
  6  9  1  0  0  0  0
  9 10  1  0  0  0  0
  9 11  1  0  0  0  0
  9 12  1  0  0  0  0
 12 13  1  0  0  0  0
 12 14  1  0  0  0  0
 12 15  1  0  0  0  0
 15 16  1  0  0  0  0
 15 17  1  0  0  0  0
 15 18  1  0  0  0  0
 18 19  1  0  0  0  0
 18 20  2  0  0  0  0
M  END
> <VConfSearch Rank>
606

> <Conf_Id>
54

> <Delta U+W>
-0.048

> <U+W>
-51.793

> <U>
8.964

> <W>
-60.756

> <W(PB)>
-63.007

> <W(SA)>
2.251

> <Valence>
9.327

> <Coulomb>
-0.780

> <VdW>
0.417

> <VdW6>
-6.635

> <VdW12>
7.052

> <Bond>
0.105

> <Angle>
2.399

> <Pdih>
6.822

> <Idih>
0.000

> <Tether>
0.000

$$$$
VeraChem MOL file


 20 19  0  0  0  0  0  0  0  0999 V2000     
   17.3901   16.9517   23.0739 C   0  0  0  0  0  0  0  0  0  0  0  0
   17.4139   15.9227   23.4285 H   0  0  0  0  0  0  0  0  0  0  0  0
   16.6936   17.6333   23.5597 H   0  0  0  0  0  0  0  0  0  0  0  0
   18.1878   17.3590   22.0833 C   0  0  0  0  0  0  0  0  0  0  0  0
   18.8751   16.6595   21.6084 H   0  0  0  0  0  0  0  0  0  0  0  0
   18.2046   18.7698   21.5344 C   0  0  0  0  0  0  0  0  0  0  0  0
   17.2688   19.2806   21.7986 H   0  0  0  0  0  0  0  0  0  0  0  0
   18.2412   18.7442   20.4371 H   0  0  0  0  0  0  0  0  0  0  0  0
   19.3907   19.5989   22.0765 C   0  0  0  0  0  0  0  0  0  0  0  0
   19.2673   20.6415   21.7530 H   0  0  0  0  0  0  0  0  0  0  0  0
   19.3596   19.6065   23.1747 H   0  0  0  0  0  0  0  0  0  0  0  0
   20.7634   19.0718   21.5947 C   0  0  0  0  0  0  0  0  0  0  0  0
   20.7896   19.0503   20.4964 H   0  0  0  0  0  0  0  0  0  0  0  0
   20.8985   18.0366   21.9347 H   0  0  0  0  0  0  0  0  0  0  0  0
   21.9469   19.9254   22.1201 C   0  0  0  0  0  0  0  0  0  0  0  0
   21.9147   19.9841   23.2148 H   0  0  0  0  0  0  0  0  0  0  0  0
   22.8939   19.4404   21.8560 H   0  0  0  0  0  0  0  0  0  0  0  0
   21.9882   21.3431   21.5569 C   0  0  0  0  0  0  0  0  0  0  0  0
   21.6412   22.2591   22.2763 O   0  5  0  0  0  0  0  0  0  0  0  0
   22.3771   21.4944   20.4154 O   0  0  0  0  0  0  0  0  0  0  0  0
  1  2  1  0  0  0  0
  1  3  1  0  0  0  0
  1  4  2  0  0  0  0
  4  5  1  0  0  0  0
  4  6  1  0  0  0  0
  6  7  1  0  0  0  0
  6  8  1  0  0  0  0
  6  9  1  0  0  0  0
  9 10  1  0  0  0  0
  9 11  1  0  0  0  0
  9 12  1  0  0  0  0
 12 13  1  0  0  0  0
 12 14  1  0  0  0  0
 12 15  1  0  0  0  0
 15 16  1  0  0  0  0
 15 17  1  0  0  0  0
 15 18  1  0  0  0  0
 18 19  1  0  0  0  0
 18 20  2  0  0  0  0
M  END
> <VConfSearch Rank>
607

> <Conf_Id>
27

> <Delta U+W>
0.478

> <U+W>
-51.267

> <U>
9.192

> <W>
-60.459

> <W(PB)>
-62.649

> <W(SA)>
2.190

> <Valence>
9.572

> <Coulomb>
-0.884

> <VdW>
0.504

> <VdW6>
-7.168

> <VdW12>
7.672

> <Bond>
0.127

> <Angle>
2.504

> <Pdih>
6.941

> <Idih>
0.001

> <Tether>
0.000

$$$$
VeraChem MOL file


 20 19  0  0  0  0  0  0  0  0999 V2000     
   18.9596   19.6186   18.7588 C   0  0  0  0  0  0  0  0  0  0  0  0
   18.6139   18.7082   18.2719 H   0  0  0  0  0  0  0  0  0  0  0  0
   19.4510   20.3643   18.1362 H   0  0  0  0  0  0  0  0  0  0  0  0
   18.7922   19.8154   20.0691 C   0  0  0  0  0  0  0  0  0  0  0  0
   19.1431   20.7353   20.5358 H   0  0  0  0  0  0  0  0  0  0  0  0
   18.1138   18.8279   20.9946 C   0  0  0  0  0  0  0  0  0  0  0  0
   17.4969   18.1340   20.4076 H   0  0  0  0  0  0  0  0  0  0  0  0
   17.4256   19.3573   21.6670 H   0  0  0  0  0  0  0  0  0  0  0  0
   19.1271   18.0083   21.8250 C   0  0  0  0  0  0  0  0  0  0  0  0
   18.5845   17.2256   22.3726 H   0  0  0  0  0  0  0  0  0  0  0  0
   19.8224   17.4937   21.1475 H   0  0  0  0  0  0  0  0  0  0  0  0
   19.9200   18.8742   22.8307 C   0  0  0  0  0  0  0  0  0  0  0  0
   19.2224   19.4083   23.4907 H   0  0  0  0  0  0  0  0  0  0  0  0
   20.4991   19.6375   22.2935 H   0  0  0  0  0  0  0  0  0  0  0  0
   20.8846   18.0201   23.6899 C   0  0  0  0  0  0  0  0  0  0  0  0
   20.3238   17.2611   24.2484 H   0  0  0  0  0  0  0  0  0  0  0  0
   21.5958   17.4895   23.0456 H   0  0  0  0  0  0  0  0  0  0  0  0
   21.6801   18.8516   24.6898 C   0  0  0  0  0  0  0  0  0  0  0  0
   22.7516   19.3032   24.3366 O   0  5  0  0  0  0  0  0  0  0  0  0
   21.1992   19.0406   25.7897 O   0  0  0  0  0  0  0  0  0  0  0  0
  1  2  1  0  0  0  0
  1  3  1  0  0  0  0
  1  4  2  0  0  0  0
  4  5  1  0  0  0  0
  4  6  1  0  0  0  0
  6  7  1  0  0  0  0
  6  8  1  0  0  0  0
  6  9  1  0  0  0  0
  9 10  1  0  0  0  0
  9 11  1  0  0  0  0
  9 12  1  0  0  0  0
 12 13  1  0  0  0  0
 12 14  1  0  0  0  0
 12 15  1  0  0  0  0
 15 16  1  0  0  0  0
 15 17  1  0  0  0  0
 15 18  1  0  0  0  0
 18 19  1  0  0  0  0
 18 20  2  0  0  0  0
M  END
> <VConfSearch Rank>
608

> <Conf_Id>
41

> <Delta U+W>
-0.634

> <U+W>
-52.379

> <U>
7.828

> <W>
-60.207

> <W(PB)>
-62.449

> <W(SA)>
2.242

> <Valence>
9.300

> <Coulomb>
-2.080

> <VdW>
0.608

> <VdW6>
-6.341

> <VdW12>
6.949

> <Bond>
0.103

> <Angle>
2.334

> <Pdih>
6.862

> <Idih>
0.001

> <Tether>
0.000

$$$$
VeraChem MOL file


 20 19  0  0  0  0  0  0  0  0999 V2000     
   20.9572   22.1502   21.4874 C   0  0  0  0  0  0  0  0  0  0  0  0
   20.7820   23.0576   20.9119 H   0  0  0  0  0  0  0  0  0  0  0  0
   21.5414   22.2417   22.4016 H   0  0  0  0  0  0  0  0  0  0  0  0
   20.4706   20.9732   21.0853 C   0  0  0  0  0  0  0  0  0  0  0  0
   19.8875   20.9029   20.1673 H   0  0  0  0  0  0  0  0  0  0  0  0
   20.6733   19.6726   21.8302 C   0  0  0  0  0  0  0  0  0  0  0  0
   21.4683   19.7836   22.5799 H   0  0  0  0  0  0  0  0  0  0  0  0
   21.0063   18.9016   21.1234 H   0  0  0  0  0  0  0  0  0  0  0  0
   19.3686   19.2218   22.5243 C   0  0  0  0  0  0  0  0  0  0  0  0
   18.9976   20.0447   23.1506 H   0  0  0  0  0  0  0  0  0  0  0  0
   18.5943   19.0376   21.7668 H   0  0  0  0  0  0  0  0  0  0  0  0
   19.5428   17.9658   23.4133 C   0  0  0  0  0  0  0  0  0  0  0  0
   18.5929   17.7614   23.9266 H   0  0  0  0  0  0  0  0  0  0  0  0
   20.2780   18.1793   24.2009 H   0  0  0  0  0  0  0  0  0  0  0  0
   19.9779   16.6891   22.6432 C   0  0  0  0  0  0  0  0  0  0  0  0
   20.9604   16.8326   22.1793 H   0  0  0  0  0  0  0  0  0  0  0  0
   20.0875   15.8586   23.3503 H   0  0  0  0  0  0  0  0  0  0  0  0
   18.9905   16.2428   21.5687 C   0  0  0  0  0  0  0  0  0  0  0  0
   17.9384   15.7508   21.9270 O   0  5  0  0  0  0  0  0  0  0  0  0
   19.3057   16.3817   20.4032 O   0  0  0  0  0  0  0  0  0  0  0  0
  1  2  1  0  0  0  0
  1  3  1  0  0  0  0
  1  4  2  0  0  0  0
  4  5  1  0  0  0  0
  4  6  1  0  0  0  0
  6  7  1  0  0  0  0
  6  8  1  0  0  0  0
  6  9  1  0  0  0  0
  9 10  1  0  0  0  0
  9 11  1  0  0  0  0
  9 12  1  0  0  0  0
 12 13  1  0  0  0  0
 12 14  1  0  0  0  0
 12 15  1  0  0  0  0
 15 16  1  0  0  0  0
 15 17  1  0  0  0  0
 15 18  1  0  0  0  0
 18 19  1  0  0  0  0
 18 20  2  0  0  0  0
M  END
> <VConfSearch Rank>
609

> <Conf_Id>
84

> <Delta U+W>
0.942

> <U+W>
-50.803

> <U>
10.196

> <W>
-60.999

> <W(PB)>
-63.182

> <W(SA)>
2.182

> <Valence>
9.837

> <Coulomb>
0.032

> <VdW>
0.328

> <VdW6>
-7.642

> <VdW12>
7.969

> <Bond>
0.151

> <Angle>
2.748

> <Pdih>
6.937

> <Idih>
0.001

> <Tether>
0.000

$$$$
VeraChem MOL file


 20 19  0  0  0  0  0  0  0  0999 V2000     
   21.1165   20.9127   24.7335 C   0  0  0  0  0  0  0  0  0  0  0  0
   21.4504   21.8754   25.1169 H   0  0  0  0  0  0  0  0  0  0  0  0
   20.5332   20.2819   25.4025 H   0  0  0  0  0  0  0  0  0  0  0  0
   21.4109   20.5255   23.4897 C   0  0  0  0  0  0  0  0  0  0  0  0
   21.9953   21.1724   22.8357 H   0  0  0  0  0  0  0  0  0  0  0  0
   20.9832   19.2048   22.8893 C   0  0  0  0  0  0  0  0  0  0  0  0
   20.6345   18.5238   23.6776 H   0  0  0  0  0  0  0  0  0  0  0  0
   21.8465   18.7213   22.4128 H   0  0  0  0  0  0  0  0  0  0  0  0
   19.8610   19.4029   21.8488 C   0  0  0  0  0  0  0  0  0  0  0  0
   19.0033   19.8927   22.3306 H   0  0  0  0  0  0  0  0  0  0  0  0
   20.2104   20.0807   21.0579 H   0  0  0  0  0  0  0  0  0  0  0  0
   19.4146   18.0623   21.2229 C   0  0  0  0  0  0  0  0  0  0  0  0
   19.0513   17.3868   22.0099 H   0  0  0  0  0  0  0  0  0  0  0  0
   20.2820   17.5716   20.7608 H   0  0  0  0  0  0  0  0  0  0  0  0
   18.3089   18.2435   20.1508 C   0  0  0  0  0  0  0  0  0  0  0  0
   18.6467   18.9371   19.3714 H   0  0  0  0  0  0  0  0  0  0  0  0
   18.1146   17.2832   19.6588 H   0  0  0  0  0  0  0  0  0  0  0  0
   16.9807   18.7470   20.7087 C   0  0  0  0  0  0  0  0  0  0  0  0
   16.6756   19.9067   20.5111 O   0  5  0  0  0  0  0  0  0  0  0  0
   16.2800   17.9609   21.3156 O   0  0  0  0  0  0  0  0  0  0  0  0
  1  2  1  0  0  0  0
  1  3  1  0  0  0  0
  1  4  2  0  0  0  0
  4  5  1  0  0  0  0
  4  6  1  0  0  0  0
  6  7  1  0  0  0  0
  6  8  1  0  0  0  0
  6  9  1  0  0  0  0
  9 10  1  0  0  0  0
  9 11  1  0  0  0  0
  9 12  1  0  0  0  0
 12 13  1  0  0  0  0
 12 14  1  0  0  0  0
 12 15  1  0  0  0  0
 15 16  1  0  0  0  0
 15 17  1  0  0  0  0
 15 18  1  0  0  0  0
 18 19  1  0  0  0  0
 18 20  2  0  0  0  0
M  END
> <VConfSearch Rank>
610

> <Conf_Id>
81

> <Delta U+W>
-0.051

> <U+W>
-51.796

> <U>
9.412

> <W>
-61.209

> <W(PB)>
-63.452

> <W(SA)>
2.243

> <Valence>
9.329

> <Coulomb>
-0.323

> <VdW>
0.406

> <VdW6>
-6.640

> <VdW12>
7.046

> <Bond>
0.105

> <Angle>
2.401

> <Pdih>
6.823

> <Idih>
0.000

> <Tether>
0.000

$$$$
VeraChem MOL file


 20 19  0  0  0  0  0  0  0  0999 V2000     
   18.0310   19.9095   19.3489 C   0  0  0  0  0  0  0  0  0  0  0  0
   17.7269   20.9492   19.4579 H   0  0  0  0  0  0  0  0  0  0  0  0
   17.9870   19.4763   18.3511 H   0  0  0  0  0  0  0  0  0  0  0  0
   18.4454   19.1908   20.3956 C   0  0  0  0  0  0  0  0  0  0  0  0
   18.7431   18.1508   20.2654 H   0  0  0  0  0  0  0  0  0  0  0  0
   18.5278   19.7228   21.8104 C   0  0  0  0  0  0  0  0  0  0  0  0
   18.1102   18.9902   22.5132 H   0  0  0  0  0  0  0  0  0  0  0  0
   17.9010   20.6195   21.9059 H   0  0  0  0  0  0  0  0  0  0  0  0
   19.9742   20.0889   22.2210 C   0  0  0  0  0  0  0  0  0  0  0  0
   20.3392   20.8849   21.5578 H   0  0  0  0  0  0  0  0  0  0  0  0
   19.9592   20.5185   23.2321 H   0  0  0  0  0  0  0  0  0  0  0  0
   20.9777   18.9076   22.1825 C   0  0  0  0  0  0  0  0  0  0  0  0
   21.9720   19.2814   22.4634 H   0  0  0  0  0  0  0  0  0  0  0  0
   21.0718   18.5402   21.1520 H   0  0  0  0  0  0  0  0  0  0  0  0
   20.6102   17.7213   23.1151 C   0  0  0  0  0  0  0  0  0  0  0  0
   19.6557   17.2748   22.8142 H   0  0  0  0  0  0  0  0  0  0  0  0
   21.3660   16.9337   23.0155 H   0  0  0  0  0  0  0  0  0  0  0  0
   20.5322   18.0921   24.5933 C   0  0  0  0  0  0  0  0  0  0  0  0
   19.4380   18.1308   25.1209 O   0  5  0  0  0  0  0  0  0  0  0  0
   21.5714   18.3157   25.1829 O   0  0  0  0  0  0  0  0  0  0  0  0
  1  2  1  0  0  0  0
  1  3  1  0  0  0  0
  1  4  2  0  0  0  0
  4  5  1  0  0  0  0
  4  6  1  0  0  0  0
  6  7  1  0  0  0  0
  6  8  1  0  0  0  0
  6  9  1  0  0  0  0
  9 10  1  0  0  0  0
  9 11  1  0  0  0  0
  9 12  1  0  0  0  0
 12 13  1  0  0  0  0
 12 14  1  0  0  0  0
 12 15  1  0  0  0  0
 15 16  1  0  0  0  0
 15 17  1  0  0  0  0
 15 18  1  0  0  0  0
 18 19  1  0  0  0  0
 18 20  2  0  0  0  0
M  END
> <VConfSearch Rank>
611

> <Conf_Id>
86

> <Delta U+W>
1.248

> <U+W>
-50.498

> <U>
10.404

> <W>
-60.901

> <W(PB)>
-63.061

> <W(SA)>
2.159

> <Valence>
10.021

> <Coulomb>
0.094

> <VdW>
0.289

> <VdW6>
-8.409

> <VdW12>
8.698

> <Bond>
0.179

> <Angle>
2.939

> <Pdih>
6.902

> <Idih>
0.001

> <Tether>
0.000

$$$$
VeraChem MOL file


 20 19  0  0  0  0  0  0  0  0999 V2000     
   19.4826   21.4231   24.0364 C   0  0  0  0  0  0  0  0  0  0  0  0
   18.7926   22.2429   24.2284 H   0  0  0  0  0  0  0  0  0  0  0  0
   19.6538   20.7126   24.8435 H   0  0  0  0  0  0  0  0  0  0  0  0
   20.0909   21.2953   22.8542 C   0  0  0  0  0  0  0  0  0  0  0  0
   19.9041   22.0162   22.0587 H   0  0  0  0  0  0  0  0  0  0  0  0
   21.0607   20.1837   22.5137 C   0  0  0  0  0  0  0  0  0  0  0  0
   21.3457   19.6284   23.4176 H   0  0  0  0  0  0  0  0  0  0  0  0
   21.9850   20.6237   22.1163 H   0  0  0  0  0  0  0  0  0  0  0  0
   20.4854   19.2036   21.4665 C   0  0  0  0  0  0  0  0  0  0  0  0
   20.1965   19.7588   20.5636 H   0  0  0  0  0  0  0  0  0  0  0  0
   21.2781   18.5056   21.1642 H   0  0  0  0  0  0  0  0  0  0  0  0
   19.2734   18.4037   22.0001 C   0  0  0  0  0  0  0  0  0  0  0  0
   18.4775   19.1000   22.2963 H   0  0  0  0  0  0  0  0  0  0  0  0
   19.5618   17.8516   22.9054 H   0  0  0  0  0  0  0  0  0  0  0  0
   18.7048   17.4122   20.9520 C   0  0  0  0  0  0  0  0  0  0  0  0
   17.7801   16.9648   21.3351 H   0  0  0  0  0  0  0  0  0  0  0  0
   18.4415   17.9453   20.0304 H   0  0  0  0  0  0  0  0  0  0  0  0
   19.6529   16.2694   20.6003 C   0  0  0  0  0  0  0  0  0  0  0  0
   19.7735   15.3598   21.3973 O   0  5  0  0  0  0  0  0  0  0  0  0
   20.2367   16.3124   19.5352 O   0  0  0  0  0  0  0  0  0  0  0  0
  1  2  1  0  0  0  0
  1  3  1  0  0  0  0
  1  4  2  0  0  0  0
  4  5  1  0  0  0  0
  4  6  1  0  0  0  0
  6  7  1  0  0  0  0
  6  8  1  0  0  0  0
  6  9  1  0  0  0  0
  9 10  1  0  0  0  0
  9 11  1  0  0  0  0
  9 12  1  0  0  0  0
 12 13  1  0  0  0  0
 12 14  1  0  0  0  0
 12 15  1  0  0  0  0
 15 16  1  0  0  0  0
 15 17  1  0  0  0  0
 15 18  1  0  0  0  0
 18 19  1  0  0  0  0
 18 20  2  0  0  0  0
M  END
> <VConfSearch Rank>
612

> <Conf_Id>
28

> <Delta U+W>
0.446

> <U+W>
-51.299

> <U>
9.295

> <W>
-60.594

> <W(PB)>
-62.806

> <W(SA)>
2.212

> <Valence>
9.495

> <Coulomb>
-0.610

> <VdW>
0.409

> <VdW6>
-7.332

> <VdW12>
7.741

> <Bond>
0.126

> <Angle>
2.497

> <Pdih>
6.872

> <Idih>
0.000

> <Tether>
0.000

$$$$
VeraChem MOL file


 20 19  0  0  0  0  0  0  0  0999 V2000     
   19.9677   16.3523   23.3314 C   0  0  0  0  0  0  0  0  0  0  0  0
   20.9730   16.7678   23.3472 H   0  0  0  0  0  0  0  0  0  0  0  0
   19.8226   15.3977   23.8343 H   0  0  0  0  0  0  0  0  0  0  0  0
   18.9443   16.9710   22.7315 C   0  0  0  0  0  0  0  0  0  0  0  0
   17.9590   16.5059   22.7513 H   0  0  0  0  0  0  0  0  0  0  0  0
   18.9913   18.2981   21.9924 C   0  0  0  0  0  0  0  0  0  0  0  0
   18.3287   19.0050   22.5080 H   0  0  0  0  0  0  0  0  0  0  0  0
   18.5604   18.1583   20.9922 H   0  0  0  0  0  0  0  0  0  0  0  0
   20.4040   18.9168   21.8501 C   0  0  0  0  0  0  0  0  0  0  0  0
   20.8096   19.1435   22.8457 H   0  0  0  0  0  0  0  0  0  0  0  0
   21.0758   18.1744   21.3982 H   0  0  0  0  0  0  0  0  0  0  0  0
   20.4336   20.1931   20.9731 C   0  0  0  0  0  0  0  0  0  0  0  0
   20.0739   19.9478   19.9647 H   0  0  0  0  0  0  0  0  0  0  0  0
   21.4771   20.5170   20.8564 H   0  0  0  0  0  0  0  0  0  0  0  0
   19.6043   21.3804   21.5346 C   0  0  0  0  0  0  0  0  0  0  0  0
   19.6755   22.2300   20.8456 H   0  0  0  0  0  0  0  0  0  0  0  0
   18.5420   21.1177   21.5933 H   0  0  0  0  0  0  0  0  0  0  0  0
   20.0638   21.8695   22.9052 C   0  0  0  0  0  0  0  0  0  0  0  0
   21.1249   22.4581   22.9770 O   0  5  0  0  0  0  0  0  0  0  0  0
   19.3403   21.6683   23.8607 O   0  0  0  0  0  0  0  0  0  0  0  0
  1  2  1  0  0  0  0
  1  3  1  0  0  0  0
  1  4  2  0  0  0  0
  4  5  1  0  0  0  0
  4  6  1  0  0  0  0
  6  7  1  0  0  0  0
  6  8  1  0  0  0  0
  6  9  1  0  0  0  0
  9 10  1  0  0  0  0
  9 11  1  0  0  0  0
  9 12  1  0  0  0  0
 12 13  1  0  0  0  0
 12 14  1  0  0  0  0
 12 15  1  0  0  0  0
 15 16  1  0  0  0  0
 15 17  1  0  0  0  0
 15 18  1  0  0  0  0
 18 19  1  0  0  0  0
 18 20  2  0  0  0  0
M  END
> <VConfSearch Rank>
613

> <Conf_Id>
53

> <Delta U+W>
0.549

> <U+W>
-51.197

> <U>
10.870

> <W>
-62.067

> <W(PB)>
-64.228

> <W(SA)>
2.161

> <Valence>
8.803

> <Coulomb>
1.020

> <VdW>
1.048

> <VdW6>
-8.312

> <VdW12>
9.360

> <Bond>
0.212

> <Angle>
3.379

> <Pdih>
5.211

> <Idih>
0.001

> <Tether>
0.000

$$$$
VeraChem MOL file


 20 19  0  0  0  0  0  0  0  0999 V2000     
   17.8856   20.3587   23.6068 C   0  0  0  0  0  0  0  0  0  0  0  0
   17.9294   19.4403   24.1881 H   0  0  0  0  0  0  0  0  0  0  0  0
   16.9618   20.9321   23.6576 H   0  0  0  0  0  0  0  0  0  0  0  0
   18.9144   20.7807   22.8637 C   0  0  0  0  0  0  0  0  0  0  0  0
   18.8194   21.7098   22.3024 H   0  0  0  0  0  0  0  0  0  0  0  0
   20.2534   20.0813   22.6970 C   0  0  0  0  0  0  0  0  0  0  0  0
   20.9828   20.5533   23.3683 H   0  0  0  0  0  0  0  0  0  0  0  0
   20.6357   20.2778   21.6871 H   0  0  0  0  0  0  0  0  0  0  0  0
   20.2525   18.5496   22.9411 C   0  0  0  0  0  0  0  0  0  0  0  0
   21.2849   18.1826   22.8624 H   0  0  0  0  0  0  0  0  0  0  0  0
   19.9454   18.3450   23.9751 H   0  0  0  0  0  0  0  0  0  0  0  0
   19.3563   17.7371   21.9698 C   0  0  0  0  0  0  0  0  0  0  0  0
   18.3091   18.0428   22.0904 H   0  0  0  0  0  0  0  0  0  0  0  0
   19.3988   16.6772   22.2558 H   0  0  0  0  0  0  0  0  0  0  0  0
   19.7488   17.8640   20.4724 C   0  0  0  0  0  0  0  0  0  0  0  0
   19.0615   17.2633   19.8654 H   0  0  0  0  0  0  0  0  0  0  0  0
   19.6383   18.8995   20.1312 H   0  0  0  0  0  0  0  0  0  0  0  0
   21.1650   17.3921   20.1561 C   0  0  0  0  0  0  0  0  0  0  0  0
   22.0033   18.2281   19.8812 O   0  5  0  0  0  0  0  0  0  0  0  0
   21.3880   16.1974   20.1756 O   0  0  0  0  0  0  0  0  0  0  0  0
  1  2  1  0  0  0  0
  1  3  1  0  0  0  0
  1  4  2  0  0  0  0
  4  5  1  0  0  0  0
  4  6  1  0  0  0  0
  6  7  1  0  0  0  0
  6  8  1  0  0  0  0
  6  9  1  0  0  0  0
  9 10  1  0  0  0  0
  9 11  1  0  0  0  0
  9 12  1  0  0  0  0
 12 13  1  0  0  0  0
 12 14  1  0  0  0  0
 12 15  1  0  0  0  0
 15 16  1  0  0  0  0
 15 17  1  0  0  0  0
 15 18  1  0  0  0  0
 18 19  1  0  0  0  0
 18 20  2  0  0  0  0
M  END
> <VConfSearch Rank>
614

> <Conf_Id>
66

> <Delta U+W>
1.737

> <U+W>
-50.008

> <U>
11.091

> <W>
-61.099

> <W(PB)>
-63.213

> <W(SA)>
2.114

> <Valence>
9.664

> <Coulomb>
0.658

> <VdW>
0.769

> <VdW6>
-9.171

> <VdW12>
9.940

> <Bond>
0.244

> <Angle>
3.658

> <Pdih>
5.762

> <Idih>
0.001

> <Tether>
0.000

$$$$
VeraChem MOL file


 20 19  0  0  0  0  0  0  0  0999 V2000     
   17.4926   20.5757   22.8285 C   0  0  0  0  0  0  0  0  0  0  0  0
   17.0753   19.5738   22.8999 H   0  0  0  0  0  0  0  0  0  0  0  0
   17.1789   21.2960   23.5819 H   0  0  0  0  0  0  0  0  0  0  0  0
   18.3488   20.9245   21.8619 C   0  0  0  0  0  0  0  0  0  0  0  0
   18.7343   21.9433   21.8362 H   0  0  0  0  0  0  0  0  0  0  0  0
   18.8759   20.0276   20.7535 C   0  0  0  0  0  0  0  0  0  0  0  0
   19.9102   20.3144   20.5263 H   0  0  0  0  0  0  0  0  0  0  0  0
   18.3168   20.2429   19.8334 H   0  0  0  0  0  0  0  0  0  0  0  0
   18.8261   18.5027   21.0335 C   0  0  0  0  0  0  0  0  0  0  0  0
   17.7855   18.1972   21.2047 H   0  0  0  0  0  0  0  0  0  0  0  0
   19.1463   17.9684   20.1287 H   0  0  0  0  0  0  0  0  0  0  0  0
   19.7021   18.0334   22.2231 C   0  0  0  0  0  0  0  0  0  0  0  0
   19.5267   16.9609   22.3848 H   0  0  0  0  0  0  0  0  0  0  0  0
   19.3901   18.5382   23.1469 H   0  0  0  0  0  0  0  0  0  0  0  0
   21.2202   18.2606   22.0024 C   0  0  0  0  0  0  0  0  0  0  0  0
   21.5384   17.8052   21.0572 H   0  0  0  0  0  0  0  0  0  0  0  0
   21.4439   19.3316   21.9410 H   0  0  0  0  0  0  0  0  0  0  0  0
   22.0732   17.6716   23.1204 C   0  0  0  0  0  0  0  0  0  0  0  0
   22.3553   18.3831   24.0643 O   0  5  0  0  0  0  0  0  0  0  0  0
   22.4215   16.5113   23.0248 O   0  0  0  0  0  0  0  0  0  0  0  0
  1  2  1  0  0  0  0
  1  3  1  0  0  0  0
  1  4  2  0  0  0  0
  4  5  1  0  0  0  0
  4  6  1  0  0  0  0
  6  7  1  0  0  0  0
  6  8  1  0  0  0  0
  6  9  1  0  0  0  0
  9 10  1  0  0  0  0
  9 11  1  0  0  0  0
  9 12  1  0  0  0  0
 12 13  1  0  0  0  0
 12 14  1  0  0  0  0
 12 15  1  0  0  0  0
 15 16  1  0  0  0  0
 15 17  1  0  0  0  0
 15 18  1  0  0  0  0
 18 19  1  0  0  0  0
 18 20  2  0  0  0  0
M  END
> <VConfSearch Rank>
615

> <Conf_Id>
64

> <Delta U+W>
0.366

> <U+W>
-51.379

> <U>
10.000

> <W>
-61.379

> <W(PB)>
-63.541

> <W(SA)>
2.162

> <Valence>
9.398

> <Coulomb>
-0.504

> <VdW>
1.105

> <VdW6>
-7.975

> <VdW12>
9.080

> <Bond>
0.216

> <Angle>
3.417

> <Pdih>
5.765

> <Idih>
0.001

> <Tether>
0.000

$$$$
VeraChem MOL file


 20 19  0  0  0  0  0  0  0  0999 V2000     
   21.4424   18.1908   19.5978 C   0  0  0  0  0  0  0  0  0  0  0  0
   21.9594   19.1489   19.6128 H   0  0  0  0  0  0  0  0  0  0  0  0
   21.1565   17.7908   18.6265 H   0  0  0  0  0  0  0  0  0  0  0  0
   21.1645   17.5306   20.7251 C   0  0  0  0  0  0  0  0  0  0  0  0
   20.6440   16.5740   20.6882 H   0  0  0  0  0  0  0  0  0  0  0  0
   21.5290   18.0229   22.1096 C   0  0  0  0  0  0  0  0  0  0  0  0
   22.2193   18.8751   22.0476 H   0  0  0  0  0  0  0  0  0  0  0  0
   22.0662   17.2275   22.6432 H   0  0  0  0  0  0  0  0  0  0  0  0
   20.2858   18.4249   22.9346 C   0  0  0  0  0  0  0  0  0  0  0  0
   19.5951   17.5727   22.9959 H   0  0  0  0  0  0  0  0  0  0  0  0
   20.6001   18.6498   23.9630 H   0  0  0  0  0  0  0  0  0  0  0  0
   19.5521   19.6525   22.3478 C   0  0  0  0  0  0  0  0  0  0  0  0
   19.2088   19.4308   21.3279 H   0  0  0  0  0  0  0  0  0  0  0  0
   20.2491   20.4985   22.2714 H   0  0  0  0  0  0  0  0  0  0  0  0
   18.3371   20.0662   23.2141 C   0  0  0  0  0  0  0  0  0  0  0  0
   17.6256   19.2351   23.2893 H   0  0  0  0  0  0  0  0  0  0  0  0
   18.6627   20.3079   24.2329 H   0  0  0  0  0  0  0  0  0  0  0  0
   17.5961   21.2756   22.6552 C   0  0  0  0  0  0  0  0  0  0  0  0
   17.9669   22.3822   22.9938 O   0  5  0  0  0  0  0  0  0  0  0  0
   16.6766   21.0799   21.8851 O   0  0  0  0  0  0  0  0  0  0  0  0
  1  2  1  0  0  0  0
  1  3  1  0  0  0  0
  1  4  2  0  0  0  0
  4  5  1  0  0  0  0
  4  6  1  0  0  0  0
  6  7  1  0  0  0  0
  6  8  1  0  0  0  0
  6  9  1  0  0  0  0
  9 10  1  0  0  0  0
  9 11  1  0  0  0  0
  9 12  1  0  0  0  0
 12 13  1  0  0  0  0
 12 14  1  0  0  0  0
 12 15  1  0  0  0  0
 15 16  1  0  0  0  0
 15 17  1  0  0  0  0
 15 18  1  0  0  0  0
 18 19  1  0  0  0  0
 18 20  2  0  0  0  0
M  END
> <VConfSearch Rank>
616

> <Conf_Id>
42

> <Delta U+W>
-0.601

> <U+W>
-52.347

> <U>
8.428

> <W>
-60.774

> <W(PB)>
-62.982

> <W(SA)>
2.208

> <Valence>
9.231

> <Coulomb>
-1.304

> <VdW>
0.501

> <VdW6>
-6.515

> <VdW12>
7.016

> <Bond>
0.103

> <Angle>
2.328

> <Pdih>
6.799

> <Idih>
0.000

> <Tether>
0.000

$$$$
VeraChem MOL file


 20 19  0  0  0  0  0  0  0  0999 V2000     
   17.8296   16.9844   22.8591 C   0  0  0  0  0  0  0  0  0  0  0  0
   17.8541   16.5171   21.8761 H   0  0  0  0  0  0  0  0  0  0  0  0
   16.8846   16.9664   23.3992 H   0  0  0  0  0  0  0  0  0  0  0  0
   18.9136   17.5620   23.3839 C   0  0  0  0  0  0  0  0  0  0  0  0
   18.8670   18.0269   24.3684 H   0  0  0  0  0  0  0  0  0  0  0  0
   20.2593   17.6278   22.6937 C   0  0  0  0  0  0  0  0  0  0  0  0
   20.2730   16.9756   21.8099 H   0  0  0  0  0  0  0  0  0  0  0  0
   21.0308   17.2436   23.3741 H   0  0  0  0  0  0  0  0  0  0  0  0
   20.6343   19.0682   22.2782 C   0  0  0  0  0  0  0  0  0  0  0  0
   20.6266   19.7174   23.1647 H   0  0  0  0  0  0  0  0  0  0  0  0
   21.6646   19.0715   21.8971 H   0  0  0  0  0  0  0  0  0  0  0  0
   19.6898   19.6420   21.1956 C   0  0  0  0  0  0  0  0  0  0  0  0
   18.6609   19.6836   21.5789 H   0  0  0  0  0  0  0  0  0  0  0  0
   19.6768   18.9647   20.3311 H   0  0  0  0  0  0  0  0  0  0  0  0
   20.1155   21.0560   20.7221 C   0  0  0  0  0  0  0  0  0  0  0  0
   21.1497   21.0387   20.3577 H   0  0  0  0  0  0  0  0  0  0  0  0
   19.4868   21.3645   19.8786 H   0  0  0  0  0  0  0  0  0  0  0  0
   19.9966   22.1316   21.7982 C   0  0  0  0  0  0  0  0  0  0  0  0
   21.0121   22.5109   22.3478 O   0  5  0  0  0  0  0  0  0  0  0  0
   18.8922   22.5747   22.0453 O   0  0  0  0  0  0  0  0  0  0  0  0
  1  2  1  0  0  0  0
  1  3  1  0  0  0  0
  1  4  2  0  0  0  0
  4  5  1  0  0  0  0
  4  6  1  0  0  0  0
  6  7  1  0  0  0  0
  6  8  1  0  0  0  0
  6  9  1  0  0  0  0
  9 10  1  0  0  0  0
  9 11  1  0  0  0  0
  9 12  1  0  0  0  0
 12 13  1  0  0  0  0
 12 14  1  0  0  0  0
 12 15  1  0  0  0  0
 15 16  1  0  0  0  0
 15 17  1  0  0  0  0
 15 18  1  0  0  0  0
 18 19  1  0  0  0  0
 18 20  2  0  0  0  0
M  END
> <VConfSearch Rank>
617

> <Conf_Id>
68

> <Delta U+W>
0.492

> <U+W>
-51.253

> <U>
10.179

> <W>
-61.432

> <W(PB)>
-63.627

> <W(SA)>
2.195

> <Valence>
9.483

> <Coulomb>
0.361

> <VdW>
0.335

> <VdW6>
-7.385

> <VdW12>
7.720

> <Bond>
0.125

> <Angle>
2.487

> <Pdih>
6.870

> <Idih>
0.001

> <Tether>
0.000

$$$$
VeraChem MOL file


 20 19  0  0  0  0  0  0  0  0999 V2000     
   18.5146   16.3546   21.3632 C   0  0  0  0  0  0  0  0  0  0  0  0
   18.5906   15.8213   22.3094 H   0  0  0  0  0  0  0  0  0  0  0  0
   18.6340   15.7743   20.4498 H   0  0  0  0  0  0  0  0  0  0  0  0
   18.2875   17.6700   21.3203 C   0  0  0  0  0  0  0  0  0  0  0  0
   18.2125   18.1837   20.3624 H   0  0  0  0  0  0  0  0  0  0  0  0
   18.1056   18.5391   22.5465 C   0  0  0  0  0  0  0  0  0  0  0  0
   17.8520   17.9112   23.4113 H   0  0  0  0  0  0  0  0  0  0  0  0
   17.2555   19.2188   22.4004 H   0  0  0  0  0  0  0  0  0  0  0  0
   19.3743   19.3551   22.8824 C   0  0  0  0  0  0  0  0  0  0  0  0
   19.2258   19.8598   23.8467 H   0  0  0  0  0  0  0  0  0  0  0  0
   20.2226   18.6693   23.0156 H   0  0  0  0  0  0  0  0  0  0  0  0
   19.7133   20.4111   21.8037 C   0  0  0  0  0  0  0  0  0  0  0  0
   18.8411   21.0593   21.6443 H   0  0  0  0  0  0  0  0  0  0  0  0
   19.9202   19.9166   20.8448 H   0  0  0  0  0  0  0  0  0  0  0  0
   20.9293   21.2908   22.1940 C   0  0  0  0  0  0  0  0  0  0  0  0
   21.0537   22.0920   21.4560 H   0  0  0  0  0  0  0  0  0  0  0  0
   20.7521   21.7753   23.1617 H   0  0  0  0  0  0  0  0  0  0  0  0
   22.2487   20.5273   22.2662 C   0  0  0  0  0  0  0  0  0  0  0  0
   22.8084   20.2518   21.2232 O   0  5  0  0  0  0  0  0  0  0  0  0
   22.6916   20.2454   23.3624 O   0  0  0  0  0  0  0  0  0  0  0  0
  1  2  1  0  0  0  0
  1  3  1  0  0  0  0
  1  4  2  0  0  0  0
  4  5  1  0  0  0  0
  4  6  1  0  0  0  0
  6  7  1  0  0  0  0
  6  8  1  0  0  0  0
  6  9  1  0  0  0  0
  9 10  1  0  0  0  0
  9 11  1  0  0  0  0
  9 12  1  0  0  0  0
 12 13  1  0  0  0  0
 12 14  1  0  0  0  0
 12 15  1  0  0  0  0
 15 16  1  0  0  0  0
 15 17  1  0  0  0  0
 15 18  1  0  0  0  0
 18 19  1  0  0  0  0
 18 20  2  0  0  0  0
M  END
> <VConfSearch Rank>
618

> <Conf_Id>
87

> <Delta U+W>
0.339

> <U+W>
-51.407

> <U>
10.461

> <W>
-61.867

> <W(PB)>
-64.045

> <W(SA)>
2.178

> <Valence>
9.555

> <Coulomb>
0.483

> <VdW>
0.423

> <VdW6>
-7.223

> <VdW12>
7.646

> <Bond>
0.126

> <Angle>
2.492

> <Pdih>
6.936

> <Idih>
0.001

> <Tether>
0.000

$$$$
VeraChem MOL file


 20 19  0  0  0  0  0  0  0  0999 V2000     
   19.8843   21.4857   23.1285 C   0  0  0  0  0  0  0  0  0  0  0  0
   19.3262   22.1329   22.4540 H   0  0  0  0  0  0  0  0  0  0  0  0
   19.8550   21.7224   24.1906 H   0  0  0  0  0  0  0  0  0  0  0  0
   20.5774   20.4390   22.6727 C   0  0  0  0  0  0  0  0  0  0  0  0
   21.1371   19.8082   23.3624 H   0  0  0  0  0  0  0  0  0  0  0  0
   20.6723   20.0594   21.2103 C   0  0  0  0  0  0  0  0  0  0  0  0
   21.5426   19.4114   21.0412 H   0  0  0  0  0  0  0  0  0  0  0  0
   20.8613   20.9702   20.6262 H   0  0  0  0  0  0  0  0  0  0  0  0
   19.3921   19.3817   20.6619 C   0  0  0  0  0  0  0  0  0  0  0  0
   18.5027   19.9350   20.9932 H   0  0  0  0  0  0  0  0  0  0  0  0
   19.4086   19.4665   19.5668 H   0  0  0  0  0  0  0  0  0  0  0  0
   19.2466   17.8799   21.0146 C   0  0  0  0  0  0  0  0  0  0  0  0
   20.1436   17.3323   20.6943 H   0  0  0  0  0  0  0  0  0  0  0  0
   18.4110   17.4686   20.4313 H   0  0  0  0  0  0  0  0  0  0  0  0
   18.9773   17.6011   22.5156 C   0  0  0  0  0  0  0  0  0  0  0  0
   19.8529   17.8618   23.1185 H   0  0  0  0  0  0  0  0  0  0  0  0
   18.1405   18.2138   22.8714 H   0  0  0  0  0  0  0  0  0  0  0  0
   18.6473   16.1392   22.7941 C   0  0  0  0  0  0  0  0  0  0  0  0
   19.5659   15.3760   23.0189 O   0  5  0  0  0  0  0  0  0  0  0  0
   17.4817   15.7972   22.7584 O   0  0  0  0  0  0  0  0  0  0  0  0
  1  2  1  0  0  0  0
  1  3  1  0  0  0  0
  1  4  2  0  0  0  0
  4  5  1  0  0  0  0
  4  6  1  0  0  0  0
  6  7  1  0  0  0  0
  6  8  1  0  0  0  0
  6  9  1  0  0  0  0
  9 10  1  0  0  0  0
  9 11  1  0  0  0  0
  9 12  1  0  0  0  0
 12 13  1  0  0  0  0
 12 14  1  0  0  0  0
 12 15  1  0  0  0  0
 15 16  1  0  0  0  0
 15 17  1  0  0  0  0
 15 18  1  0  0  0  0
 18 19  1  0  0  0  0
 18 20  2  0  0  0  0
M  END
> <VConfSearch Rank>
619

> <Conf_Id>
51

> <Delta U+W>
1.709

> <U+W>
-50.036

> <U>
10.643

> <W>
-60.679

> <W(PB)>
-62.882

> <W(SA)>
2.203

> <Valence>
11.231

> <Coulomb>
-1.077

> <VdW>
0.489

> <VdW6>
-7.546

> <VdW12>
8.035

> <Bond>
0.159

> <Angle>
3.005

> <Pdih>
8.065

> <Idih>
0.002

> <Tether>
0.000

$$$$
VeraChem MOL file


 20 19  0  0  0  0  0  0  0  0999 V2000     
   18.2777   20.8928   23.7084 C   0  0  0  0  0  0  0  0  0  0  0  0
   19.0593   21.1788   24.4103 H   0  0  0  0  0  0  0  0  0  0  0  0
   17.2668   20.7871   24.0982 H   0  0  0  0  0  0  0  0  0  0  0  0
   18.5469   20.6768   22.4183 C   0  0  0  0  0  0  0  0  0  0  0  0
   17.7496   20.4001   21.7295 H   0  0  0  0  0  0  0  0  0  0  0  0
   19.9245   20.8176   21.8066 C   0  0  0  0  0  0  0  0  0  0  0  0
   20.3751   21.7490   22.1750 H   0  0  0  0  0  0  0  0  0  0  0  0
   19.8469   20.9348   20.7175 H   0  0  0  0  0  0  0  0  0  0  0  0
   20.8763   19.6440   22.1470 C   0  0  0  0  0  0  0  0  0  0  0  0
   21.9065   19.9854   21.9769 H   0  0  0  0  0  0  0  0  0  0  0  0
   20.8110   19.4056   23.2174 H   0  0  0  0  0  0  0  0  0  0  0  0
   20.6606   18.3629   21.3023 C   0  0  0  0  0  0  0  0  0  0  0  0
   21.4943   17.6751   21.5010 H   0  0  0  0  0  0  0  0  0  0  0  0
   20.7126   18.6076   20.2325 H   0  0  0  0  0  0  0  0  0  0  0  0
   19.3334   17.6193   21.6003 C   0  0  0  0  0  0  0  0  0  0  0  0
   19.2257   17.4519   22.6786 H   0  0  0  0  0  0  0  0  0  0  0  0
   18.4760   18.2170   21.2750 H   0  0  0  0  0  0  0  0  0  0  0  0
   19.2436   16.2688   20.8991 C   0  0  0  0  0  0  0  0  0  0  0  0
   18.7817   16.2347   19.7755 O   0  5  0  0  0  0  0  0  0  0  0  0
   19.6568   15.2886   21.4867 O   0  0  0  0  0  0  0  0  0  0  0  0
  1  2  1  0  0  0  0
  1  3  1  0  0  0  0
  1  4  2  0  0  0  0
  4  5  1  0  0  0  0
  4  6  1  0  0  0  0
  6  7  1  0  0  0  0
  6  8  1  0  0  0  0
  6  9  1  0  0  0  0
  9 10  1  0  0  0  0
  9 11  1  0  0  0  0
  9 12  1  0  0  0  0
 12 13  1  0  0  0  0
 12 14  1  0  0  0  0
 12 15  1  0  0  0  0
 15 16  1  0  0  0  0
 15 17  1  0  0  0  0
 15 18  1  0  0  0  0
 18 19  1  0  0  0  0
 18 20  2  0  0  0  0
M  END
> <VConfSearch Rank>
620

> <Conf_Id>
91

> <Delta U+W>
1.604

> <U+W>
-50.141

> <U>
10.644

> <W>
-60.786

> <W(PB)>
-62.965

> <W(SA)>
2.179

> <Valence>
11.230

> <Coulomb>
-1.075

> <VdW>
0.489

> <VdW6>
-7.547

> <VdW12>
8.036

> <Bond>
0.159

> <Angle>
3.006

> <Pdih>
8.064

> <Idih>
0.002

> <Tether>
0.000

$$$$
VeraChem MOL file


 20 19  0  0  0  0  0  0  0  0999 V2000     
   20.9289   17.5376   25.0737 C   0  0  0  0  0  0  0  0  0  0  0  0
   21.8399   17.2213   24.5681 H   0  0  0  0  0  0  0  0  0  0  0  0
   20.6641   17.0242   25.9965 H   0  0  0  0  0  0  0  0  0  0  0  0
   20.1621   18.5149   24.5831 C   0  0  0  0  0  0  0  0  0  0  0  0
   19.2536   18.8159   25.1043 H   0  0  0  0  0  0  0  0  0  0  0  0
   20.4659   19.2726   23.3098 C   0  0  0  0  0  0  0  0  0  0  0  0
   21.5046   19.0943   22.9997 H   0  0  0  0  0  0  0  0  0  0  0  0
   20.3716   20.3514   23.4927 H   0  0  0  0  0  0  0  0  0  0  0  0
   19.5111   18.8551   22.1718 C   0  0  0  0  0  0  0  0  0  0  0  0
   19.6062   17.7747   21.9958 H   0  0  0  0  0  0  0  0  0  0  0  0
   18.4726   19.0379   22.4806 H   0  0  0  0  0  0  0  0  0  0  0  0
   19.8057   19.6219   20.8640 C   0  0  0  0  0  0  0  0  0  0  0  0
   20.8441   19.4392   20.5542 H   0  0  0  0  0  0  0  0  0  0  0  0
   19.7119   20.7026   21.0398 H   0  0  0  0  0  0  0  0  0  0  0  0
   18.8457   19.2012   19.7196 C   0  0  0  0  0  0  0  0  0  0  0  0
   18.9388   18.1247   19.5345 H   0  0  0  0  0  0  0  0  0  0  0  0
   17.8076   19.3868   20.0194 H   0  0  0  0  0  0  0  0  0  0  0  0
   19.0693   19.9144   18.3851 C   0  0  0  0  0  0  0  0  0  0  0  0
   18.3356   19.6122   17.4651 O   0  5  0  0  0  0  0  0  0  0  0  0
   19.9535   20.7432   18.2852 O   0  0  0  0  0  0  0  0  0  0  0  0
  1  2  1  0  0  0  0
  1  3  1  0  0  0  0
  1  4  2  0  0  0  0
  4  5  1  0  0  0  0
  4  6  1  0  0  0  0
  6  7  1  0  0  0  0
  6  8  1  0  0  0  0
  6  9  1  0  0  0  0
  9 10  1  0  0  0  0
  9 11  1  0  0  0  0
  9 12  1  0  0  0  0
 12 13  1  0  0  0  0
 12 14  1  0  0  0  0
 12 15  1  0  0  0  0
 15 16  1  0  0  0  0
 15 17  1  0  0  0  0
 15 18  1  0  0  0  0
 18 19  1  0  0  0  0
 18 20  2  0  0  0  0
M  END
> <VConfSearch Rank>
621

> <Conf_Id>
33

> <Delta U+W>
0.000

> <U+W>
-51.745

> <U>
7.593

> <W>
-59.338

> <W(PB)>
-61.574

> <W(SA)>
2.236

> <Valence>
9.570

> <Coulomb>
-3.091

> <VdW>
1.114

> <VdW6>
-6.064

> <VdW12>
7.178

> <Bond>
0.117

> <Angle>
2.692

> <Pdih>
6.761

> <Idih>
0.000

> <Tether>
0.000

$$$$
VeraChem MOL file


 20 19  0  0  0  0  0  0  0  0999 V2000     
   22.7715   18.9601   19.9945 C   0  0  0  0  0  0  0  0  0  0  0  0
   22.4102   18.0869   19.4536 H   0  0  0  0  0  0  0  0  0  0  0  0
   23.8134   19.2418   19.8523 H   0  0  0  0  0  0  0  0  0  0  0  0
   21.9718   19.6597   20.8037 C   0  0  0  0  0  0  0  0  0  0  0  0
   22.3534   20.5303   21.3367 H   0  0  0  0  0  0  0  0  0  0  0  0
   20.5163   19.3298   21.0499 C   0  0  0  0  0  0  0  0  0  0  0  0
   20.1554   18.6181   20.2950 H   0  0  0  0  0  0  0  0  0  0  0  0
   19.9167   20.2420   20.9384 H   0  0  0  0  0  0  0  0  0  0  0  0
   20.3140   18.7310   22.4599 C   0  0  0  0  0  0  0  0  0  0  0  0
   20.9864   17.8699   22.5780 H   0  0  0  0  0  0  0  0  0  0  0  0
   20.6143   19.4653   23.2199 H   0  0  0  0  0  0  0  0  0  0  0  0
   18.8635   18.2650   22.7305 C   0  0  0  0  0  0  0  0  0  0  0  0
   18.8335   17.7532   23.7024 H   0  0  0  0  0  0  0  0  0  0  0  0
   18.5664   17.5206   21.9789 H   0  0  0  0  0  0  0  0  0  0  0  0
   17.8338   19.4245   22.7463 C   0  0  0  0  0  0  0  0  0  0  0  0
   18.1424   20.1951   23.4628 H   0  0  0  0  0  0  0  0  0  0  0  0
   17.7728   19.9010   21.7614 H   0  0  0  0  0  0  0  0  0  0  0  0
   16.4314   18.9616   23.1246 C   0  0  0  0  0  0  0  0  0  0  0  0
   15.6908   18.5896   22.2359 O   0  5  0  0  0  0  0  0  0  0  0  0
   16.1234   18.9666   24.3001 O   0  0  0  0  0  0  0  0  0  0  0  0
  1  2  1  0  0  0  0
  1  3  1  0  0  0  0
  1  4  2  0  0  0  0
  4  5  1  0  0  0  0
  4  6  1  0  0  0  0
  6  7  1  0  0  0  0
  6  8  1  0  0  0  0
  6  9  1  0  0  0  0
  9 10  1  0  0  0  0
  9 11  1  0  0  0  0
  9 12  1  0  0  0  0
 12 13  1  0  0  0  0
 12 14  1  0  0  0  0
 12 15  1  0  0  0  0
 15 16  1  0  0  0  0
 15 17  1  0  0  0  0
 15 18  1  0  0  0  0
 18 19  1  0  0  0  0
 18 20  2  0  0  0  0
M  END
> <VConfSearch Rank>
622

> <Conf_Id>
37

> <Delta U+W>
-0.384

> <U+W>
-52.130

> <U>
7.491

> <W>
-59.621

> <W(PB)>
-61.853

> <W(SA)>
2.232

> <Valence>
9.604

> <Coulomb>
-2.799

> <VdW>
0.686

> <VdW6>
-6.435

> <VdW12>
7.121

> <Bond>
0.124

> <Angle>
2.493

> <Pdih>
6.986

> <Idih>
0.001

> <Tether>
0.000

$$$$
VeraChem MOL file


 20 19  0  0  0  0  0  0  0  0999 V2000     
   22.0333   21.0958   20.5460 C   0  0  0  0  0  0  0  0  0  0  0  0
   22.7537   21.7869   20.1119 H   0  0  0  0  0  0  0  0  0  0  0  0
   22.2246   20.0342   20.4043 H   0  0  0  0  0  0  0  0  0  0  0  0
   20.9696   21.5505   21.2182 C   0  0  0  0  0  0  0  0  0  0  0  0
   20.8317   22.6260   21.3269 H   0  0  0  0  0  0  0  0  0  0  0  0
   19.8850   20.7140   21.8760 C   0  0  0  0  0  0  0  0  0  0  0  0
   18.9123   21.0047   21.4570 H   0  0  0  0  0  0  0  0  0  0  0  0
   19.8374   20.9731   22.9422 H   0  0  0  0  0  0  0  0  0  0  0  0
   20.0616   19.1841   21.7334 C   0  0  0  0  0  0  0  0  0  0  0  0
   20.0890   18.9156   20.6684 H   0  0  0  0  0  0  0  0  0  0  0  0
   21.0242   18.8836   22.1696 H   0  0  0  0  0  0  0  0  0  0  0  0
   18.9205   18.4091   22.4277 C   0  0  0  0  0  0  0  0  0  0  0  0
   17.9545   18.7054   21.9956 H   0  0  0  0  0  0  0  0  0  0  0  0
   18.8877   18.6735   23.4938 H   0  0  0  0  0  0  0  0  0  0  0  0
   19.0951   16.8769   22.2863 C   0  0  0  0  0  0  0  0  0  0  0  0
   19.1163   16.5942   21.2269 H   0  0  0  0  0  0  0  0  0  0  0  0
   20.0496   16.5623   22.7250 H   0  0  0  0  0  0  0  0  0  0  0  0
   17.9799   16.0890   22.9642 C   0  0  0  0  0  0  0  0  0  0  0  0
   16.9896   15.8207   22.3131 O   0  5  0  0  0  0  0  0  0  0  0  0
   18.1225   15.7816   24.1312 O   0  0  0  0  0  0  0  0  0  0  0  0
  1  2  1  0  0  0  0
  1  3  1  0  0  0  0
  1  4  2  0  0  0  0
  4  5  1  0  0  0  0
  4  6  1  0  0  0  0
  6  7  1  0  0  0  0
  6  8  1  0  0  0  0
  6  9  1  0  0  0  0
  9 10  1  0  0  0  0
  9 11  1  0  0  0  0
  9 12  1  0  0  0  0
 12 13  1  0  0  0  0
 12 14  1  0  0  0  0
 12 15  1  0  0  0  0
 15 16  1  0  0  0  0
 15 17  1  0  0  0  0
 15 18  1  0  0  0  0
 18 19  1  0  0  0  0
 18 20  2  0  0  0  0
M  END
> <VConfSearch Rank>
623

> <Conf_Id>
44

> <Delta U+W>
-1.440

> <U+W>
-53.185

> <U>
6.572

> <W>
-59.757

> <W(PB)>
-62.007

> <W(SA)>
2.249

> <Valence>
7.989

> <Coulomb>
-2.697

> <VdW>
1.281

> <VdW6>
-6.467

> <VdW12>
7.748

> <Bond>
0.136

> <Angle>
2.854

> <Pdih>
4.997

> <Idih>
0.001

> <Tether>
0.000

$$$$
VeraChem MOL file


 20 19  0  0  0  0  0  0  0  0999 V2000     
   17.6023   16.3961   22.1570 C   0  0  0  0  0  0  0  0  0  0  0  0
   17.3254   16.9268   23.0664 H   0  0  0  0  0  0  0  0  0  0  0  0
   17.2426   15.3748   22.0437 H   0  0  0  0  0  0  0  0  0  0  0  0
   18.3559   16.9707   21.2158 C   0  0  0  0  0  0  0  0  0  0  0  0
   18.6223   16.4216   20.3130 H   0  0  0  0  0  0  0  0  0  0  0  0
   18.8900   18.3832   21.3027 C   0  0  0  0  0  0  0  0  0  0  0  0
   18.3586   18.9349   22.0887 H   0  0  0  0  0  0  0  0  0  0  0  0
   18.6935   18.9081   20.3583 H   0  0  0  0  0  0  0  0  0  0  0  0
   20.4081   18.3858   21.5910 C   0  0  0  0  0  0  0  0  0  0  0  0
   20.5986   17.9087   22.5622 H   0  0  0  0  0  0  0  0  0  0  0  0
   20.9142   17.7670   20.8373 H   0  0  0  0  0  0  0  0  0  0  0  0
   21.0380   19.7990   21.5720 C   0  0  0  0  0  0  0  0  0  0  0  0
   20.8566   20.2736   20.5977 H   0  0  0  0  0  0  0  0  0  0  0  0
   22.1280   19.6999   21.6703 H   0  0  0  0  0  0  0  0  0  0  0  0
   20.5185   20.7237   22.7034 C   0  0  0  0  0  0  0  0  0  0  0  0
   19.4469   20.9184   22.5824 H   0  0  0  0  0  0  0  0  0  0  0  0
   20.6540   20.2413   23.6788 H   0  0  0  0  0  0  0  0  0  0  0  0
   21.2327   22.0700   22.7384 C   0  0  0  0  0  0  0  0  0  0  0  0
   22.2345   22.1704   23.4190 O   0  5  0  0  0  0  0  0  0  0  0  0
   20.7801   22.9773   22.0687 O   0  0  0  0  0  0  0  0  0  0  0  0
  1  2  1  0  0  0  0
  1  3  1  0  0  0  0
  1  4  2  0  0  0  0
  4  5  1  0  0  0  0
  4  6  1  0  0  0  0
  6  7  1  0  0  0  0
  6  8  1  0  0  0  0
  6  9  1  0  0  0  0
  9 10  1  0  0  0  0
  9 11  1  0  0  0  0
  9 12  1  0  0  0  0
 12 13  1  0  0  0  0
 12 14  1  0  0  0  0
 12 15  1  0  0  0  0
 15 16  1  0  0  0  0
 15 17  1  0  0  0  0
 15 18  1  0  0  0  0
 18 19  1  0  0  0  0
 18 20  2  0  0  0  0
M  END
> <VConfSearch Rank>
624

> <Conf_Id>
38

> <Delta U+W>
-0.381

> <U+W>
-52.126

> <U>
7.601

> <W>
-59.727

> <W(PB)>
-61.964

> <W(SA)>
2.236

> <Valence>
9.602

> <Coulomb>
-2.686

> <VdW>
0.685

> <VdW6>
-6.453

> <VdW12>
7.139

> <Bond>
0.125

> <Angle>
2.485

> <Pdih>
6.991

> <Idih>
0.001

> <Tether>
0.000

$$$$
VeraChem MOL file


 20 19  0  0  0  0  0  0  0  0999 V2000     
   16.9902   17.2473   23.1951 C   0  0  0  0  0  0  0  0  0  0  0  0
   16.2826   17.7230   22.5180 H   0  0  0  0  0  0  0  0  0  0  0  0
   16.7308   16.2624   23.5797 H   0  0  0  0  0  0  0  0  0  0  0  0
   18.1338   17.8441   23.5412 C   0  0  0  0  0  0  0  0  0  0  0  0
   18.8289   17.3502   24.2198 H   0  0  0  0  0  0  0  0  0  0  0  0
   18.5606   19.2090   23.0488 C   0  0  0  0  0  0  0  0  0  0  0  0
   18.8868   19.8212   23.9002 H   0  0  0  0  0  0  0  0  0  0  0  0
   17.7095   19.7314   22.5911 H   0  0  0  0  0  0  0  0  0  0  0  0
   19.7078   19.0974   22.0229 C   0  0  0  0  0  0  0  0  0  0  0  0
   20.5586   18.5766   22.4838 H   0  0  0  0  0  0  0  0  0  0  0  0
   19.3795   18.4804   21.1751 H   0  0  0  0  0  0  0  0  0  0  0  0
   20.1584   20.4844   21.5114 C   0  0  0  0  0  0  0  0  0  0  0  0
   20.4974   21.1006   22.3558 H   0  0  0  0  0  0  0  0  0  0  0  0
   19.2984   21.0033   21.0667 H   0  0  0  0  0  0  0  0  0  0  0  0
   21.2908   20.3917   20.4560 C   0  0  0  0  0  0  0  0  0  0  0  0
   20.9775   19.7563   19.6188 H   0  0  0  0  0  0  0  0  0  0  0  0
   21.4886   21.3875   20.0422 H   0  0  0  0  0  0  0  0  0  0  0  0
   22.6095   19.8565   21.0069 C   0  0  0  0  0  0  0  0  0  0  0  0
   22.9274   18.7158   20.7334 O   0  5  0  0  0  0  0  0  0  0  0  0
   23.2895   20.5999   21.6867 O   0  0  0  0  0  0  0  0  0  0  0  0
  1  2  1  0  0  0  0
  1  3  1  0  0  0  0
  1  4  2  0  0  0  0
  4  5  1  0  0  0  0
  4  6  1  0  0  0  0
  6  7  1  0  0  0  0
  6  8  1  0  0  0  0
  6  9  1  0  0  0  0
  9 10  1  0  0  0  0
  9 11  1  0  0  0  0
  9 12  1  0  0  0  0
 12 13  1  0  0  0  0
 12 14  1  0  0  0  0
 12 15  1  0  0  0  0
 15 16  1  0  0  0  0
 15 17  1  0  0  0  0
 15 18  1  0  0  0  0
 18 19  1  0  0  0  0
 18 20  2  0  0  0  0
M  END
> <VConfSearch Rank>
625

> <Conf_Id>
58

> <Delta U+W>
0.019

> <U+W>
-51.727

> <U>
8.963

> <W>
-60.690

> <W(PB)>
-62.934

> <W(SA)>
2.244

> <Valence>
9.327

> <Coulomb>
-0.780

> <VdW>
0.417

> <VdW6>
-6.635

> <VdW12>
7.052

> <Bond>
0.105

> <Angle>
2.399

> <Pdih>
6.822

> <Idih>
0.000

> <Tether>
0.000

$$$$
VeraChem MOL file


 20 19  0  0  0  0  0  0  0  0999 V2000     
   21.6186   16.3996   23.1196 C   0  0  0  0  0  0  0  0  0  0  0  0
   22.5219   16.7318   22.6106 H   0  0  0  0  0  0  0  0  0  0  0  0
   21.5370   15.3397   23.3548 H   0  0  0  0  0  0  0  0  0  0  0  0
   20.6450   17.2550   23.4425 C   0  0  0  0  0  0  0  0  0  0  0  0
   19.7482   16.9017   23.9511 H   0  0  0  0  0  0  0  0  0  0  0  0
   20.6879   18.7382   23.1494 C   0  0  0  0  0  0  0  0  0  0  0  0
   21.7080   19.0429   22.8786 H   0  0  0  0  0  0  0  0  0  0  0  0
   20.4200   19.2994   24.0546 H   0  0  0  0  0  0  0  0  0  0  0  0
   19.7199   19.1084   22.0062 C   0  0  0  0  0  0  0  0  0  0  0  0
   19.9880   18.5416   21.1039 H   0  0  0  0  0  0  0  0  0  0  0  0
   18.7001   18.8047   22.2805 H   0  0  0  0  0  0  0  0  0  0  0  0
   19.7492   20.6221   21.6958 C   0  0  0  0  0  0  0  0  0  0  0  0
   20.7748   20.9191   21.4382 H   0  0  0  0  0  0  0  0  0  0  0  0
   19.4710   21.1917   22.5935 H   0  0  0  0  0  0  0  0  0  0  0  0
   18.8048   21.0098   20.5285 C   0  0  0  0  0  0  0  0  0  0  0  0
   18.9522   22.0657   20.2731 H   0  0  0  0  0  0  0  0  0  0  0  0
   19.0522   20.4286   19.6319 H   0  0  0  0  0  0  0  0  0  0  0  0
   17.3232   20.8182   20.8398 C   0  0  0  0  0  0  0  0  0  0  0  0
   16.7805   21.6307   21.5626 O   0  5  0  0  0  0  0  0  0  0  0  0
   16.7484   19.8694   20.3435 O   0  0  0  0  0  0  0  0  0  0  0  0
  1  2  1  0  0  0  0
  1  3  1  0  0  0  0
  1  4  2  0  0  0  0
  4  5  1  0  0  0  0
  4  6  1  0  0  0  0
  6  7  1  0  0  0  0
  6  8  1  0  0  0  0
  6  9  1  0  0  0  0
  9 10  1  0  0  0  0
  9 11  1  0  0  0  0
  9 12  1  0  0  0  0
 12 13  1  0  0  0  0
 12 14  1  0  0  0  0
 12 15  1  0  0  0  0
 15 16  1  0  0  0  0
 15 17  1  0  0  0  0
 15 18  1  0  0  0  0
 18 19  1  0  0  0  0
 18 20  2  0  0  0  0
M  END
> <VConfSearch Rank>
626

> <Conf_Id>
54

> <Delta U+W>
-0.048

> <U+W>
-51.793

> <U>
8.964

> <W>
-60.756

> <W(PB)>
-63.007

> <W(SA)>
2.251

> <Valence>
9.327

> <Coulomb>
-0.780

> <VdW>
0.417

> <VdW6>
-6.635

> <VdW12>
7.052

> <Bond>
0.105

> <Angle>
2.399

> <Pdih>
6.822

> <Idih>
0.000

> <Tether>
0.000

$$$$
VeraChem MOL file


 20 19  0  0  0  0  0  0  0  0999 V2000     
   18.1373   20.8284   24.3872 C   0  0  0  0  0  0  0  0  0  0  0  0
   18.4512   21.5729   25.1168 H   0  0  0  0  0  0  0  0  0  0  0  0
   17.1603   20.9603   23.9251 H   0  0  0  0  0  0  0  0  0  0  0  0
   18.9242   19.7964   24.0717 C   0  0  0  0  0  0  0  0  0  0  0  0
   19.8971   19.6814   24.5488 H   0  0  0  0  0  0  0  0  0  0  0  0
   18.5519   18.7208   23.0736 C   0  0  0  0  0  0  0  0  0  0  0  0
   17.4628   18.7092   22.9314 H   0  0  0  0  0  0  0  0  0  0  0  0
   18.8203   17.7326   23.4704 H   0  0  0  0  0  0  0  0  0  0  0  0
   19.2277   18.9323   21.7000 C   0  0  0  0  0  0  0  0  0  0  0  0
   18.8117   18.2059   20.9884 H   0  0  0  0  0  0  0  0  0  0  0  0
   18.9704   19.9289   21.3157 H   0  0  0  0  0  0  0  0  0  0  0  0
   20.7658   18.7728   21.7551 C   0  0  0  0  0  0  0  0  0  0  0  0
   21.0234   17.7815   22.1531 H   0  0  0  0  0  0  0  0  0  0  0  0
   21.1863   19.5117   22.4497 H   0  0  0  0  0  0  0  0  0  0  0  0
   21.4339   18.9589   20.3679 C   0  0  0  0  0  0  0  0  0  0  0  0
   21.1582   19.9314   19.9423 H   0  0  0  0  0  0  0  0  0  0  0  0
   22.5241   18.9606   20.4838 H   0  0  0  0  0  0  0  0  0  0  0  0
   21.0844   17.8685   19.3591 C   0  0  0  0  0  0  0  0  0  0  0  0
   20.2947   18.1341   18.4742 O   0  5  0  0  0  0  0  0  0  0  0  0
   21.6205   16.7844   19.4792 O   0  0  0  0  0  0  0  0  0  0  0  0
  1  2  1  0  0  0  0
  1  3  1  0  0  0  0
  1  4  2  0  0  0  0
  4  5  1  0  0  0  0
  4  6  1  0  0  0  0
  6  7  1  0  0  0  0
  6  8  1  0  0  0  0
  6  9  1  0  0  0  0
  9 10  1  0  0  0  0
  9 11  1  0  0  0  0
  9 12  1  0  0  0  0
 12 13  1  0  0  0  0
 12 14  1  0  0  0  0
 12 15  1  0  0  0  0
 15 16  1  0  0  0  0
 15 17  1  0  0  0  0
 15 18  1  0  0  0  0
 18 19  1  0  0  0  0
 18 20  2  0  0  0  0
M  END
> <VConfSearch Rank>
627

> <Conf_Id>
27

> <Delta U+W>
0.478

> <U+W>
-51.267

> <U>
9.192

> <W>
-60.459

> <W(PB)>
-62.649

> <W(SA)>
2.190

> <Valence>
9.572

> <Coulomb>
-0.884

> <VdW>
0.504

> <VdW6>
-7.168

> <VdW12>
7.672

> <Bond>
0.127

> <Angle>
2.504

> <Pdih>
6.941

> <Idih>
0.001

> <Tether>
0.000

$$$$
VeraChem MOL file


 20 19  0  0  0  0  0  0  0  0999 V2000     
   16.6592   17.7807   22.9538 C   0  0  0  0  0  0  0  0  0  0  0  0
   16.2773   17.1106   22.1853 H   0  0  0  0  0  0  0  0  0  0  0  0
   15.9306   18.3402   23.5381 H   0  0  0  0  0  0  0  0  0  0  0  0
   17.9698   17.9164   23.1722 C   0  0  0  0  0  0  0  0  0  0  0  0
   18.3306   18.5904   23.9486 H   0  0  0  0  0  0  0  0  0  0  0  0
   19.0388   17.1679   22.4049 C   0  0  0  0  0  0  0  0  0  0  0  0
   18.5984   16.2849   21.9223 H   0  0  0  0  0  0  0  0  0  0  0  0
   19.8020   16.7903   23.0984 H   0  0  0  0  0  0  0  0  0  0  0  0
   19.7066   18.0434   21.3206 C   0  0  0  0  0  0  0  0  0  0  0  0
   20.3719   17.4117   20.7164 H   0  0  0  0  0  0  0  0  0  0  0  0
   18.9365   18.4309   20.6394 H   0  0  0  0  0  0  0  0  0  0  0  0
   20.5207   19.2167   21.9128 C   0  0  0  0  0  0  0  0  0  0  0  0
   21.2732   18.8293   22.6135 H   0  0  0  0  0  0  0  0  0  0  0  0
   19.8598   19.8793   22.4879 H   0  0  0  0  0  0  0  0  0  0  0  0
   21.2268   20.0418   20.8088 C   0  0  0  0  0  0  0  0  0  0  0  0
   21.9052   19.4016   20.2323 H   0  0  0  0  0  0  0  0  0  0  0  0
   20.4872   20.4459   20.1072 H   0  0  0  0  0  0  0  0  0  0  0  0
   22.0360   21.2069   21.3672 C   0  0  0  0  0  0  0  0  0  0  0  0
   21.4805   22.2793   21.5015 O   0  5  0  0  0  0  0  0  0  0  0  0
   23.1958   21.0067   21.6697 O   0  0  0  0  0  0  0  0  0  0  0  0
  1  2  1  0  0  0  0
  1  3  1  0  0  0  0
  1  4  2  0  0  0  0
  4  5  1  0  0  0  0
  4  6  1  0  0  0  0
  6  7  1  0  0  0  0
  6  8  1  0  0  0  0
  6  9  1  0  0  0  0
  9 10  1  0  0  0  0
  9 11  1  0  0  0  0
  9 12  1  0  0  0  0
 12 13  1  0  0  0  0
 12 14  1  0  0  0  0
 12 15  1  0  0  0  0
 15 16  1  0  0  0  0
 15 17  1  0  0  0  0
 15 18  1  0  0  0  0
 18 19  1  0  0  0  0
 18 20  2  0  0  0  0
M  END
> <VConfSearch Rank>
628

> <Conf_Id>
41

> <Delta U+W>
-0.634

> <U+W>
-52.379

> <U>
7.828

> <W>
-60.207

> <W(PB)>
-62.449

> <W(SA)>
2.242

> <Valence>
9.300

> <Coulomb>
-2.080

> <VdW>
0.608

> <VdW6>
-6.341

> <VdW12>
6.949

> <Bond>
0.103

> <Angle>
2.334

> <Pdih>
6.862

> <Idih>
0.001

> <Tether>
0.000

$$$$
VeraChem MOL file


 20 19  0  0  0  0  0  0  0  0999 V2000     
   18.7955   15.8956   23.4599 C   0  0  0  0  0  0  0  0  0  0  0  0
   18.4995   14.8663   23.2647 H   0  0  0  0  0  0  0  0  0  0  0  0
   19.0400   16.1605   24.4873 H   0  0  0  0  0  0  0  0  0  0  0  0
   18.8573   16.7947   22.4741 C   0  0  0  0  0  0  0  0  0  0  0  0
   18.6091   16.5093   21.4521 H   0  0  0  0  0  0  0  0  0  0  0  0
   19.2582   18.2400   22.6684 C   0  0  0  0  0  0  0  0  0  0  0  0
   19.2376   18.5003   23.7353 H   0  0  0  0  0  0  0  0  0  0  0  0
   18.5260   18.8866   22.1677 H   0  0  0  0  0  0  0  0  0  0  0  0
   20.6701   18.5053   22.0996 C   0  0  0  0  0  0  0  0  0  0  0  0
   21.3709   17.7821   22.5388 H   0  0  0  0  0  0  0  0  0  0  0  0
   20.6712   18.3173   21.0170 H   0  0  0  0  0  0  0  0  0  0  0  0
   21.1936   19.9345   22.3849 C   0  0  0  0  0  0  0  0  0  0  0  0
   22.2262   20.0127   22.0173 H   0  0  0  0  0  0  0  0  0  0  0  0
   21.2411   20.0923   23.4708 H   0  0  0  0  0  0  0  0  0  0  0  0
   20.3487   21.0683   21.7422 C   0  0  0  0  0  0  0  0  0  0  0  0
   19.3290   21.0667   22.1439 H   0  0  0  0  0  0  0  0  0  0  0  0
   20.7840   22.0392   22.0058 H   0  0  0  0  0  0  0  0  0  0  0  0
   20.2741   21.0030   20.2194 C   0  0  0  0  0  0  0  0  0  0  0  0
   21.2696   21.2920   19.5847 O   0  5  0  0  0  0  0  0  0  0  0  0
   19.2194   20.6829   19.7075 O   0  0  0  0  0  0  0  0  0  0  0  0
  1  2  1  0  0  0  0
  1  3  1  0  0  0  0
  1  4  2  0  0  0  0
  4  5  1  0  0  0  0
  4  6  1  0  0  0  0
  6  7  1  0  0  0  0
  6  8  1  0  0  0  0
  6  9  1  0  0  0  0
  9 10  1  0  0  0  0
  9 11  1  0  0  0  0
  9 12  1  0  0  0  0
 12 13  1  0  0  0  0
 12 14  1  0  0  0  0
 12 15  1  0  0  0  0
 15 16  1  0  0  0  0
 15 17  1  0  0  0  0
 15 18  1  0  0  0  0
 18 19  1  0  0  0  0
 18 20  2  0  0  0  0
M  END
> <VConfSearch Rank>
629

> <Conf_Id>
84

> <Delta U+W>
0.942

> <U+W>
-50.803

> <U>
10.196

> <W>
-60.999

> <W(PB)>
-63.182

> <W(SA)>
2.182

> <Valence>
9.837

> <Coulomb>
0.032

> <VdW>
0.328

> <VdW6>
-7.642

> <VdW12>
7.969

> <Bond>
0.151

> <Angle>
2.748

> <Pdih>
6.937

> <Idih>
0.001

> <Tether>
0.000

$$$$
VeraChem MOL file


 20 19  0  0  0  0  0  0  0  0999 V2000     
   20.6133   22.3782   20.9648 C   0  0  0  0  0  0  0  0  0  0  0  0
   20.5648   23.4511   21.1430 H   0  0  0  0  0  0  0  0  0  0  0  0
   21.5893   21.9514   20.7392 H   0  0  0  0  0  0  0  0  0  0  0  0
   19.5165   21.6185   21.0240 C   0  0  0  0  0  0  0  0  0  0  0  0
   18.5491   22.0654   21.2523 H   0  0  0  0  0  0  0  0  0  0  0  0
   19.5061   20.1246   20.7877 C   0  0  0  0  0  0  0  0  0  0  0  0
   20.4480   19.8070   20.3199 H   0  0  0  0  0  0  0  0  0  0  0  0
   18.7021   19.8696   20.0845 H   0  0  0  0  0  0  0  0  0  0  0  0
   19.3032   19.3528   22.1084 C   0  0  0  0  0  0  0  0  0  0  0  0
   20.1072   19.6174   22.8092 H   0  0  0  0  0  0  0  0  0  0  0  0
   18.3594   19.6669   22.5749 H   0  0  0  0  0  0  0  0  0  0  0  0
   19.2868   17.8239   21.8837 C   0  0  0  0  0  0  0  0  0  0  0  0
   20.2353   17.5042   21.4300 H   0  0  0  0  0  0  0  0  0  0  0  0
   18.4930   17.5714   21.1676 H   0  0  0  0  0  0  0  0  0  0  0  0
   19.0520   17.0307   23.1954 C   0  0  0  0  0  0  0  0  0  0  0  0
   18.1215   17.3580   23.6748 H   0  0  0  0  0  0  0  0  0  0  0  0
   18.9321   15.9659   22.9634 H   0  0  0  0  0  0  0  0  0  0  0  0
   20.1894   17.1522   24.2056 C   0  0  0  0  0  0  0  0  0  0  0  0
   20.0205   17.8575   25.1808 O   0  5  0  0  0  0  0  0  0  0  0  0
   21.2101   16.5266   23.9962 O   0  0  0  0  0  0  0  0  0  0  0  0
  1  2  1  0  0  0  0
  1  3  1  0  0  0  0
  1  4  2  0  0  0  0
  4  5  1  0  0  0  0
  4  6  1  0  0  0  0
  6  7  1  0  0  0  0
  6  8  1  0  0  0  0
  6  9  1  0  0  0  0
  9 10  1  0  0  0  0
  9 11  1  0  0  0  0
  9 12  1  0  0  0  0
 12 13  1  0  0  0  0
 12 14  1  0  0  0  0
 12 15  1  0  0  0  0
 15 16  1  0  0  0  0
 15 17  1  0  0  0  0
 15 18  1  0  0  0  0
 18 19  1  0  0  0  0
 18 20  2  0  0  0  0
M  END
> <VConfSearch Rank>
630

> <Conf_Id>
81

> <Delta U+W>
-0.051

> <U+W>
-51.796

> <U>
9.412

> <W>
-61.209

> <W(PB)>
-63.452

> <W(SA)>
2.243

> <Valence>
9.329

> <Coulomb>
-0.323

> <VdW>
0.406

> <VdW6>
-6.640

> <VdW12>
7.046

> <Bond>
0.105

> <Angle>
2.401

> <Pdih>
6.823

> <Idih>
0.000

> <Tether>
0.000

$$$$
VeraChem MOL file


 20 19  0  0  0  0  0  0  0  0999 V2000     
   18.8620   18.4586   25.1167 C   0  0  0  0  0  0  0  0  0  0  0  0
   19.5134   19.0609   25.7478 H   0  0  0  0  0  0  0  0  0  0  0  0
   17.9784   18.0229   25.5800 H   0  0  0  0  0  0  0  0  0  0  0  0
   19.1314   18.2617   23.8235 C   0  0  0  0  0  0  0  0  0  0  0  0
   18.4675   17.6534   23.2099 H   0  0  0  0  0  0  0  0  0  0  0  0
   20.3414   18.8298   23.1132 C   0  0  0  0  0  0  0  0  0  0  0  0
   20.8060   18.0586   22.4852 H   0  0  0  0  0  0  0  0  0  0  0  0
   21.1039   19.1142   23.8507 H   0  0  0  0  0  0  0  0  0  0  0  0
   19.9960   20.0735   22.2596 C   0  0  0  0  0  0  0  0  0  0  0  0
   19.6141   20.8621   22.9223 H   0  0  0  0  0  0  0  0  0  0  0  0
   20.9204   20.4694   21.8171 H   0  0  0  0  0  0  0  0  0  0  0  0
   18.9588   19.8205   21.1353 C   0  0  0  0  0  0  0  0  0  0  0  0
   18.7678   20.7681   20.6131 H   0  0  0  0  0  0  0  0  0  0  0  0
   18.0009   19.5214   21.5811 H   0  0  0  0  0  0  0  0  0  0  0  0
   19.3899   18.7548   20.0910 C   0  0  0  0  0  0  0  0  0  0  0  0
   19.5160   17.7760   20.5675 H   0  0  0  0  0  0  0  0  0  0  0  0
   18.5961   18.6363   19.3444 H   0  0  0  0  0  0  0  0  0  0  0  0
   20.6721   19.1019   19.3399 C   0  0  0  0  0  0  0  0  0  0  0  0
   21.6772   18.4664   19.5910 O   0  5  0  0  0  0  0  0  0  0  0  0
   20.6269   19.9885   18.5097 O   0  0  0  0  0  0  0  0  0  0  0  0
  1  2  1  0  0  0  0
  1  3  1  0  0  0  0
  1  4  2  0  0  0  0
  4  5  1  0  0  0  0
  4  6  1  0  0  0  0
  6  7  1  0  0  0  0
  6  8  1  0  0  0  0
  6  9  1  0  0  0  0
  9 10  1  0  0  0  0
  9 11  1  0  0  0  0
  9 12  1  0  0  0  0
 12 13  1  0  0  0  0
 12 14  1  0  0  0  0
 12 15  1  0  0  0  0
 15 16  1  0  0  0  0
 15 17  1  0  0  0  0
 15 18  1  0  0  0  0
 18 19  1  0  0  0  0
 18 20  2  0  0  0  0
M  END
> <VConfSearch Rank>
631

> <Conf_Id>
86

> <Delta U+W>
1.248

> <U+W>
-50.498

> <U>
10.404

> <W>
-60.901

> <W(PB)>
-63.061

> <W(SA)>
2.159

> <Valence>
10.021

> <Coulomb>
0.094

> <VdW>
0.289

> <VdW6>
-8.409

> <VdW12>
8.698

> <Bond>
0.179

> <Angle>
2.939

> <Pdih>
6.902

> <Idih>
0.001

> <Tether>
0.000

$$$$
VeraChem MOL file


 20 19  0  0  0  0  0  0  0  0999 V2000     
   21.6835   19.9534   19.6792 C   0  0  0  0  0  0  0  0  0  0  0  0
   22.6283   20.4776   19.5462 H   0  0  0  0  0  0  0  0  0  0  0  0
   21.6097   18.9437   19.2786 H   0  0  0  0  0  0  0  0  0  0  0  0
   20.6581   20.5287   20.3129 C   0  0  0  0  0  0  0  0  0  0  0  0
   20.7533   21.5396   20.7084 H   0  0  0  0  0  0  0  0  0  0  0  0
   19.3165   19.8637   20.5363 C   0  0  0  0  0  0  0  0  0  0  0  0
   19.2362   18.9445   19.9402 H   0  0  0  0  0  0  0  0  0  0  0  0
   18.5213   20.5329   20.1819 H   0  0  0  0  0  0  0  0  0  0  0  0
   19.0648   19.5361   22.0254 C   0  0  0  0  0  0  0  0  0  0  0  0
   19.1488   20.4543   22.6227 H   0  0  0  0  0  0  0  0  0  0  0  0
   18.0307   19.1828   22.1386 H   0  0  0  0  0  0  0  0  0  0  0  0
   20.0363   18.4639   22.5732 C   0  0  0  0  0  0  0  0  0  0  0  0
   21.0702   18.8187   22.4668 H   0  0  0  0  0  0  0  0  0  0  0  0
   19.9548   17.5470   21.9731 H   0  0  0  0  0  0  0  0  0  0  0  0
   19.7747   18.1279   24.0644 C   0  0  0  0  0  0  0  0  0  0  0  0
   20.5621   17.4599   24.4328 H   0  0  0  0  0  0  0  0  0  0  0  0
   19.8218   19.0397   24.6719 H   0  0  0  0  0  0  0  0  0  0  0  0
   18.4365   17.4403   24.3201 C   0  0  0  0  0  0  0  0  0  0  0  0
   18.3341   16.2632   24.0355 O   0  5  0  0  0  0  0  0  0  0  0  0
   17.5362   18.0954   24.8071 O   0  0  0  0  0  0  0  0  0  0  0  0
  1  2  1  0  0  0  0
  1  3  1  0  0  0  0
  1  4  2  0  0  0  0
  4  5  1  0  0  0  0
  4  6  1  0  0  0  0
  6  7  1  0  0  0  0
  6  8  1  0  0  0  0
  6  9  1  0  0  0  0
  9 10  1  0  0  0  0
  9 11  1  0  0  0  0
  9 12  1  0  0  0  0
 12 13  1  0  0  0  0
 12 14  1  0  0  0  0
 12 15  1  0  0  0  0
 15 16  1  0  0  0  0
 15 17  1  0  0  0  0
 15 18  1  0  0  0  0
 18 19  1  0  0  0  0
 18 20  2  0  0  0  0
M  END
> <VConfSearch Rank>
632

> <Conf_Id>
28

> <Delta U+W>
0.446

> <U+W>
-51.299

> <U>
9.295

> <W>
-60.594

> <W(PB)>
-62.806

> <W(SA)>
2.212

> <Valence>
9.495

> <Coulomb>
-0.610

> <VdW>
0.409

> <VdW6>
-7.332

> <VdW12>
7.741

> <Bond>
0.126

> <Angle>
2.497

> <Pdih>
6.872

> <Idih>
0.000

> <Tether>
0.000

$$$$
VeraChem MOL file


 20 19  0  0  0  0  0  0  0  0999 V2000     
   21.5950   21.8084   22.4860 C   0  0  0  0  0  0  0  0  0  0  0  0
   20.9117   21.9914   21.6595 H   0  0  0  0  0  0  0  0  0  0  0  0
   22.1948   22.6518   22.8235 H   0  0  0  0  0  0  0  0  0  0  0  0
   21.7048   20.6124   23.0756 C   0  0  0  0  0  0  0  0  0  0  0  0
   22.4056   20.4912   23.9012 H   0  0  0  0  0  0  0  0  0  0  0  0
   20.9407   19.3486   22.7172 C   0  0  0  0  0  0  0  0  0  0  0  0
   20.3418   19.0480   23.5865 H   0  0  0  0  0  0  0  0  0  0  0  0
   21.6619   18.5366   22.5549 H   0  0  0  0  0  0  0  0  0  0  0  0
   20.0282   19.4680   21.4716 C   0  0  0  0  0  0  0  0  0  0  0  0
   19.2462   20.2171   21.6575 H   0  0  0  0  0  0  0  0  0  0  0  0
   20.6237   19.8381   20.6260 H   0  0  0  0  0  0  0  0  0  0  0  0
   19.3754   18.1271   21.0535 C   0  0  0  0  0  0  0  0  0  0  0  0
   20.1634   17.3981   20.8209 H   0  0  0  0  0  0  0  0  0  0  0  0
   18.8161   18.2827   20.1205 H   0  0  0  0  0  0  0  0  0  0  0  0
   18.4160   17.5191   22.1130 C   0  0  0  0  0  0  0  0  0  0  0  0
   18.0131   16.5720   21.7359 H   0  0  0  0  0  0  0  0  0  0  0  0
   18.9582   17.2797   23.0347 H   0  0  0  0  0  0  0  0  0  0  0  0
   17.2270   18.4098   22.4621 C   0  0  0  0  0  0  0  0  0  0  0  0
   16.3571   18.5572   21.6261 O   0  5  0  0  0  0  0  0  0  0  0  0
   17.1909   18.9153   23.5666 O   0  0  0  0  0  0  0  0  0  0  0  0
  1  2  1  0  0  0  0
  1  3  1  0  0  0  0
  1  4  2  0  0  0  0
  4  5  1  0  0  0  0
  4  6  1  0  0  0  0
  6  7  1  0  0  0  0
  6  8  1  0  0  0  0
  6  9  1  0  0  0  0
  9 10  1  0  0  0  0
  9 11  1  0  0  0  0
  9 12  1  0  0  0  0
 12 13  1  0  0  0  0
 12 14  1  0  0  0  0
 12 15  1  0  0  0  0
 15 16  1  0  0  0  0
 15 17  1  0  0  0  0
 15 18  1  0  0  0  0
 18 19  1  0  0  0  0
 18 20  2  0  0  0  0
M  END
> <VConfSearch Rank>
633

> <Conf_Id>
53

> <Delta U+W>
0.549

> <U+W>
-51.197

> <U>
10.870

> <W>
-62.067

> <W(PB)>
-64.228

> <W(SA)>
2.161

> <Valence>
8.803

> <Coulomb>
1.020

> <VdW>
1.048

> <VdW6>
-8.312

> <VdW12>
9.360

> <Bond>
0.212

> <Angle>
3.379

> <Pdih>
5.211

> <Idih>
0.001

> <Tether>
0.000

$$$$
VeraChem MOL file


 20 19  0  0  0  0  0  0  0  0999 V2000     
   22.0121   17.4176   21.4301 C   0  0  0  0  0  0  0  0  0  0  0  0
   22.4547   18.3717   21.7075 H   0  0  0  0  0  0  0  0  0  0  0  0
   22.5585   16.8098   20.7111 H   0  0  0  0  0  0  0  0  0  0  0  0
   20.8530   16.9937   21.9453 C   0  0  0  0  0  0  0  0  0  0  0  0
   20.4547   16.0279   21.6356 H   0  0  0  0  0  0  0  0  0  0  0  0
   19.9860   17.7373   22.9480 C   0  0  0  0  0  0  0  0  0  0  0  0
   20.1885   17.3398   23.9512 H   0  0  0  0  0  0  0  0  0  0  0  0
   18.9326   17.4940   22.7588 H   0  0  0  0  0  0  0  0  0  0  0  0
   20.1461   19.2799   22.9689 C   0  0  0  0  0  0  0  0  0  0  0  0
   19.5253   19.6846   23.7798 H   0  0  0  0  0  0  0  0  0  0  0  0
   21.1803   19.5360   23.2340 H   0  0  0  0  0  0  0  0  0  0  0  0
   19.7654   19.9909   21.6436 C   0  0  0  0  0  0  0  0  0  0  0  0
   20.4276   19.6494   20.8378 H   0  0  0  0  0  0  0  0  0  0  0  0
   19.9530   21.0676   21.7560 H   0  0  0  0  0  0  0  0  0  0  0  0
   18.2899   19.7869   21.2037 C   0  0  0  0  0  0  0  0  0  0  0  0
   18.1160   20.3185   20.2610 H   0  0  0  0  0  0  0  0  0  0  0  0
   18.0902   18.7282   21.0031 H   0  0  0  0  0  0  0  0  0  0  0  0
   17.2623   20.2975   22.2095 C   0  0  0  0  0  0  0  0  0  0  0  0
   16.6143   19.4822   22.8361 O   0  5  0  0  0  0  0  0  0  0  0  0
   17.1242   21.4995   22.3266 O   0  0  0  0  0  0  0  0  0  0  0  0
  1  2  1  0  0  0  0
  1  3  1  0  0  0  0
  1  4  2  0  0  0  0
  4  5  1  0  0  0  0
  4  6  1  0  0  0  0
  6  7  1  0  0  0  0
  6  8  1  0  0  0  0
  6  9  1  0  0  0  0
  9 10  1  0  0  0  0
  9 11  1  0  0  0  0
  9 12  1  0  0  0  0
 12 13  1  0  0  0  0
 12 14  1  0  0  0  0
 12 15  1  0  0  0  0
 15 16  1  0  0  0  0
 15 17  1  0  0  0  0
 15 18  1  0  0  0  0
 18 19  1  0  0  0  0
 18 20  2  0  0  0  0
M  END
> <VConfSearch Rank>
634

> <Conf_Id>
66

> <Delta U+W>
1.737

> <U+W>
-50.008

> <U>
11.091

> <W>
-61.099

> <W(PB)>
-63.213

> <W(SA)>
2.114

> <Valence>
9.664

> <Coulomb>
0.658

> <VdW>
0.769

> <VdW6>
-9.171

> <VdW12>
9.940

> <Bond>
0.244

> <Angle>
3.658

> <Pdih>
5.762

> <Idih>
0.001

> <Tether>
0.000

$$$$
VeraChem MOL file


 20 19  0  0  0  0  0  0  0  0999 V2000     
   19.6712   18.0904   24.5066 C   0  0  0  0  0  0  0  0  0  0  0  0
   20.7100   18.0049   24.1958 H   0  0  0  0  0  0  0  0  0  0  0  0
   19.4870   18.3350   25.5513 H   0  0  0  0  0  0  0  0  0  0  0  0
   18.6549   17.9012   23.6579 C   0  0  0  0  0  0  0  0  0  0  0  0
   17.6329   17.9969   24.0236 H   0  0  0  0  0  0  0  0  0  0  0  0
   18.7618   17.5625   22.1799 C   0  0  0  0  0  0  0  0  0  0  0  0
   17.9334   18.0431   21.6447 H   0  0  0  0  0  0  0  0  0  0  0  0
   18.5892   16.4854   22.0543 H   0  0  0  0  0  0  0  0  0  0  0  0
   20.0972   17.9471   21.4907 C   0  0  0  0  0  0  0  0  0  0  0  0
   20.9264   17.4238   21.9848 H   0  0  0  0  0  0  0  0  0  0  0  0
   20.0820   17.5698   20.4592 H   0  0  0  0  0  0  0  0  0  0  0  0
   20.3953   19.4679   21.4587 C   0  0  0  0  0  0  0  0  0  0  0  0
   21.3953   19.6192   21.0294 H   0  0  0  0  0  0  0  0  0  0  0  0
   20.4359   19.8686   22.4802 H   0  0  0  0  0  0  0  0  0  0  0  0
   19.3699   20.2831   20.6287 C   0  0  0  0  0  0  0  0  0  0  0  0
   19.2799   19.8638   19.6196 H   0  0  0  0  0  0  0  0  0  0  0  0
   18.3776   20.2376   21.0913 H   0  0  0  0  0  0  0  0  0  0  0  0
   19.7536   21.7526   20.4964 C   0  0  0  0  0  0  0  0  0  0  0  0
   19.3315   22.5341   21.3257 O   0  5  0  0  0  0  0  0  0  0  0  0
   20.4770   22.0753   19.5747 O   0  0  0  0  0  0  0  0  0  0  0  0
  1  2  1  0  0  0  0
  1  3  1  0  0  0  0
  1  4  2  0  0  0  0
  4  5  1  0  0  0  0
  4  6  1  0  0  0  0
  6  7  1  0  0  0  0
  6  8  1  0  0  0  0
  6  9  1  0  0  0  0
  9 10  1  0  0  0  0
  9 11  1  0  0  0  0
  9 12  1  0  0  0  0
 12 13  1  0  0  0  0
 12 14  1  0  0  0  0
 12 15  1  0  0  0  0
 15 16  1  0  0  0  0
 15 17  1  0  0  0  0
 15 18  1  0  0  0  0
 18 19  1  0  0  0  0
 18 20  2  0  0  0  0
M  END
> <VConfSearch Rank>
635

> <Conf_Id>
64

> <Delta U+W>
0.366

> <U+W>
-51.379

> <U>
10.000

> <W>
-61.379

> <W(PB)>
-63.541

> <W(SA)>
2.162

> <Valence>
9.398

> <Coulomb>
-0.504

> <VdW>
1.105

> <VdW6>
-7.975

> <VdW12>
9.080

> <Bond>
0.216

> <Angle>
3.417

> <Pdih>
5.765

> <Idih>
0.001

> <Tether>
0.000

$$$$
VeraChem MOL file


 20 19  0  0  0  0  0  0  0  0999 V2000     
   18.6912   16.4074   21.5984 C   0  0  0  0  0  0  0  0  0  0  0  0
   19.6719   16.0487   21.2903 H   0  0  0  0  0  0  0  0  0  0  0  0
   17.8278   16.0446   21.0434 H   0  0  0  0  0  0  0  0  0  0  0  0
   18.5490   17.2626   22.6145 C   0  0  0  0  0  0  0  0  0  0  0  0
   17.5584   17.6114   22.9053 H   0  0  0  0  0  0  0  0  0  0  0  0
   19.7001   17.8105   23.4310 C   0  0  0  0  0  0  0  0  0  0  0  0
   20.6257   17.2612   23.2115 H   0  0  0  0  0  0  0  0  0  0  0  0
   19.4912   17.6516   24.4972 H   0  0  0  0  0  0  0  0  0  0  0  0
   19.9256   19.3196   23.1867 C   0  0  0  0  0  0  0  0  0  0  0  0
   18.9995   19.8688   23.4055 H   0  0  0  0  0  0  0  0  0  0  0  0
   20.6824   19.6843   23.8946 H   0  0  0  0  0  0  0  0  0  0  0  0
   20.3887   19.6276   21.7444 C   0  0  0  0  0  0  0  0  0  0  0  0
   19.6273   19.2915   21.0272 H   0  0  0  0  0  0  0  0  0  0  0  0
   21.3054   19.0642   21.5219 H   0  0  0  0  0  0  0  0  0  0  0  0
   20.6525   21.1390   21.5342 C   0  0  0  0  0  0  0  0  0  0  0  0
   19.7420   21.7142   21.7406 H   0  0  0  0  0  0  0  0  0  0  0  0
   21.4231   21.4898   22.2311 H   0  0  0  0  0  0  0  0  0  0  0  0
   21.1105   21.4684   20.1179 C   0  0  0  0  0  0  0  0  0  0  0  0
   22.3005   21.4259   19.8756 O   0  5  0  0  0  0  0  0  0  0  0  0
   20.2643   21.7453   19.2908 O   0  0  0  0  0  0  0  0  0  0  0  0
  1  2  1  0  0  0  0
  1  3  1  0  0  0  0
  1  4  2  0  0  0  0
  4  5  1  0  0  0  0
  4  6  1  0  0  0  0
  6  7  1  0  0  0  0
  6  8  1  0  0  0  0
  6  9  1  0  0  0  0
  9 10  1  0  0  0  0
  9 11  1  0  0  0  0
  9 12  1  0  0  0  0
 12 13  1  0  0  0  0
 12 14  1  0  0  0  0
 12 15  1  0  0  0  0
 15 16  1  0  0  0  0
 15 17  1  0  0  0  0
 15 18  1  0  0  0  0
 18 19  1  0  0  0  0
 18 20  2  0  0  0  0
M  END
> <VConfSearch Rank>
636

> <Conf_Id>
42

> <Delta U+W>
-0.601

> <U+W>
-52.347

> <U>
8.428

> <W>
-60.774

> <W(PB)>
-62.982

> <W(SA)>
2.208

> <Valence>
9.231

> <Coulomb>
-1.304

> <VdW>
0.501

> <VdW6>
-6.515

> <VdW12>
7.016

> <Bond>
0.103

> <Angle>
2.328

> <Pdih>
6.799

> <Idih>
0.000

> <Tether>
0.000

$$$$
VeraChem MOL file


 20 19  0  0  0  0  0  0  0  0999 V2000     
   20.8950   18.7025   19.3597 C   0  0  0  0  0  0  0  0  0  0  0  0
   20.2359   17.8631   19.1438 H   0  0  0  0  0  0  0  0  0  0  0  0
   21.9272   18.6290   19.0218 H   0  0  0  0  0  0  0  0  0  0  0  0
   20.4589   19.7804   20.0169 C   0  0  0  0  0  0  0  0  0  0  0  0
   21.1357   20.6086   20.2254 H   0  0  0  0  0  0  0  0  0  0  0  0
   19.0410   19.9537   20.5182 C   0  0  0  0  0  0  0  0  0  0  0  0
   18.3858   19.1767   20.1017 H   0  0  0  0  0  0  0  0  0  0  0  0
   18.6485   20.9146   20.1598 H   0  0  0  0  0  0  0  0  0  0  0  0
   18.9583   19.9263   22.0611 C   0  0  0  0  0  0  0  0  0  0  0  0
   19.6091   20.7086   22.4754 H   0  0  0  0  0  0  0  0  0  0  0  0
   17.9335   20.1777   22.3666 H   0  0  0  0  0  0  0  0  0  0  0  0
   19.3429   18.5505   22.6549 C   0  0  0  0  0  0  0  0  0  0  0  0
   20.3811   18.3051   22.3919 H   0  0  0  0  0  0  0  0  0  0  0  0
   18.7116   17.7728   22.2045 H   0  0  0  0  0  0  0  0  0  0  0  0
   19.1819   18.5008   24.1965 C   0  0  0  0  0  0  0  0  0  0  0  0
   18.1562   18.7666   24.4795 H   0  0  0  0  0  0  0  0  0  0  0  0
   19.3535   17.4772   24.5498 H   0  0  0  0  0  0  0  0  0  0  0  0
   20.1464   19.4123   24.9499 C   0  0  0  0  0  0  0  0  0  0  0  0
   19.7189   20.4579   25.3985 O   0  5  0  0  0  0  0  0  0  0  0  0
   21.2966   19.0431   25.0838 O   0  0  0  0  0  0  0  0  0  0  0  0
  1  2  1  0  0  0  0
  1  3  1  0  0  0  0
  1  4  2  0  0  0  0
  4  5  1  0  0  0  0
  4  6  1  0  0  0  0
  6  7  1  0  0  0  0
  6  8  1  0  0  0  0
  6  9  1  0  0  0  0
  9 10  1  0  0  0  0
  9 11  1  0  0  0  0
  9 12  1  0  0  0  0
 12 13  1  0  0  0  0
 12 14  1  0  0  0  0
 12 15  1  0  0  0  0
 15 16  1  0  0  0  0
 15 17  1  0  0  0  0
 15 18  1  0  0  0  0
 18 19  1  0  0  0  0
 18 20  2  0  0  0  0
M  END
> <VConfSearch Rank>
637

> <Conf_Id>
68

> <Delta U+W>
0.492

> <U+W>
-51.253

> <U>
10.179

> <W>
-61.432

> <W(PB)>
-63.627

> <W(SA)>
2.195

> <Valence>
9.483

> <Coulomb>
0.361

> <VdW>
0.335

> <VdW6>
-7.385

> <VdW12>
7.720

> <Bond>
0.125

> <Angle>
2.487

> <Pdih>
6.870

> <Idih>
0.001

> <Tether>
0.000

$$$$
VeraChem MOL file


 20 19  0  0  0  0  0  0  0  0999 V2000     
   21.1773   21.2163   20.0850 C   0  0  0  0  0  0  0  0  0  0  0  0
   22.1901   21.2324   20.4845 H   0  0  0  0  0  0  0  0  0  0  0  0
   20.8154   22.1214   19.6003 H   0  0  0  0  0  0  0  0  0  0  0  0
   20.4047   20.1317   20.1868 C   0  0  0  0  0  0  0  0  0  0  0  0
   19.3949   20.1362   19.7776 H   0  0  0  0  0  0  0  0  0  0  0  0
   20.8415   18.8382   20.8409 C   0  0  0  0  0  0  0  0  0  0  0  0
   21.9378   18.8055   20.9015 H   0  0  0  0  0  0  0  0  0  0  0  0
   20.5427   17.9845   20.2180 H   0  0  0  0  0  0  0  0  0  0  0  0
   20.2619   18.6739   22.2640 C   0  0  0  0  0  0  0  0  0  0  0  0
   20.7157   17.7893   22.7313 H   0  0  0  0  0  0  0  0  0  0  0  0
   20.5553   19.5370   22.8776 H   0  0  0  0  0  0  0  0  0  0  0  0
   18.7226   18.5189   22.2723 C   0  0  0  0  0  0  0  0  0  0  0  0
   18.4387   17.6846   21.6168 H   0  0  0  0  0  0  0  0  0  0  0  0
   18.2512   19.4211   21.8591 H   0  0  0  0  0  0  0  0  0  0  0  0
   18.1588   18.2570   23.6930 C   0  0  0  0  0  0  0  0  0  0  0  0
   17.0861   18.0401   23.6272 H   0  0  0  0  0  0  0  0  0  0  0  0
   18.6350   17.3725   24.1331 H   0  0  0  0  0  0  0  0  0  0  0  0
   18.3297   19.4304   24.6536 C   0  0  0  0  0  0  0  0  0  0  0  0
   17.5691   20.3724   24.5474 O   0  5  0  0  0  0  0  0  0  0  0  0
   19.2049   19.3637   25.4942 O   0  0  0  0  0  0  0  0  0  0  0  0
  1  2  1  0  0  0  0
  1  3  1  0  0  0  0
  1  4  2  0  0  0  0
  4  5  1  0  0  0  0
  4  6  1  0  0  0  0
  6  7  1  0  0  0  0
  6  8  1  0  0  0  0
  6  9  1  0  0  0  0
  9 10  1  0  0  0  0
  9 11  1  0  0  0  0
  9 12  1  0  0  0  0
 12 13  1  0  0  0  0
 12 14  1  0  0  0  0
 12 15  1  0  0  0  0
 15 16  1  0  0  0  0
 15 17  1  0  0  0  0
 15 18  1  0  0  0  0
 18 19  1  0  0  0  0
 18 20  2  0  0  0  0
M  END
> <VConfSearch Rank>
638

> <Conf_Id>
87

> <Delta U+W>
0.339

> <U+W>
-51.407

> <U>
10.461

> <W>
-61.867

> <W(PB)>
-64.045

> <W(SA)>
2.178

> <Valence>
9.555

> <Coulomb>
0.483

> <VdW>
0.423

> <VdW6>
-7.223

> <VdW12>
7.646

> <Bond>
0.126

> <Angle>
2.492

> <Pdih>
6.936

> <Idih>
0.001

> <Tether>
0.000

$$$$
VeraChem MOL file


 20 19  0  0  0  0  0  0  0  0999 V2000     
   17.6236   17.3949   20.5938 C   0  0  0  0  0  0  0  0  0  0  0  0
   16.7493   17.4851   21.2364 H   0  0  0  0  0  0  0  0  0  0  0  0
   17.4555   17.3629   19.5187 H   0  0  0  0  0  0  0  0  0  0  0  0
   18.8566   17.3283   21.1027 C   0  0  0  0  0  0  0  0  0  0  0  0
   19.7183   17.2292   20.4437 H   0  0  0  0  0  0  0  0  0  0  0  0
   19.1622   17.3542   22.5851 C   0  0  0  0  0  0  0  0  0  0  0  0
   20.1640   16.9460   22.7742 H   0  0  0  0  0  0  0  0  0  0  0  0
   18.4638   16.6779   23.0961 H   0  0  0  0  0  0  0  0  0  0  0  0
   19.0348   18.7616   23.2194 C   0  0  0  0  0  0  0  0  0  0  0  0
   18.1106   19.2462   22.8760 H   0  0  0  0  0  0  0  0  0  0  0  0
   18.9221   18.6333   24.3045 H   0  0  0  0  0  0  0  0  0  0  0  0
   20.2467   19.6972   22.9804 C   0  0  0  0  0  0  0  0  0  0  0  0
   21.1706   19.2038   23.3121 H   0  0  0  0  0  0  0  0  0  0  0  0
   20.1270   20.5850   23.6167 H   0  0  0  0  0  0  0  0  0  0  0  0
   20.4086   20.1677   21.5122 C   0  0  0  0  0  0  0  0  0  0  0  0
   20.6780   19.3263   20.8659 H   0  0  0  0  0  0  0  0  0  0  0  0
   19.4629   20.5781   21.1385 H   0  0  0  0  0  0  0  0  0  0  0  0
   21.4857   21.2340   21.3499 C   0  0  0  0  0  0  0  0  0  0  0  0
   22.6285   20.8705   21.1531 O   0  5  0  0  0  0  0  0  0  0  0  0
   21.1576   22.4002   21.4453 O   0  0  0  0  0  0  0  0  0  0  0  0
  1  2  1  0  0  0  0
  1  3  1  0  0  0  0
  1  4  2  0  0  0  0
  4  5  1  0  0  0  0
  4  6  1  0  0  0  0
  6  7  1  0  0  0  0
  6  8  1  0  0  0  0
  6  9  1  0  0  0  0
  9 10  1  0  0  0  0
  9 11  1  0  0  0  0
  9 12  1  0  0  0  0
 12 13  1  0  0  0  0
 12 14  1  0  0  0  0
 12 15  1  0  0  0  0
 15 16  1  0  0  0  0
 15 17  1  0  0  0  0
 15 18  1  0  0  0  0
 18 19  1  0  0  0  0
 18 20  2  0  0  0  0
M  END
> <VConfSearch Rank>
639

> <Conf_Id>
51

> <Delta U+W>
1.709

> <U+W>
-50.036

> <U>
10.643

> <W>
-60.679

> <W(PB)>
-62.882

> <W(SA)>
2.203

> <Valence>
11.231

> <Coulomb>
-1.077

> <VdW>
0.489

> <VdW6>
-7.546

> <VdW12>
8.035

> <Bond>
0.159

> <Angle>
3.005

> <Pdih>
8.065

> <Idih>
0.002

> <Tether>
0.000

$$$$
VeraChem MOL file


 20 19  0  0  0  0  0  0  0  0999 V2000     
   22.3714   19.0183   22.5864 C   0  0  0  0  0  0  0  0  0  0  0  0
   22.3779   18.6539   23.6124 H   0  0  0  0  0  0  0  0  0  0  0  0
   23.1262   19.7521   22.3093 H   0  0  0  0  0  0  0  0  0  0  0  0
   21.4709   18.5849   21.7005 C   0  0  0  0  0  0  0  0  0  0  0  0
   21.4862   18.9547   20.6759 H   0  0  0  0  0  0  0  0  0  0  0  0
   20.4030   17.5584   22.0129 C   0  0  0  0  0  0  0  0  0  0  0  0
   20.8659   16.7342   22.5722 H   0  0  0  0  0  0  0  0  0  0  0  0
   20.0220   17.1114   21.0850 H   0  0  0  0  0  0  0  0  0  0  0  0
   19.2287   18.1216   22.8513 C   0  0  0  0  0  0  0  0  0  0  0  0
   18.7095   17.2728   23.3168 H   0  0  0  0  0  0  0  0  0  0  0  0
   19.6165   18.7288   23.6806 H   0  0  0  0  0  0  0  0  0  0  0  0
   18.1800   18.9291   22.0454 C   0  0  0  0  0  0  0  0  0  0  0  0
   17.3167   19.1198   22.6979 H   0  0  0  0  0  0  0  0  0  0  0  0
   17.8049   18.3238   21.2087 H   0  0  0  0  0  0  0  0  0  0  0  0
   18.6969   20.2892   21.5107 C   0  0  0  0  0  0  0  0  0  0  0  0
   19.1592   20.8651   22.3213 H   0  0  0  0  0  0  0  0  0  0  0  0
   19.4608   20.1354   20.7420 H   0  0  0  0  0  0  0  0  0  0  0  0
   17.5916   21.1396   20.8951 C   0  0  0  0  0  0  0  0  0  0  0  0
   17.3442   20.9926   19.7144 O   0  5  0  0  0  0  0  0  0  0  0  0
   16.9927   21.9123   21.6170 O   0  0  0  0  0  0  0  0  0  0  0  0
  1  2  1  0  0  0  0
  1  3  1  0  0  0  0
  1  4  2  0  0  0  0
  4  5  1  0  0  0  0
  4  6  1  0  0  0  0
  6  7  1  0  0  0  0
  6  8  1  0  0  0  0
  6  9  1  0  0  0  0
  9 10  1  0  0  0  0
  9 11  1  0  0  0  0
  9 12  1  0  0  0  0
 12 13  1  0  0  0  0
 12 14  1  0  0  0  0
 12 15  1  0  0  0  0
 15 16  1  0  0  0  0
 15 17  1  0  0  0  0
 15 18  1  0  0  0  0
 18 19  1  0  0  0  0
 18 20  2  0  0  0  0
M  END
> <VConfSearch Rank>
640

> <Conf_Id>
91

> <Delta U+W>
1.604

> <U+W>
-50.141

> <U>
10.644

> <W>
-60.786

> <W(PB)>
-62.965

> <W(SA)>
2.179

> <Valence>
11.230

> <Coulomb>
-1.075

> <VdW>
0.489

> <VdW6>
-7.547

> <VdW12>
8.036

> <Bond>
0.159

> <Angle>
3.006

> <Pdih>
8.064

> <Idih>
0.002

> <Tether>
0.000

$$$$
VeraChem MOL file


 20 19  0  0  0  0  0  0  0  0999 V2000     
   20.4829   22.2297   20.2051 C   0  0  0  0  0  0  0  0  0  0  0  0
   21.3028   21.7442   19.6784 H   0  0  0  0  0  0  0  0  0  0  0  0
   20.5013   23.3165   20.2675 H   0  0  0  0  0  0  0  0  0  0  0  0
   19.4926   21.5235   20.7568 C   0  0  0  0  0  0  0  0  0  0  0  0
   18.6814   22.0291   21.2804 H   0  0  0  0  0  0  0  0  0  0  0  0
   19.3993   20.0147   20.7099 C   0  0  0  0  0  0  0  0  0  0  0  0
   20.0932   19.6138   19.9585 H   0  0  0  0  0  0  0  0  0  0  0  0
   18.3891   19.7185   20.3969 H   0  0  0  0  0  0  0  0  0  0  0  0
   19.7176   19.3938   22.0862 C   0  0  0  0  0  0  0  0  0  0  0  0
   20.7272   19.6966   22.3965 H   0  0  0  0  0  0  0  0  0  0  0  0
   19.0204   19.7915   22.8365 H   0  0  0  0  0  0  0  0  0  0  0  0
   19.6240   17.8526   22.0570 C   0  0  0  0  0  0  0  0  0  0  0  0
   20.3213   17.4540   21.3071 H   0  0  0  0  0  0  0  0  0  0  0  0
   18.6148   17.5492   21.7455 H   0  0  0  0  0  0  0  0  0  0  0  0
   19.9449   17.2285   23.4412 C   0  0  0  0  0  0  0  0  0  0  0  0
   20.9533   17.5221   23.7553 H   0  0  0  0  0  0  0  0  0  0  0  0
   19.2484   17.6171   24.1935 H   0  0  0  0  0  0  0  0  0  0  0  0
   19.8750   15.7018   23.5005 C   0  0  0  0  0  0  0  0  0  0  0  0
   20.1189   15.1767   24.5687 O   0  5  0  0  0  0  0  0  0  0  0  0
   19.5847   15.0722   22.5015 O   0  0  0  0  0  0  0  0  0  0  0  0
  1  2  1  0  0  0  0
  1  3  1  0  0  0  0
  1  4  2  0  0  0  0
  4  5  1  0  0  0  0
  4  6  1  0  0  0  0
  6  7  1  0  0  0  0
  6  8  1  0  0  0  0
  6  9  1  0  0  0  0
  9 10  1  0  0  0  0
  9 11  1  0  0  0  0
  9 12  1  0  0  0  0
 12 13  1  0  0  0  0
 12 14  1  0  0  0  0
 12 15  1  0  0  0  0
 15 16  1  0  0  0  0
 15 17  1  0  0  0  0
 15 18  1  0  0  0  0
 18 19  1  0  0  0  0
 18 20  2  0  0  0  0
M  END
> <VConfSearch Rank>
641

> <Conf_Id>
33

> <Delta U+W>
0.000

> <U+W>
-51.745

> <U>
7.593

> <W>
-59.338

> <W(PB)>
-61.574

> <W(SA)>
2.236

> <Valence>
9.570

> <Coulomb>
-3.091

> <VdW>
1.114

> <VdW6>
-6.064

> <VdW12>
7.178

> <Bond>
0.117

> <Angle>
2.692

> <Pdih>
6.761

> <Idih>
0.000

> <Tether>
0.000

$$$$
VeraChem MOL file


 20 19  0  0  0  0  0  0  0  0999 V2000     
   19.9085   16.1551   19.7050 C   0  0  0  0  0  0  0  0  0  0  0  0
   18.9072   16.3751   19.3382 H   0  0  0  0  0  0  0  0  0  0  0  0
   20.3516   15.2046   19.4126 H   0  0  0  0  0  0  0  0  0  0  0  0
   20.5700   17.0138   20.4853 C   0  0  0  0  0  0  0  0  0  0  0  0
   21.5713   16.7741   20.8424 H   0  0  0  0  0  0  0  0  0  0  0  0
   20.0205   18.3506   20.9312 C   0  0  0  0  0  0  0  0  0  0  0  0
   19.1408   18.6189   20.3306 H   0  0  0  0  0  0  0  0  0  0  0  0
   20.7750   19.1272   20.7537 H   0  0  0  0  0  0  0  0  0  0  0  0
   19.6324   18.3199   22.4267 C   0  0  0  0  0  0  0  0  0  0  0  0
   18.9420   17.4819   22.5955 H   0  0  0  0  0  0  0  0  0  0  0  0
   20.5236   18.1149   23.0356 H   0  0  0  0  0  0  0  0  0  0  0  0
   18.9560   19.6227   22.9157 C   0  0  0  0  0  0  0  0  0  0  0  0
   18.6128   19.4749   23.9491 H   0  0  0  0  0  0  0  0  0  0  0  0
   18.0570   19.8220   22.3162 H   0  0  0  0  0  0  0  0  0  0  0  0
   19.8911   20.8591   22.8737 C   0  0  0  0  0  0  0  0  0  0  0  0
   20.8119   20.6567   23.4336 H   0  0  0  0  0  0  0  0  0  0  0  0
   20.1810   21.0898   21.8424 H   0  0  0  0  0  0  0  0  0  0  0  0
   19.2441   22.1073   23.4632 C   0  0  0  0  0  0  0  0  0  0  0  0
   18.6013   22.8248   22.7224 O   0  5  0  0  0  0  0  0  0  0  0  0
   19.3833   22.3187   24.6517 O   0  0  0  0  0  0  0  0  0  0  0  0
  1  2  1  0  0  0  0
  1  3  1  0  0  0  0
  1  4  2  0  0  0  0
  4  5  1  0  0  0  0
  4  6  1  0  0  0  0
  6  7  1  0  0  0  0
  6  8  1  0  0  0  0
  6  9  1  0  0  0  0
  9 10  1  0  0  0  0
  9 11  1  0  0  0  0
  9 12  1  0  0  0  0
 12 13  1  0  0  0  0
 12 14  1  0  0  0  0
 12 15  1  0  0  0  0
 15 16  1  0  0  0  0
 15 17  1  0  0  0  0
 15 18  1  0  0  0  0
 18 19  1  0  0  0  0
 18 20  2  0  0  0  0
M  END
> <VConfSearch Rank>
642

> <Conf_Id>
37

> <Delta U+W>
-0.384

> <U+W>
-52.130

> <U>
7.491

> <W>
-59.621

> <W(PB)>
-61.853

> <W(SA)>
2.232

> <Valence>
9.604

> <Coulomb>
-2.799

> <VdW>
0.686

> <VdW6>
-6.435

> <VdW12>
7.121

> <Bond>
0.124

> <Angle>
2.493

> <Pdih>
6.986

> <Idih>
0.001

> <Tether>
0.000

$$$$
VeraChem MOL file


 20 19  0  0  0  0  0  0  0  0999 V2000     
   19.3893   17.3241   19.0371 C   0  0  0  0  0  0  0  0  0  0  0  0
   19.2547   16.7904   18.0978 H   0  0  0  0  0  0  0  0  0  0  0  0
   19.7204   16.7378   19.8916 H   0  0  0  0  0  0  0  0  0  0  0  0
   19.1532   18.6386   19.1159 C   0  0  0  0  0  0  0  0  0  0  0  0
   18.8230   19.1720   18.2248 H   0  0  0  0  0  0  0  0  0  0  0  0
   19.2955   19.5148   20.3492 C   0  0  0  0  0  0  0  0  0  0  0  0
   18.3322   20.0032   20.5481 H   0  0  0  0  0  0  0  0  0  0  0  0
   19.9989   20.3279   20.1251 H   0  0  0  0  0  0  0  0  0  0  0  0
   19.7632   18.7772   21.6256 C   0  0  0  0  0  0  0  0  0  0  0  0
   19.0521   17.9753   21.8674 H   0  0  0  0  0  0  0  0  0  0  0  0
   20.7369   18.3035   21.4398 H   0  0  0  0  0  0  0  0  0  0  0  0
   19.8820   19.7366   22.8300 C   0  0  0  0  0  0  0  0  0  0  0  0
   18.9107   20.2139   23.0211 H   0  0  0  0  0  0  0  0  0  0  0  0
   20.5921   20.5414   22.5943 H   0  0  0  0  0  0  0  0  0  0  0  0
   20.3501   19.0003   24.1093 C   0  0  0  0  0  0  0  0  0  0  0  0
   19.6442   18.2014   24.3664 H   0  0  0  0  0  0  0  0  0  0  0  0
   21.3256   18.5289   23.9396 H   0  0  0  0  0  0  0  0  0  0  0  0
   20.4753   19.9270   25.3133 C   0  0  0  0  0  0  0  0  0  0  0  0
   19.4990   20.0849   26.0195 O   0  5  0  0  0  0  0  0  0  0  0  0
   21.5398   20.4820   25.5017 O   0  0  0  0  0  0  0  0  0  0  0  0
  1  2  1  0  0  0  0
  1  3  1  0  0  0  0
  1  4  2  0  0  0  0
  4  5  1  0  0  0  0
  4  6  1  0  0  0  0
  6  7  1  0  0  0  0
  6  8  1  0  0  0  0
  6  9  1  0  0  0  0
  9 10  1  0  0  0  0
  9 11  1  0  0  0  0
  9 12  1  0  0  0  0
 12 13  1  0  0  0  0
 12 14  1  0  0  0  0
 12 15  1  0  0  0  0
 15 16  1  0  0  0  0
 15 17  1  0  0  0  0
 15 18  1  0  0  0  0
 18 19  1  0  0  0  0
 18 20  2  0  0  0  0
M  END
> <VConfSearch Rank>
643

> <Conf_Id>
44

> <Delta U+W>
-1.440

> <U+W>
-53.185

> <U>
6.572

> <W>
-59.757

> <W(PB)>
-62.007

> <W(SA)>
2.249

> <Valence>
7.989

> <Coulomb>
-2.697

> <VdW>
1.281

> <VdW6>
-6.467

> <VdW12>
7.748

> <Bond>
0.136

> <Angle>
2.854

> <Pdih>
4.997

> <Idih>
0.001

> <Tether>
0.000

$$$$
VeraChem MOL file


 20 19  0  0  0  0  0  0  0  0999 V2000     
   17.9084   21.1298   19.8942 C   0  0  0  0  0  0  0  0  0  0  0  0
   18.9012   21.5027   19.6474 H   0  0  0  0  0  0  0  0  0  0  0  0
   17.0557   21.7299   19.5812 H   0  0  0  0  0  0  0  0  0  0  0  0
   17.7389   19.9828   20.5572 C   0  0  0  0  0  0  0  0  0  0  0  0
   16.7364   19.6276   20.7948 H   0  0  0  0  0  0  0  0  0  0  0  0
   18.8731   19.0967   21.0222 C   0  0  0  0  0  0  0  0  0  0  0  0
   19.8024   19.3828   20.5132 H   0  0  0  0  0  0  0  0  0  0  0  0
   18.6643   18.0560   20.7406 H   0  0  0  0  0  0  0  0  0  0  0  0
   19.0599   19.1919   22.5532 C   0  0  0  0  0  0  0  0  0  0  0  0
   19.3225   20.2228   22.8281 H   0  0  0  0  0  0  0  0  0  0  0  0
   18.1003   18.9757   23.0426 H   0  0  0  0  0  0  0  0  0  0  0  0
   20.1262   18.2170   23.1072 C   0  0  0  0  0  0  0  0  0  0  0  0
   19.8597   17.1847   22.8414 H   0  0  0  0  0  0  0  0  0  0  0  0
   20.1130   18.2676   24.2048 H   0  0  0  0  0  0  0  0  0  0  0  0
   21.5633   18.5249   22.6122 C   0  0  0  0  0  0  0  0  0  0  0  0
   21.6348   18.3941   21.5266 H   0  0  0  0  0  0  0  0  0  0  0  0
   21.8246   19.5668   22.8328 H   0  0  0  0  0  0  0  0  0  0  0  0
   22.6134   17.6274   23.2570 C   0  0  0  0  0  0  0  0  0  0  0  0
   23.1285   17.9999   24.2927 O   0  5  0  0  0  0  0  0  0  0  0  0
   22.8742   16.5702   22.7175 O   0  0  0  0  0  0  0  0  0  0  0  0
  1  2  1  0  0  0  0
  1  3  1  0  0  0  0
  1  4  2  0  0  0  0
  4  5  1  0  0  0  0
  4  6  1  0  0  0  0
  6  7  1  0  0  0  0
  6  8  1  0  0  0  0
  6  9  1  0  0  0  0
  9 10  1  0  0  0  0
  9 11  1  0  0  0  0
  9 12  1  0  0  0  0
 12 13  1  0  0  0  0
 12 14  1  0  0  0  0
 12 15  1  0  0  0  0
 15 16  1  0  0  0  0
 15 17  1  0  0  0  0
 15 18  1  0  0  0  0
 18 19  1  0  0  0  0
 18 20  2  0  0  0  0
M  END
> <VConfSearch Rank>
644

> <Conf_Id>
38

> <Delta U+W>
-0.381

> <U+W>
-52.126

> <U>
7.601

> <W>
-59.727

> <W(PB)>
-61.964

> <W(SA)>
2.236

> <Valence>
9.602

> <Coulomb>
-2.686

> <VdW>
0.685

> <VdW6>
-6.453

> <VdW12>
7.139

> <Bond>
0.125

> <Angle>
2.485

> <Pdih>
6.991

> <Idih>
0.001

> <Tether>
0.000

$$$$
VeraChem MOL file


 20 19  0  0  0  0  0  0  0  0999 V2000     
   21.0883   15.9426   22.0391 C   0  0  0  0  0  0  0  0  0  0  0  0
   21.7445   16.1559   22.8814 H   0  0  0  0  0  0  0  0  0  0  0  0
   20.8505   14.8988   21.8412 H   0  0  0  0  0  0  0  0  0  0  0  0
   20.5905   16.9202   21.2774 C   0  0  0  0  0  0  0  0  0  0  0  0
   19.9346   16.6852   20.4394 H   0  0  0  0  0  0  0  0  0  0  0  0
   20.8764   18.3901   21.4906 C   0  0  0  0  0  0  0  0  0  0  0  0
   21.1654   18.8502   20.5362 H   0  0  0  0  0  0  0  0  0  0  0  0
   21.7276   18.5168   22.1734 H   0  0  0  0  0  0  0  0  0  0  0  0
   19.6437   19.1199   22.0641 C   0  0  0  0  0  0  0  0  0  0  0  0
   18.7946   18.9936   21.3782 H   0  0  0  0  0  0  0  0  0  0  0  0
   19.3548   18.6538   23.0162 H   0  0  0  0  0  0  0  0  0  0  0  0
   19.9181   20.6246   22.2852 C   0  0  0  0  0  0  0  0  0  0  0  0
   20.1972   21.0962   21.3327 H   0  0  0  0  0  0  0  0  0  0  0  0
   20.7776   20.7408   22.9593 H   0  0  0  0  0  0  0  0  0  0  0  0
   18.7002   21.3702   22.8900 C   0  0  0  0  0  0  0  0  0  0  0  0
   18.3918   20.8936   23.8284 H   0  0  0  0  0  0  0  0  0  0  0  0
   18.9858   22.3998   23.1357 H   0  0  0  0  0  0  0  0  0  0  0  0
   17.4924   21.4414   21.9598 C   0  0  0  0  0  0  0  0  0  0  0  0
   16.5443   20.7170   22.1906 O   0  5  0  0  0  0  0  0  0  0  0  0
   17.5283   22.2286   21.0346 O   0  0  0  0  0  0  0  0  0  0  0  0
  1  2  1  0  0  0  0
  1  3  1  0  0  0  0
  1  4  2  0  0  0  0
  4  5  1  0  0  0  0
  4  6  1  0  0  0  0
  6  7  1  0  0  0  0
  6  8  1  0  0  0  0
  6  9  1  0  0  0  0
  9 10  1  0  0  0  0
  9 11  1  0  0  0  0
  9 12  1  0  0  0  0
 12 13  1  0  0  0  0
 12 14  1  0  0  0  0
 12 15  1  0  0  0  0
 15 16  1  0  0  0  0
 15 17  1  0  0  0  0
 15 18  1  0  0  0  0
 18 19  1  0  0  0  0
 18 20  2  0  0  0  0
M  END
> <VConfSearch Rank>
645

> <Conf_Id>
58

> <Delta U+W>
0.019

> <U+W>
-51.727

> <U>
8.963

> <W>
-60.690

> <W(PB)>
-62.934

> <W(SA)>
2.244

> <Valence>
9.327

> <Coulomb>
-0.780

> <VdW>
0.417

> <VdW6>
-6.635

> <VdW12>
7.052

> <Bond>
0.105

> <Angle>
2.399

> <Pdih>
6.822

> <Idih>
0.000

> <Tether>
0.000

$$$$
VeraChem MOL file


 20 19  0  0  0  0  0  0  0  0999 V2000     
   18.2609   21.6148   24.2419 C   0  0  0  0  0  0  0  0  0  0  0  0
   17.2648   21.4549   23.8324 H   0  0  0  0  0  0  0  0  0  0  0  0
   18.4435   22.5530   24.7632 H   0  0  0  0  0  0  0  0  0  0  0  0
   19.2247   20.6998   24.1098 C   0  0  0  0  0  0  0  0  0  0  0  0
   20.2155   20.8799   24.5264 H   0  0  0  0  0  0  0  0  0  0  0  0
   19.0454   19.3759   23.4007 C   0  0  0  0  0  0  0  0  0  0  0  0
   17.9778   19.1700   23.2441 H   0  0  0  0  0  0  0  0  0  0  0  0
   19.4345   18.5656   24.0318 H   0  0  0  0  0  0  0  0  0  0  0  0
   19.7757   19.3685   22.0415 C   0  0  0  0  0  0  0  0  0  0  0  0
   19.3873   20.1833   21.4149 H   0  0  0  0  0  0  0  0  0  0  0  0
   20.8436   19.5724   22.2012 H   0  0  0  0  0  0  0  0  0  0  0  0
   19.6050   18.0208   21.3047 C   0  0  0  0  0  0  0  0  0  0  0  0
   18.5347   17.8182   21.1635 H   0  0  0  0  0  0  0  0  0  0  0  0
   20.0023   17.2047   21.9242 H   0  0  0  0  0  0  0  0  0  0  0  0
   20.3068   18.0041   19.9219 C   0  0  0  0  0  0  0  0  0  0  0  0
   20.0562   17.0761   19.3948 H   0  0  0  0  0  0  0  0  0  0  0  0
   19.9406   18.8308   19.3011 H   0  0  0  0  0  0  0  0  0  0  0  0
   21.8286   18.0890   19.9978 C   0  0  0  0  0  0  0  0  0  0  0  0
   22.4412   17.0941   20.3325 O   0  5  0  0  0  0  0  0  0  0  0  0
   22.3618   19.1425   19.7102 O   0  0  0  0  0  0  0  0  0  0  0  0
  1  2  1  0  0  0  0
  1  3  1  0  0  0  0
  1  4  2  0  0  0  0
  4  5  1  0  0  0  0
  4  6  1  0  0  0  0
  6  7  1  0  0  0  0
  6  8  1  0  0  0  0
  6  9  1  0  0  0  0
  9 10  1  0  0  0  0
  9 11  1  0  0  0  0
  9 12  1  0  0  0  0
 12 13  1  0  0  0  0
 12 14  1  0  0  0  0
 12 15  1  0  0  0  0
 15 16  1  0  0  0  0
 15 17  1  0  0  0  0
 15 18  1  0  0  0  0
 18 19  1  0  0  0  0
 18 20  2  0  0  0  0
M  END
> <VConfSearch Rank>
646

> <Conf_Id>
54

> <Delta U+W>
-0.048

> <U+W>
-51.793

> <U>
8.964

> <W>
-60.756

> <W(PB)>
-63.007

> <W(SA)>
2.251

> <Valence>
9.327

> <Coulomb>
-0.780

> <VdW>
0.417

> <VdW6>
-6.635

> <VdW12>
7.052

> <Bond>
0.105

> <Angle>
2.399

> <Pdih>
6.822

> <Idih>
0.000

> <Tether>
0.000

$$$$
VeraChem MOL file


 20 19  0  0  0  0  0  0  0  0999 V2000     
   19.5602   18.5888   25.3334 C   0  0  0  0  0  0  0  0  0  0  0  0
   20.0439   17.8933   26.0171 H   0  0  0  0  0  0  0  0  0  0  0  0
   19.3816   19.6014   25.6916 H   0  0  0  0  0  0  0  0  0  0  0  0
   19.2039   18.2116   24.1028 C   0  0  0  0  0  0  0  0  0  0  0  0
   19.3888   17.1921   23.7655 H   0  0  0  0  0  0  0  0  0  0  0  0
   18.5225   19.1202   23.1018 C   0  0  0  0  0  0  0  0  0  0  0  0
   18.0601   19.9674   23.6262 H   0  0  0  0  0  0  0  0  0  0  0  0
   17.7037   18.5828   22.6050 H   0  0  0  0  0  0  0  0  0  0  0  0
   19.5036   19.6705   22.0422 C   0  0  0  0  0  0  0  0  0  0  0  0
   18.9808   20.4238   21.4371 H   0  0  0  0  0  0  0  0  0  0  0  0
   20.3298   20.1917   22.5450 H   0  0  0  0  0  0  0  0  0  0  0  0
   20.0670   18.5683   21.1138 C   0  0  0  0  0  0  0  0  0  0  0  0
   19.2403   18.0371   20.6220 H   0  0  0  0  0  0  0  0  0  0  0  0
   20.6083   17.8249   21.7138 H   0  0  0  0  0  0  0  0  0  0  0  0
   21.0290   19.1320   20.0358 C   0  0  0  0  0  0  0  0  0  0  0  0
   21.8421   19.6942   20.5108 H   0  0  0  0  0  0  0  0  0  0  0  0
   21.4934   18.3026   19.4896 H   0  0  0  0  0  0  0  0  0  0  0  0
   20.3501   20.0318   19.0071 C   0  0  0  0  0  0  0  0  0  0  0  0
   20.5194   21.2323   19.0910 O   0  5  0  0  0  0  0  0  0  0  0  0
   19.6778   19.5060   18.1418 O   0  0  0  0  0  0  0  0  0  0  0  0
  1  2  1  0  0  0  0
  1  3  1  0  0  0  0
  1  4  2  0  0  0  0
  4  5  1  0  0  0  0
  4  6  1  0  0  0  0
  6  7  1  0  0  0  0
  6  8  1  0  0  0  0
  6  9  1  0  0  0  0
  9 10  1  0  0  0  0
  9 11  1  0  0  0  0
  9 12  1  0  0  0  0
 12 13  1  0  0  0  0
 12 14  1  0  0  0  0
 12 15  1  0  0  0  0
 15 16  1  0  0  0  0
 15 17  1  0  0  0  0
 15 18  1  0  0  0  0
 18 19  1  0  0  0  0
 18 20  2  0  0  0  0
M  END
> <VConfSearch Rank>
647

> <Conf_Id>
27

> <Delta U+W>
0.478

> <U+W>
-51.267

> <U>
9.192

> <W>
-60.459

> <W(PB)>
-62.649

> <W(SA)>
2.190

> <Valence>
9.572

> <Coulomb>
-0.884

> <VdW>
0.504

> <VdW6>
-7.168

> <VdW12>
7.672

> <Bond>
0.127

> <Angle>
2.504

> <Pdih>
6.941

> <Idih>
0.001

> <Tether>
0.000

$$$$
VeraChem MOL file


 20 19  0  0  0  0  0  0  0  0999 V2000     
   16.9151   16.9178   22.0299 C   0  0  0  0  0  0  0  0  0  0  0  0
   16.1451   17.4563   21.4799 H   0  0  0  0  0  0  0  0  0  0  0  0
   16.5895   16.2602   22.8341 H   0  0  0  0  0  0  0  0  0  0  0  0
   18.2101   17.0580   21.7346 C   0  0  0  0  0  0  0  0  0  0  0  0
   18.9643   16.5071   22.2958 H   0  0  0  0  0  0  0  0  0  0  0  0
   18.7355   17.9475   20.6281 C   0  0  0  0  0  0  0  0  0  0  0  0
   17.9296   18.1661   19.9145 H   0  0  0  0  0  0  0  0  0  0  0  0
   19.5132   17.4189   20.0607 H   0  0  0  0  0  0  0  0  0  0  0  0
   19.2979   19.2833   21.1642 C   0  0  0  0  0  0  0  0  0  0  0  0
   19.5385   19.9332   20.3118 H   0  0  0  0  0  0  0  0  0  0  0  0
   18.5206   19.7998   21.7440 H   0  0  0  0  0  0  0  0  0  0  0  0
   20.5630   19.0973   22.0332 C   0  0  0  0  0  0  0  0  0  0  0  0
   21.3300   18.5576   21.4606 H   0  0  0  0  0  0  0  0  0  0  0  0
   20.3275   18.4809   22.9115 H   0  0  0  0  0  0  0  0  0  0  0  0
   21.1393   20.4539   22.5081 C   0  0  0  0  0  0  0  0  0  0  0  0
   21.3971   21.0793   21.6450 H   0  0  0  0  0  0  0  0  0  0  0  0
   20.3888   21.0001   23.0921 H   0  0  0  0  0  0  0  0  0  0  0  0
   22.3877   20.2976   23.3689 C   0  0  0  0  0  0  0  0  0  0  0  0
   22.2461   20.1909   24.5711 O   0  5  0  0  0  0  0  0  0  0  0  0
   23.4678   20.2692   22.8128 O   0  0  0  0  0  0  0  0  0  0  0  0
  1  2  1  0  0  0  0
  1  3  1  0  0  0  0
  1  4  2  0  0  0  0
  4  5  1  0  0  0  0
  4  6  1  0  0  0  0
  6  7  1  0  0  0  0
  6  8  1  0  0  0  0
  6  9  1  0  0  0  0
  9 10  1  0  0  0  0
  9 11  1  0  0  0  0
  9 12  1  0  0  0  0
 12 13  1  0  0  0  0
 12 14  1  0  0  0  0
 12 15  1  0  0  0  0
 15 16  1  0  0  0  0
 15 17  1  0  0  0  0
 15 18  1  0  0  0  0
 18 19  1  0  0  0  0
 18 20  2  0  0  0  0
M  END
> <VConfSearch Rank>
648

> <Conf_Id>
41

> <Delta U+W>
-0.634

> <U+W>
-52.379

> <U>
7.828

> <W>
-60.207

> <W(PB)>
-62.449

> <W(SA)>
2.242

> <Valence>
9.300

> <Coulomb>
-2.080

> <VdW>
0.608

> <VdW6>
-6.341

> <VdW12>
6.949

> <Bond>
0.103

> <Angle>
2.334

> <Pdih>
6.862

> <Idih>
0.001

> <Tether>
0.000

$$$$
VeraChem MOL file


 20 19  0  0  0  0  0  0  0  0999 V2000     
   20.7833   22.2478   21.8468 C   0  0  0  0  0  0  0  0  0  0  0  0
   21.0431   23.0686   21.1805 H   0  0  0  0  0  0  0  0  0  0  0  0
   20.4185   22.5049   22.8400 H   0  0  0  0  0  0  0  0  0  0  0  0
   20.9066   20.9765   21.4565 C   0  0  0  0  0  0  0  0  0  0  0  0
   21.2731   20.7400   20.4578 H   0  0  0  0  0  0  0  0  0  0  0  0
   20.5670   19.7858   22.3252 C   0  0  0  0  0  0  0  0  0  0  0  0
   20.4590   20.0978   23.3727 H   0  0  0  0  0  0  0  0  0  0  0  0
   21.3960   19.0671   22.2899 H   0  0  0  0  0  0  0  0  0  0  0  0
   19.2622   19.1075   21.8513 C   0  0  0  0  0  0  0  0  0  0  0  0
   18.4682   19.8650   21.7976 H   0  0  0  0  0  0  0  0  0  0  0  0
   19.3959   18.7280   20.8289 H   0  0  0  0  0  0  0  0  0  0  0  0
   18.7882   17.9617   22.7790 C   0  0  0  0  0  0  0  0  0  0  0  0
   17.8207   17.5893   22.4149 H   0  0  0  0  0  0  0  0  0  0  0  0
   18.6043   18.3632   23.7847 H   0  0  0  0  0  0  0  0  0  0  0  0
   19.7759   16.7673   22.8805 C   0  0  0  0  0  0  0  0  0  0  0  0
   20.7304   17.0896   23.3119 H   0  0  0  0  0  0  0  0  0  0  0  0
   19.3656   16.0144   23.5636 H   0  0  0  0  0  0  0  0  0  0  0  0
   20.0507   16.0714   21.5505 C   0  0  0  0  0  0  0  0  0  0  0  0
   19.1679   15.3889   21.0685 O   0  5  0  0  0  0  0  0  0  0  0  0
   21.1445   16.2147   21.0406 O   0  0  0  0  0  0  0  0  0  0  0  0
  1  2  1  0  0  0  0
  1  3  1  0  0  0  0
  1  4  2  0  0  0  0
  4  5  1  0  0  0  0
  4  6  1  0  0  0  0
  6  7  1  0  0  0  0
  6  8  1  0  0  0  0
  6  9  1  0  0  0  0
  9 10  1  0  0  0  0
  9 11  1  0  0  0  0
  9 12  1  0  0  0  0
 12 13  1  0  0  0  0
 12 14  1  0  0  0  0
 12 15  1  0  0  0  0
 15 16  1  0  0  0  0
 15 17  1  0  0  0  0
 15 18  1  0  0  0  0
 18 19  1  0  0  0  0
 18 20  2  0  0  0  0
M  END
> <VConfSearch Rank>
649

> <Conf_Id>
84

> <Delta U+W>
0.942

> <U+W>
-50.803

> <U>
10.196

> <W>
-60.999

> <W(PB)>
-63.182

> <W(SA)>
2.182

> <Valence>
9.837

> <Coulomb>
0.032

> <VdW>
0.328

> <VdW6>
-7.642

> <VdW12>
7.969

> <Bond>
0.151

> <Angle>
2.748

> <Pdih>
6.937

> <Idih>
0.001

> <Tether>
0.000

$$$$
VeraChem MOL file


 20 19  0  0  0  0  0  0  0  0999 V2000     
   19.2222   16.1193   23.5524 C   0  0  0  0  0  0  0  0  0  0  0  0
   19.5906   15.4217   24.3027 H   0  0  0  0  0  0  0  0  0  0  0  0
   18.1475   16.2890   23.5108 H   0  0  0  0  0  0  0  0  0  0  0  0
   20.0597   16.7422   22.7191 C   0  0  0  0  0  0  0  0  0  0  0  0
   21.1323   16.5590   22.7780 H   0  0  0  0  0  0  0  0  0  0  0  0
   19.6222   17.7217   21.6529 C   0  0  0  0  0  0  0  0  0  0  0  0
   18.5376   17.6510   21.4935 H   0  0  0  0  0  0  0  0  0  0  0  0
   20.0996   17.4629   20.6984 H   0  0  0  0  0  0  0  0  0  0  0  0
   19.9906   19.1691   22.0407 C   0  0  0  0  0  0  0  0  0  0  0  0
   19.5150   19.4190   22.9994 H   0  0  0  0  0  0  0  0  0  0  0  0
   21.0758   19.2416   22.1964 H   0  0  0  0  0  0  0  0  0  0  0  0
   19.5532   20.1828   20.9593 C   0  0  0  0  0  0  0  0  0  0  0  0
   18.4659   20.1228   20.8111 H   0  0  0  0  0  0  0  0  0  0  0  0
   20.0181   19.9137   20.0012 H   0  0  0  0  0  0  0  0  0  0  0  0
   19.9431   21.6407   21.3158 C   0  0  0  0  0  0  0  0  0  0  0  0
   21.0231   21.7115   21.4935 H   0  0  0  0  0  0  0  0  0  0  0  0
   19.7171   22.2983   20.4681 H   0  0  0  0  0  0  0  0  0  0  0  0
   19.2115   22.1984   22.5334 C   0  0  0  0  0  0  0  0  0  0  0  0
   19.8251   22.2998   23.5775 O   0  5  0  0  0  0  0  0  0  0  0  0
   18.0495   22.5290   22.4010 O   0  0  0  0  0  0  0  0  0  0  0  0
  1  2  1  0  0  0  0
  1  3  1  0  0  0  0
  1  4  2  0  0  0  0
  4  5  1  0  0  0  0
  4  6  1  0  0  0  0
  6  7  1  0  0  0  0
  6  8  1  0  0  0  0
  6  9  1  0  0  0  0
  9 10  1  0  0  0  0
  9 11  1  0  0  0  0
  9 12  1  0  0  0  0
 12 13  1  0  0  0  0
 12 14  1  0  0  0  0
 12 15  1  0  0  0  0
 15 16  1  0  0  0  0
 15 17  1  0  0  0  0
 15 18  1  0  0  0  0
 18 19  1  0  0  0  0
 18 20  2  0  0  0  0
M  END
> <VConfSearch Rank>
650

> <Conf_Id>
81

> <Delta U+W>
-0.051

> <U+W>
-51.796

> <U>
9.412

> <W>
-61.209

> <W(PB)>
-63.452

> <W(SA)>
2.243

> <Valence>
9.329

> <Coulomb>
-0.323

> <VdW>
0.406

> <VdW6>
-6.640

> <VdW12>
7.046

> <Bond>
0.105

> <Angle>
2.401

> <Pdih>
6.823

> <Idih>
0.000

> <Tether>
0.000

$$$$
VeraChem MOL file


 20 19  0  0  0  0  0  0  0  0999 V2000     
   21.2325   19.0499   24.8618 C   0  0  0  0  0  0  0  0  0  0  0  0
   22.2694   18.7939   24.6506 H   0  0  0  0  0  0  0  0  0  0  0  0
   21.0104   19.4762   25.8385 H   0  0  0  0  0  0  0  0  0  0  0  0
   20.2679   18.8528   23.9593 C   0  0  0  0  0  0  0  0  0  0  0  0
   19.2358   19.1138   24.1916 H   0  0  0  0  0  0  0  0  0  0  0  0
   20.4998   18.2607   22.5856 C   0  0  0  0  0  0  0  0  0  0  0  0
   19.7310   17.5090   22.3647 H   0  0  0  0  0  0  0  0  0  0  0  0
   21.4570   17.7224   22.5713 H   0  0  0  0  0  0  0  0  0  0  0  0
   20.5254   19.3374   21.4744 C   0  0  0  0  0  0  0  0  0  0  0  0
   21.3572   20.0278   21.6702 H   0  0  0  0  0  0  0  0  0  0  0  0
   20.7517   18.8530   20.5146 H   0  0  0  0  0  0  0  0  0  0  0  0
   19.2172   20.1582   21.3367 C   0  0  0  0  0  0  0  0  0  0  0  0
   19.3531   20.9062   20.5435 H   0  0  0  0  0  0  0  0  0  0  0  0
   19.0410   20.7245   22.2608 H   0  0  0  0  0  0  0  0  0  0  0  0
   17.9577   19.3100   21.0105 C   0  0  0  0  0  0  0  0  0  0  0  0
   17.7484   18.6020   21.8205 H   0  0  0  0  0  0  0  0  0  0  0  0
   17.0844   19.9689   20.9413 H   0  0  0  0  0  0  0  0  0  0  0  0
   18.0496   18.5379   19.6976 C   0  0  0  0  0  0  0  0  0  0  0  0
   18.1766   17.3301   19.7468 O   0  5  0  0  0  0  0  0  0  0  0  0
   17.9741   19.1643   18.6587 O   0  0  0  0  0  0  0  0  0  0  0  0
  1  2  1  0  0  0  0
  1  3  1  0  0  0  0
  1  4  2  0  0  0  0
  4  5  1  0  0  0  0
  4  6  1  0  0  0  0
  6  7  1  0  0  0  0
  6  8  1  0  0  0  0
  6  9  1  0  0  0  0
  9 10  1  0  0  0  0
  9 11  1  0  0  0  0
  9 12  1  0  0  0  0
 12 13  1  0  0  0  0
 12 14  1  0  0  0  0
 12 15  1  0  0  0  0
 15 16  1  0  0  0  0
 15 17  1  0  0  0  0
 15 18  1  0  0  0  0
 18 19  1  0  0  0  0
 18 20  2  0  0  0  0
M  END
> <VConfSearch Rank>
651

> <Conf_Id>
86

> <Delta U+W>
1.248

> <U+W>
-50.498

> <U>
10.404

> <W>
-60.901

> <W(PB)>
-63.061

> <W(SA)>
2.159

> <Valence>
10.021

> <Coulomb>
0.094

> <VdW>
0.289

> <VdW6>
-8.409

> <VdW12>
8.698

> <Bond>
0.179

> <Angle>
2.939

> <Pdih>
6.902

> <Idih>
0.001

> <Tether>
0.000

$$$$
VeraChem MOL file


 20 19  0  0  0  0  0  0  0  0999 V2000     
   18.8380   21.8617   23.0068 C   0  0  0  0  0  0  0  0  0  0  0  0
   19.2628   22.8361   23.2418 H   0  0  0  0  0  0  0  0  0  0  0  0
   18.0602   21.8244   22.2458 H   0  0  0  0  0  0  0  0  0  0  0  0
   19.2600   20.7568   23.6274 C   0  0  0  0  0  0  0  0  0  0  0  0
   20.0413   20.8157   24.3847 H   0  0  0  0  0  0  0  0  0  0  0  0
   18.7184   19.3697   23.3543 C   0  0  0  0  0  0  0  0  0  0  0  0
   17.8101   19.4231   22.7388 H   0  0  0  0  0  0  0  0  0  0  0  0
   18.4215   18.9072   24.3049 H   0  0  0  0  0  0  0  0  0  0  0  0
   19.7579   18.4602   22.6612 C   0  0  0  0  0  0  0  0  0  0  0  0
   20.6682   18.4093   23.2742 H   0  0  0  0  0  0  0  0  0  0  0  0
   19.3560   17.4389   22.6128 H   0  0  0  0  0  0  0  0  0  0  0  0
   20.1134   18.9398   21.2339 C   0  0  0  0  0  0  0  0  0  0  0  0
   20.5218   19.9582   21.2816 H   0  0  0  0  0  0  0  0  0  0  0  0
   19.2022   18.9942   20.6223 H   0  0  0  0  0  0  0  0  0  0  0  0
   21.1478   18.0193   20.5356 C   0  0  0  0  0  0  0  0  0  0  0  0
   21.4544   18.4691   19.5839 H   0  0  0  0  0  0  0  0  0  0  0  0
   22.0515   17.9303   21.1506 H   0  0  0  0  0  0  0  0  0  0  0  0
   20.6257   16.6182   20.2308 C   0  0  0  0  0  0  0  0  0  0  0  0
   19.8675   16.4817   19.2907 O   0  5  0  0  0  0  0  0  0  0  0  0
   20.9989   15.6991   20.9329 O   0  0  0  0  0  0  0  0  0  0  0  0
  1  2  1  0  0  0  0
  1  3  1  0  0  0  0
  1  4  2  0  0  0  0
  4  5  1  0  0  0  0
  4  6  1  0  0  0  0
  6  7  1  0  0  0  0
  6  8  1  0  0  0  0
  6  9  1  0  0  0  0
  9 10  1  0  0  0  0
  9 11  1  0  0  0  0
  9 12  1  0  0  0  0
 12 13  1  0  0  0  0
 12 14  1  0  0  0  0
 12 15  1  0  0  0  0
 15 16  1  0  0  0  0
 15 17  1  0  0  0  0
 15 18  1  0  0  0  0
 18 19  1  0  0  0  0
 18 20  2  0  0  0  0
M  END
> <VConfSearch Rank>
652

> <Conf_Id>
28

> <Delta U+W>
0.446

> <U+W>
-51.299

> <U>
9.295

> <W>
-60.594

> <W(PB)>
-62.806

> <W(SA)>
2.212

> <Valence>
9.495

> <Coulomb>
-0.610

> <VdW>
0.409

> <VdW6>
-7.332

> <VdW12>
7.741

> <Bond>
0.126

> <Angle>
2.497

> <Pdih>
6.872

> <Idih>
0.000

> <Tether>
0.000

$$$$
VeraChem MOL file


 20 19  0  0  0  0  0  0  0  0999 V2000     
   19.7503   17.1359   24.4654 C   0  0  0  0  0  0  0  0  0  0  0  0
   19.2343   18.0245   24.8224 H   0  0  0  0  0  0  0  0  0  0  0  0
   19.7009   16.2515   25.0983 H   0  0  0  0  0  0  0  0  0  0  0  0
   20.4162   17.1096   23.3052 C   0  0  0  0  0  0  0  0  0  0  0  0
   20.9117   16.1883   22.9997 H   0  0  0  0  0  0  0  0  0  0  0  0
   20.5743   18.2571   22.3216 C   0  0  0  0  0  0  0  0  0  0  0  0
   20.1145   17.9627   21.3694 H   0  0  0  0  0  0  0  0  0  0  0  0
   21.6431   18.3925   22.1090 H   0  0  0  0  0  0  0  0  0  0  0  0
   19.9795   19.6074   22.7920 C   0  0  0  0  0  0  0  0  0  0  0  0
   18.8933   19.5068   22.9227 H   0  0  0  0  0  0  0  0  0  0  0  0
   20.3933   19.8562   23.7787 H   0  0  0  0  0  0  0  0  0  0  0  0
   20.2812   20.7836   21.8305 C   0  0  0  0  0  0  0  0  0  0  0  0
   21.3688   20.9104   21.7439 H   0  0  0  0  0  0  0  0  0  0  0  0
   19.8986   21.7117   22.2772 H   0  0  0  0  0  0  0  0  0  0  0  0
   19.6722   20.6275   20.4101 C   0  0  0  0  0  0  0  0  0  0  0  0
   19.9460   21.4967   19.8009 H   0  0  0  0  0  0  0  0  0  0  0  0
   20.0903   19.7504   19.9034 H   0  0  0  0  0  0  0  0  0  0  0  0
   18.1498   20.5235   20.3920 C   0  0  0  0  0  0  0  0  0  0  0  0
   17.5046   21.5187   20.6584 O   0  5  0  0  0  0  0  0  0  0  0  0
   17.6489   19.4577   20.0920 O   0  0  0  0  0  0  0  0  0  0  0  0
  1  2  1  0  0  0  0
  1  3  1  0  0  0  0
  1  4  2  0  0  0  0
  4  5  1  0  0  0  0
  4  6  1  0  0  0  0
  6  7  1  0  0  0  0
  6  8  1  0  0  0  0
  6  9  1  0  0  0  0
  9 10  1  0  0  0  0
  9 11  1  0  0  0  0
  9 12  1  0  0  0  0
 12 13  1  0  0  0  0
 12 14  1  0  0  0  0
 12 15  1  0  0  0  0
 15 16  1  0  0  0  0
 15 17  1  0  0  0  0
 15 18  1  0  0  0  0
 18 19  1  0  0  0  0
 18 20  2  0  0  0  0
M  END
> <VConfSearch Rank>
653

> <Conf_Id>
53

> <Delta U+W>
0.549

> <U+W>
-51.197

> <U>
10.870

> <W>
-62.067

> <W(PB)>
-64.228

> <W(SA)>
2.161

> <Valence>
8.803

> <Coulomb>
1.020

> <VdW>
1.048

> <VdW6>
-8.312

> <VdW12>
9.360

> <Bond>
0.212

> <Angle>
3.379

> <Pdih>
5.211

> <Idih>
0.001

> <Tether>
0.000

$$$$
VeraChem MOL file


 20 19  0  0  0  0  0  0  0  0999 V2000     
   19.7191   21.6424   22.5316 C   0  0  0  0  0  0  0  0  0  0  0  0
   18.6704   21.4985   22.2809 H   0  0  0  0  0  0  0  0  0  0  0  0
   20.1505   22.6172   22.3113 H   0  0  0  0  0  0  0  0  0  0  0  0
   20.4564   20.6771   23.0913 C   0  0  0  0  0  0  0  0  0  0  0  0
   21.5021   20.8745   23.3253 H   0  0  0  0  0  0  0  0  0  0  0  0
   19.9881   19.2754   23.4459 C   0  0  0  0  0  0  0  0  0  0  0  0
   19.7471   19.2453   24.5166 H   0  0  0  0  0  0  0  0  0  0  0  0
   20.8276   18.5782   23.3292 H   0  0  0  0  0  0  0  0  0  0  0  0
   18.7784   18.7403   22.6359 C   0  0  0  0  0  0  0  0  0  0  0  0
   18.4967   17.7571   23.0370 H   0  0  0  0  0  0  0  0  0  0  0  0
   17.9090   19.3883   22.8072 H   0  0  0  0  0  0  0  0  0  0  0  0
   19.0257   18.6069   21.1101 C   0  0  0  0  0  0  0  0  0  0  0  0
   19.2368   19.5954   20.6823 H   0  0  0  0  0  0  0  0  0  0  0  0
   18.0989   18.2604   20.6328 H   0  0  0  0  0  0  0  0  0  0  0  0
   20.1755   17.6359   20.7261 C   0  0  0  0  0  0  0  0  0  0  0  0
   20.2790   17.6101   19.6352 H   0  0  0  0  0  0  0  0  0  0  0  0
   21.1327   17.9972   21.1190 H   0  0  0  0  0  0  0  0  0  0  0  0
   19.9632   16.1999   21.1965 C   0  0  0  0  0  0  0  0  0  0  0  0
   20.6522   15.7837   22.1071 O   0  5  0  0  0  0  0  0  0  0  0  0
   19.1252   15.5289   20.6265 O   0  0  0  0  0  0  0  0  0  0  0  0
  1  2  1  0  0  0  0
  1  3  1  0  0  0  0
  1  4  2  0  0  0  0
  4  5  1  0  0  0  0
  4  6  1  0  0  0  0
  6  7  1  0  0  0  0
  6  8  1  0  0  0  0
  6  9  1  0  0  0  0
  9 10  1  0  0  0  0
  9 11  1  0  0  0  0
  9 12  1  0  0  0  0
 12 13  1  0  0  0  0
 12 14  1  0  0  0  0
 12 15  1  0  0  0  0
 15 16  1  0  0  0  0
 15 17  1  0  0  0  0
 15 18  1  0  0  0  0
 18 19  1  0  0  0  0
 18 20  2  0  0  0  0
M  END
> <VConfSearch Rank>
654

> <Conf_Id>
66

> <Delta U+W>
1.737

> <U+W>
-50.008

> <U>
11.091

> <W>
-61.099

> <W(PB)>
-63.213

> <W(SA)>
2.114

> <Valence>
9.664

> <Coulomb>
0.658

> <VdW>
0.769

> <VdW6>
-9.171

> <VdW12>
9.940

> <Bond>
0.244

> <Angle>
3.658

> <Pdih>
5.762

> <Idih>
0.001

> <Tether>
0.000

$$$$
VeraChem MOL file


 20 19  0  0  0  0  0  0  0  0999 V2000     
   20.3544   18.7942   24.5559 C   0  0  0  0  0  0  0  0  0  0  0  0
   20.1109   19.8531   24.5046 H   0  0  0  0  0  0  0  0  0  0  0  0
   20.1452   18.2846   25.4947 H   0  0  0  0  0  0  0  0  0  0  0  0
   20.8921   18.1352   23.5237 C   0  0  0  0  0  0  0  0  0  0  0  0
   21.1186   17.0748   23.6307 H   0  0  0  0  0  0  0  0  0  0  0  0
   21.2309   18.7131   22.1591 C   0  0  0  0  0  0  0  0  0  0  0  0
   21.0631   17.9431   21.3959 H   0  0  0  0  0  0  0  0  0  0  0  0
   22.3097   18.9140   22.1222 H   0  0  0  0  0  0  0  0  0  0  0  0
   20.4605   19.9978   21.7563 C   0  0  0  0  0  0  0  0  0  0  0  0
   20.6698   20.7920   22.4849 H   0  0  0  0  0  0  0  0  0  0  0  0
   20.8591   20.3614   20.7995 H   0  0  0  0  0  0  0  0  0  0  0  0
   18.9271   19.8175   21.6186 C   0  0  0  0  0  0  0  0  0  0  0  0
   18.4763   20.7989   21.4166 H   0  0  0  0  0  0  0  0  0  0  0  0
   18.4984   19.4726   22.5688 H   0  0  0  0  0  0  0  0  0  0  0  0
   18.5171   18.8401   20.4866 C   0  0  0  0  0  0  0  0  0  0  0  0
   18.9789   19.1421   19.5391 H   0  0  0  0  0  0  0  0  0  0  0  0
   18.8640   17.8250   20.7104 H   0  0  0  0  0  0  0  0  0  0  0  0
   17.0081   18.7795   20.2777 C   0  0  0  0  0  0  0  0  0  0  0  0
   16.3757   17.9430   20.8918 O   0  5  0  0  0  0  0  0  0  0  0  0
   16.5023   19.5804   19.5165 O   0  0  0  0  0  0  0  0  0  0  0  0
  1  2  1  0  0  0  0
  1  3  1  0  0  0  0
  1  4  2  0  0  0  0
  4  5  1  0  0  0  0
  4  6  1  0  0  0  0
  6  7  1  0  0  0  0
  6  8  1  0  0  0  0
  6  9  1  0  0  0  0
  9 10  1  0  0  0  0
  9 11  1  0  0  0  0
  9 12  1  0  0  0  0
 12 13  1  0  0  0  0
 12 14  1  0  0  0  0
 12 15  1  0  0  0  0
 15 16  1  0  0  0  0
 15 17  1  0  0  0  0
 15 18  1  0  0  0  0
 18 19  1  0  0  0  0
 18 20  2  0  0  0  0
M  END
> <VConfSearch Rank>
655

> <Conf_Id>
64

> <Delta U+W>
0.366

> <U+W>
-51.379

> <U>
10.000

> <W>
-61.379

> <W(PB)>
-63.541

> <W(SA)>
2.162

> <Valence>
9.398

> <Coulomb>
-0.504

> <VdW>
1.105

> <VdW6>
-7.975

> <VdW12>
9.080

> <Bond>
0.216

> <Angle>
3.417

> <Pdih>
5.765

> <Idih>
0.001

> <Tether>
0.000

$$$$
VeraChem MOL file


 20 19  0  0  0  0  0  0  0  0999 V2000     
   17.7556   19.4480   24.0305 C   0  0  0  0  0  0  0  0  0  0  0  0
   18.1901   18.6157   24.5817 H   0  0  0  0  0  0  0  0  0  0  0  0
   16.6696   19.5016   23.9777 H   0  0  0  0  0  0  0  0  0  0  0  0
   18.5217   20.3672   23.4372 C   0  0  0  0  0  0  0  0  0  0  0  0
   18.0668   21.1912   22.8882 H   0  0  0  0  0  0  0  0  0  0  0  0
   20.0354   20.3587   23.4664 C   0  0  0  0  0  0  0  0  0  0  0  0
   20.4039   19.6272   24.1984 H   0  0  0  0  0  0  0  0  0  0  0  0
   20.3932   21.3408   23.8030 H   0  0  0  0  0  0  0  0  0  0  0  0
   20.6463   20.0539   22.0801 C   0  0  0  0  0  0  0  0  0  0  0  0
   20.2771   20.7851   21.3479 H   0  0  0  0  0  0  0  0  0  0  0  0
   21.7354   20.1866   22.1355 H   0  0  0  0  0  0  0  0  0  0  0  0
   20.3333   18.6207   21.5925 C   0  0  0  0  0  0  0  0  0  0  0  0
   19.2465   18.4837   21.5071 H   0  0  0  0  0  0  0  0  0  0  0  0
   20.6881   17.8918   22.3342 H   0  0  0  0  0  0  0  0  0  0  0  0
   20.9923   18.3209   20.2236 C   0  0  0  0  0  0  0  0  0  0  0  0
   20.6380   19.0334   19.4691 H   0  0  0  0  0  0  0  0  0  0  0  0
   22.0805   18.4364   20.2934 H   0  0  0  0  0  0  0  0  0  0  0  0
   20.6976   16.9122   19.7208 C   0  0  0  0  0  0  0  0  0  0  0  0
   21.4450   16.0151   20.0576 O   0  5  0  0  0  0  0  0  0  0  0  0
   19.7208   16.7465   19.0172 O   0  0  0  0  0  0  0  0  0  0  0  0
  1  2  1  0  0  0  0
  1  3  1  0  0  0  0
  1  4  2  0  0  0  0
  4  5  1  0  0  0  0
  4  6  1  0  0  0  0
  6  7  1  0  0  0  0
  6  8  1  0  0  0  0
  6  9  1  0  0  0  0
  9 10  1  0  0  0  0
  9 11  1  0  0  0  0
  9 12  1  0  0  0  0
 12 13  1  0  0  0  0
 12 14  1  0  0  0  0
 12 15  1  0  0  0  0
 15 16  1  0  0  0  0
 15 17  1  0  0  0  0
 15 18  1  0  0  0  0
 18 19  1  0  0  0  0
 18 20  2  0  0  0  0
M  END
> <VConfSearch Rank>
656

> <Conf_Id>
42

> <Delta U+W>
-0.601

> <U+W>
-52.347

> <U>
8.428

> <W>
-60.774

> <W(PB)>
-62.982

> <W(SA)>
2.208

> <Valence>
9.231

> <Coulomb>
-1.304

> <VdW>
0.501

> <VdW6>
-6.515

> <VdW12>
7.016

> <Bond>
0.103

> <Angle>
2.328

> <Pdih>
6.799

> <Idih>
0.000

> <Tether>
0.000

$$$$
VeraChem MOL file


 20 19  0  0  0  0  0  0  0  0999 V2000     
   16.6783   19.0531   22.3631 C   0  0  0  0  0  0  0  0  0  0  0  0
   16.6802   19.4211   23.3878 H   0  0  0  0  0  0  0  0  0  0  0  0
   15.9633   18.2714   22.1126 H   0  0  0  0  0  0  0  0  0  0  0  0
   17.5217   19.5364   21.4470 C   0  0  0  0  0  0  0  0  0  0  0  0
   17.5055   19.1522   20.4274 H   0  0  0  0  0  0  0  0  0  0  0  0
   18.5428   20.6201   21.7204 C   0  0  0  0  0  0  0  0  0  0  0  0
   18.3627   21.0831   22.7001 H   0  0  0  0  0  0  0  0  0  0  0  0
   18.4276   21.4181   20.9749 H   0  0  0  0  0  0  0  0  0  0  0  0
   19.9922   20.0874   21.6597 C   0  0  0  0  0  0  0  0  0  0  0  0
   20.1723   19.6309   20.6766 H   0  0  0  0  0  0  0  0  0  0  0  0
   20.6861   20.9349   21.7429 H   0  0  0  0  0  0  0  0  0  0  0  0
   20.3000   19.0662   22.7803 C   0  0  0  0  0  0  0  0  0  0  0  0
   19.6403   18.1928   22.6838 H   0  0  0  0  0  0  0  0  0  0  0  0
   20.0794   19.5215   23.7551 H   0  0  0  0  0  0  0  0  0  0  0  0
   21.7770   18.5939   22.7668 C   0  0  0  0  0  0  0  0  0  0  0  0
   22.4515   19.4556   22.8384 H   0  0  0  0  0  0  0  0  0  0  0  0
   21.9689   17.9666   23.6453 H   0  0  0  0  0  0  0  0  0  0  0  0
   22.1560   17.7803   21.5326 C   0  0  0  0  0  0  0  0  0  0  0  0
   22.8021   18.3257   20.6595 O   0  5  0  0  0  0  0  0  0  0  0  0
   21.8100   16.6162   21.4857 O   0  0  0  0  0  0  0  0  0  0  0  0
  1  2  1  0  0  0  0
  1  3  1  0  0  0  0
  1  4  2  0  0  0  0
  4  5  1  0  0  0  0
  4  6  1  0  0  0  0
  6  7  1  0  0  0  0
  6  8  1  0  0  0  0
  6  9  1  0  0  0  0
  9 10  1  0  0  0  0
  9 11  1  0  0  0  0
  9 12  1  0  0  0  0
 12 13  1  0  0  0  0
 12 14  1  0  0  0  0
 12 15  1  0  0  0  0
 15 16  1  0  0  0  0
 15 17  1  0  0  0  0
 15 18  1  0  0  0  0
 18 19  1  0  0  0  0
 18 20  2  0  0  0  0
M  END
> <VConfSearch Rank>
657

> <Conf_Id>
68

> <Delta U+W>
0.492

> <U+W>
-51.253

> <U>
10.179

> <W>
-61.432

> <W(PB)>
-63.627

> <W(SA)>
2.195

> <Valence>
9.483

> <Coulomb>
0.361

> <VdW>
0.335

> <VdW6>
-7.385

> <VdW12>
7.720

> <Bond>
0.125

> <Angle>
2.487

> <Pdih>
6.870

> <Idih>
0.001

> <Tether>
0.000

$$$$
VeraChem MOL file


 20 19  0  0  0  0  0  0  0  0999 V2000     
   16.5353   18.9076   22.6601 C   0  0  0  0  0  0  0  0  0  0  0  0
   16.3057   19.7828   23.2657 H   0  0  0  0  0  0  0  0  0  0  0  0
   15.9617   18.0021   22.8505 H   0  0  0  0  0  0  0  0  0  0  0  0
   17.4851   18.9384   21.7218 C   0  0  0  0  0  0  0  0  0  0  0  0
   17.6968   18.0516   21.1251 H   0  0  0  0  0  0  0  0  0  0  0  0
   18.3173   20.1608   21.3980 C   0  0  0  0  0  0  0  0  0  0  0  0
   17.8170   21.0613   21.7794 H   0  0  0  0  0  0  0  0  0  0  0  0
   18.3889   20.2870   20.3094 H   0  0  0  0  0  0  0  0  0  0  0  0
   19.7348   20.0858   22.0089 C   0  0  0  0  0  0  0  0  0  0  0  0
   20.2396   21.0488   21.8519 H   0  0  0  0  0  0  0  0  0  0  0  0
   19.6550   19.9481   23.0962 H   0  0  0  0  0  0  0  0  0  0  0  0
   20.5952   18.9559   21.3952 C   0  0  0  0  0  0  0  0  0  0  0  0
   20.6266   19.0762   20.3039 H   0  0  0  0  0  0  0  0  0  0  0  0
   20.1315   17.9799   21.5932 H   0  0  0  0  0  0  0  0  0  0  0  0
   22.0461   18.9490   21.9426 C   0  0  0  0  0  0  0  0  0  0  0  0
   22.6411   18.2095   21.3939 H   0  0  0  0  0  0  0  0  0  0  0  0
   22.5193   19.9241   21.7756 H   0  0  0  0  0  0  0  0  0  0  0  0
   22.1470   18.6067   23.4263 C   0  0  0  0  0  0  0  0  0  0  0  0
   22.0396   17.4410   23.7533 O   0  5  0  0  0  0  0  0  0  0  0  0
   22.3496   19.5104   24.2133 O   0  0  0  0  0  0  0  0  0  0  0  0
  1  2  1  0  0  0  0
  1  3  1  0  0  0  0
  1  4  2  0  0  0  0
  4  5  1  0  0  0  0
  4  6  1  0  0  0  0
  6  7  1  0  0  0  0
  6  8  1  0  0  0  0
  6  9  1  0  0  0  0
  9 10  1  0  0  0  0
  9 11  1  0  0  0  0
  9 12  1  0  0  0  0
 12 13  1  0  0  0  0
 12 14  1  0  0  0  0
 12 15  1  0  0  0  0
 15 16  1  0  0  0  0
 15 17  1  0  0  0  0
 15 18  1  0  0  0  0
 18 19  1  0  0  0  0
 18 20  2  0  0  0  0
M  END
> <VConfSearch Rank>
658

> <Conf_Id>
87

> <Delta U+W>
0.339

> <U+W>
-51.407

> <U>
10.461

> <W>
-61.867

> <W(PB)>
-64.045

> <W(SA)>
2.178

> <Valence>
9.555

> <Coulomb>
0.483

> <VdW>
0.423

> <VdW6>
-7.223

> <VdW12>
7.646

> <Bond>
0.126

> <Angle>
2.492

> <Pdih>
6.936

> <Idih>
0.001

> <Tether>
0.000

$$$$
VeraChem MOL file


 20 19  0  0  0  0  0  0  0  0999 V2000     
   17.7021   16.9874   22.8195 C   0  0  0  0  0  0  0  0  0  0  0  0
   16.7548   17.5212   22.7635 H   0  0  0  0  0  0  0  0  0  0  0  0
   17.6974   15.9284   22.5678 H   0  0  0  0  0  0  0  0  0  0  0  0
   18.8288   17.6069   23.1806 C   0  0  0  0  0  0  0  0  0  0  0  0
   19.7653   17.0536   23.2395 H   0  0  0  0  0  0  0  0  0  0  0  0
   18.9060   19.0715   23.5556 C   0  0  0  0  0  0  0  0  0  0  0  0
   19.8178   19.2684   24.1350 H   0  0  0  0  0  0  0  0  0  0  0  0
   18.0696   19.3027   24.2289 H   0  0  0  0  0  0  0  0  0  0  0  0
   18.8345   20.0271   22.3386 C   0  0  0  0  0  0  0  0  0  0  0  0
   18.0305   19.7114   21.6597 H   0  0  0  0  0  0  0  0  0  0  0  0
   18.5446   21.0207   22.7069 H   0  0  0  0  0  0  0  0  0  0  0  0
   20.1616   20.1856   21.5546 C   0  0  0  0  0  0  0  0  0  0  0  0
   20.9661   20.4878   22.2390 H   0  0  0  0  0  0  0  0  0  0  0  0
   20.0419   21.0101   20.8381 H   0  0  0  0  0  0  0  0  0  0  0  0
   20.5947   18.9190   20.7726 C   0  0  0  0  0  0  0  0  0  0  0  0
   20.8680   18.1150   21.4632 H   0  0  0  0  0  0  0  0  0  0  0  0
   19.7664   18.5525   20.1546 H   0  0  0  0  0  0  0  0  0  0  0  0
   21.7916   19.1683   19.8623 C   0  0  0  0  0  0  0  0  0  0  0  0
   22.9056   19.0238   20.3260 O   0  5  0  0  0  0  0  0  0  0  0  0
   21.5794   19.5210   18.7189 O   0  0  0  0  0  0  0  0  0  0  0  0
  1  2  1  0  0  0  0
  1  3  1  0  0  0  0
  1  4  2  0  0  0  0
  4  5  1  0  0  0  0
  4  6  1  0  0  0  0
  6  7  1  0  0  0  0
  6  8  1  0  0  0  0
  6  9  1  0  0  0  0
  9 10  1  0  0  0  0
  9 11  1  0  0  0  0
  9 12  1  0  0  0  0
 12 13  1  0  0  0  0
 12 14  1  0  0  0  0
 12 15  1  0  0  0  0
 15 16  1  0  0  0  0
 15 17  1  0  0  0  0
 15 18  1  0  0  0  0
 18 19  1  0  0  0  0
 18 20  2  0  0  0  0
M  END
> <VConfSearch Rank>
659

> <Conf_Id>
51

> <Delta U+W>
1.709

> <U+W>
-50.036

> <U>
10.643

> <W>
-60.679

> <W(PB)>
-62.882

> <W(SA)>
2.203

> <Valence>
11.231

> <Coulomb>
-1.077

> <VdW>
0.489

> <VdW6>
-7.546

> <VdW12>
8.035

> <Bond>
0.159

> <Angle>
3.005

> <Pdih>
8.065

> <Idih>
0.002

> <Tether>
0.000

$$$$
VeraChem MOL file


 20 19  0  0  0  0  0  0  0  0999 V2000     
   17.1746   17.7109   22.3148 C   0  0  0  0  0  0  0  0  0  0  0  0
   16.4463   18.5117   22.4319 H   0  0  0  0  0  0  0  0  0  0  0  0
   17.0242   16.8056   22.9003 H   0  0  0  0  0  0  0  0  0  0  0  0
   18.2153   17.8334   21.4867 C   0  0  0  0  0  0  0  0  0  0  0  0
   18.9285   17.0174   21.3763 H   0  0  0  0  0  0  0  0  0  0  0  0
   18.4786   19.0564   20.6344 C   0  0  0  0  0  0  0  0  0  0  0  0
   17.5345   19.3621   20.1636 H   0  0  0  0  0  0  0  0  0  0  0  0
   19.1560   18.8051   19.8074 H   0  0  0  0  0  0  0  0  0  0  0  0
   19.0404   20.2588   21.4330 C   0  0  0  0  0  0  0  0  0  0  0  0
   18.8680   21.1673   20.8400 H   0  0  0  0  0  0  0  0  0  0  0  0
   18.4692   20.3928   22.3618 H   0  0  0  0  0  0  0  0  0  0  0  0
   20.5560   20.1831   21.7465 C   0  0  0  0  0  0  0  0  0  0  0  0
   20.8735   21.1552   22.1485 H   0  0  0  0  0  0  0  0  0  0  0  0
   21.1228   20.0350   20.8171 H   0  0  0  0  0  0  0  0  0  0  0  0
   20.9408   19.0834   22.7693 C   0  0  0  0  0  0  0  0  0  0  0  0
   20.3152   19.1634   23.6663 H   0  0  0  0  0  0  0  0  0  0  0  0
   20.7771   18.0882   22.3442 H   0  0  0  0  0  0  0  0  0  0  0  0
   22.4007   19.1636   23.2004 C   0  0  0  0  0  0  0  0  0  0  0  0
   23.2277   18.5643   22.5417 O   0  5  0  0  0  0  0  0  0  0  0  0
   22.6758   19.8401   24.1717 O   0  0  0  0  0  0  0  0  0  0  0  0
  1  2  1  0  0  0  0
  1  3  1  0  0  0  0
  1  4  2  0  0  0  0
  4  5  1  0  0  0  0
  4  6  1  0  0  0  0
  6  7  1  0  0  0  0
  6  8  1  0  0  0  0
  6  9  1  0  0  0  0
  9 10  1  0  0  0  0
  9 11  1  0  0  0  0
  9 12  1  0  0  0  0
 12 13  1  0  0  0  0
 12 14  1  0  0  0  0
 12 15  1  0  0  0  0
 15 16  1  0  0  0  0
 15 17  1  0  0  0  0
 15 18  1  0  0  0  0
 18 19  1  0  0  0  0
 18 20  2  0  0  0  0
M  END
> <VConfSearch Rank>
660

> <Conf_Id>
91

> <Delta U+W>
1.604

> <U+W>
-50.141

> <U>
10.644

> <W>
-60.786

> <W(PB)>
-62.965

> <W(SA)>
2.179

> <Valence>
11.230

> <Coulomb>
-1.075

> <VdW>
0.489

> <VdW6>
-7.547

> <VdW12>
8.036

> <Bond>
0.159

> <Angle>
3.006

> <Pdih>
8.064

> <Idih>
0.002

> <Tether>
0.000

$$$$
VeraChem MOL file


 20 19  0  0  0  0  0  0  0  0999 V2000     
   17.4254   16.7371   20.2127 C   0  0  0  0  0  0  0  0  0  0  0  0
   16.6200   17.3914   20.5424 H   0  0  0  0  0  0  0  0  0  0  0  0
   17.1618   15.7167   19.9398 H   0  0  0  0  0  0  0  0  0  0  0  0
   18.6889   17.1647   20.1467 C   0  0  0  0  0  0  0  0  0  0  0  0
   19.4805   16.4933   19.8147 H   0  0  0  0  0  0  0  0  0  0  0  0
   19.1297   18.5657   20.5081 C   0  0  0  0  0  0  0  0  0  0  0  0
   18.2595   19.2329   20.5747 H   0  0  0  0  0  0  0  0  0  0  0  0
   19.7737   18.9649   19.7130 H   0  0  0  0  0  0  0  0  0  0  0  0
   19.8929   18.5811   21.8490 C   0  0  0  0  0  0  0  0  0  0  0  0
   19.2460   18.1770   22.6399 H   0  0  0  0  0  0  0  0  0  0  0  0
   20.7657   17.9173   21.7804 H   0  0  0  0  0  0  0  0  0  0  0  0
   20.3532   20.0047   22.2320 C   0  0  0  0  0  0  0  0  0  0  0  0
   19.4808   20.6692   22.3013 H   0  0  0  0  0  0  0  0  0  0  0  0
   20.9993   20.4099   21.4408 H   0  0  0  0  0  0  0  0  0  0  0  0
   21.1202   20.0199   23.5810 C   0  0  0  0  0  0  0  0  0  0  0  0
   20.4788   19.6227   24.3765 H   0  0  0  0  0  0  0  0  0  0  0  0
   21.9960   19.3636   23.5170 H   0  0  0  0  0  0  0  0  0  0  0  0
   21.6127   21.3946   24.0361 C   0  0  0  0  0  0  0  0  0  0  0  0
   22.2189   21.4462   25.0877 O   0  5  0  0  0  0  0  0  0  0  0  0
   21.3890   22.3729   23.3493 O   0  0  0  0  0  0  0  0  0  0  0  0
  1  2  1  0  0  0  0
  1  3  1  0  0  0  0
  1  4  2  0  0  0  0
  4  5  1  0  0  0  0
  4  6  1  0  0  0  0
  6  7  1  0  0  0  0
  6  8  1  0  0  0  0
  6  9  1  0  0  0  0
  9 10  1  0  0  0  0
  9 11  1  0  0  0  0
  9 12  1  0  0  0  0
 12 13  1  0  0  0  0
 12 14  1  0  0  0  0
 12 15  1  0  0  0  0
 15 16  1  0  0  0  0
 15 17  1  0  0  0  0
 15 18  1  0  0  0  0
 18 19  1  0  0  0  0
 18 20  2  0  0  0  0
M  END
> <VConfSearch Rank>
661

> <Conf_Id>
33

> <Delta U+W>
0.000

> <U+W>
-51.745

> <U>
7.593

> <W>
-59.338

> <W(PB)>
-61.574

> <W(SA)>
2.236

> <Valence>
9.570

> <Coulomb>
-3.091

> <VdW>
1.114

> <VdW6>
-6.064

> <VdW12>
7.178

> <Bond>
0.117

> <Angle>
2.692

> <Pdih>
6.761

> <Idih>
0.000

> <Tether>
0.000

$$$$
VeraChem MOL file


 20 19  0  0  0  0  0  0  0  0999 V2000     
   21.7848   16.2693   22.9856 C   0  0  0  0  0  0  0  0  0  0  0  0
   21.0339   15.5682   22.6248 H   0  0  0  0  0  0  0  0  0  0  0  0
   22.5994   15.8663   23.5850 H   0  0  0  0  0  0  0  0  0  0  0  0
   21.7119   17.5737   22.7082 C   0  0  0  0  0  0  0  0  0  0  0  0
   22.4736   18.2589   23.0798 H   0  0  0  0  0  0  0  0  0  0  0  0
   20.6127   18.2049   21.8829 C   0  0  0  0  0  0  0  0  0  0  0  0
   20.0493   17.4303   21.3452 H   0  0  0  0  0  0  0  0  0  0  0  0
   21.0622   18.8559   21.1226 H   0  0  0  0  0  0  0  0  0  0  0  0
   19.6472   19.0181   22.7742 C   0  0  0  0  0  0  0  0  0  0  0  0
   19.2756   18.3675   23.5779 H   0  0  0  0  0  0  0  0  0  0  0  0
   20.1955   19.8342   23.2644 H   0  0  0  0  0  0  0  0  0  0  0  0
   18.4344   19.5939   22.0051 C   0  0  0  0  0  0  0  0  0  0  0  0
   17.7466   20.0559   22.7269 H   0  0  0  0  0  0  0  0  0  0  0  0
   17.8773   18.7774   21.5251 H   0  0  0  0  0  0  0  0  0  0  0  0
   18.8226   20.6521   20.9399 C   0  0  0  0  0  0  0  0  0  0  0  0
   19.4162   21.4515   21.3992 H   0  0  0  0  0  0  0  0  0  0  0  0
   19.4373   20.2010   20.1528 H   0  0  0  0  0  0  0  0  0  0  0  0
   17.6088   21.2884   20.2722 C   0  0  0  0  0  0  0  0  0  0  0  0
   17.1548   20.7551   19.2791 O   0  5  0  0  0  0  0  0  0  0  0  0
   17.1372   22.2896   20.7741 O   0  0  0  0  0  0  0  0  0  0  0  0
  1  2  1  0  0  0  0
  1  3  1  0  0  0  0
  1  4  2  0  0  0  0
  4  5  1  0  0  0  0
  4  6  1  0  0  0  0
  6  7  1  0  0  0  0
  6  8  1  0  0  0  0
  6  9  1  0  0  0  0
  9 10  1  0  0  0  0
  9 11  1  0  0  0  0
  9 12  1  0  0  0  0
 12 13  1  0  0  0  0
 12 14  1  0  0  0  0
 12 15  1  0  0  0  0
 15 16  1  0  0  0  0
 15 17  1  0  0  0  0
 15 18  1  0  0  0  0
 18 19  1  0  0  0  0
 18 20  2  0  0  0  0
M  END
> <VConfSearch Rank>
662

> <Conf_Id>
37

> <Delta U+W>
-0.384

> <U+W>
-52.130

> <U>
7.491

> <W>
-59.621

> <W(PB)>
-61.853

> <W(SA)>
2.232

> <Valence>
9.604

> <Coulomb>
-2.799

> <VdW>
0.686

> <VdW6>
-6.435

> <VdW12>
7.121

> <Bond>
0.124

> <Angle>
2.493

> <Pdih>
6.986

> <Idih>
0.001

> <Tether>
0.000

$$$$
VeraChem MOL file


 20 19  0  0  0  0  0  0  0  0999 V2000     
   21.7793   20.7203   19.8190 C   0  0  0  0  0  0  0  0  0  0  0  0
   22.4408   21.2631   19.1459 H   0  0  0  0  0  0  0  0  0  0  0  0
   20.7663   21.1024   19.9254 H   0  0  0  0  0  0  0  0  0  0  0  0
   22.2111   19.6371   20.4748 C   0  0  0  0  0  0  0  0  0  0  0  0
   23.2376   19.3023   20.3270 H   0  0  0  0  0  0  0  0  0  0  0  0
   21.4100   18.7810   21.4414 C   0  0  0  0  0  0  0  0  0  0  0  0
   21.9322   18.7567   22.4073 H   0  0  0  0  0  0  0  0  0  0  0  0
   21.4106   17.7444   21.0785 H   0  0  0  0  0  0  0  0  0  0  0  0
   19.9499   19.2389   21.6656 C   0  0  0  0  0  0  0  0  0  0  0  0
   19.9429   20.2686   22.0488 H   0  0  0  0  0  0  0  0  0  0  0  0
   19.4157   19.2453   20.7056 H   0  0  0  0  0  0  0  0  0  0  0  0
   19.2074   18.3181   22.6586 C   0  0  0  0  0  0  0  0  0  0  0  0
   19.7370   18.3073   23.6214 H   0  0  0  0  0  0  0  0  0  0  0  0
   19.2109   17.2861   22.2809 H   0  0  0  0  0  0  0  0  0  0  0  0
   17.7450   18.7746   22.8848 C   0  0  0  0  0  0  0  0  0  0  0  0
   17.7241   19.7993   23.2748 H   0  0  0  0  0  0  0  0  0  0  0  0
   17.1980   18.7782   21.9343 H   0  0  0  0  0  0  0  0  0  0  0  0
   16.9903   17.8805   23.8620 C   0  0  0  0  0  0  0  0  0  0  0  0
   17.0340   18.1580   25.0443 O   0  5  0  0  0  0  0  0  0  0  0  0
   16.3951   16.9189   23.4173 O   0  0  0  0  0  0  0  0  0  0  0  0
  1  2  1  0  0  0  0
  1  3  1  0  0  0  0
  1  4  2  0  0  0  0
  4  5  1  0  0  0  0
  4  6  1  0  0  0  0
  6  7  1  0  0  0  0
  6  8  1  0  0  0  0
  6  9  1  0  0  0  0
  9 10  1  0  0  0  0
  9 11  1  0  0  0  0
  9 12  1  0  0  0  0
 12 13  1  0  0  0  0
 12 14  1  0  0  0  0
 12 15  1  0  0  0  0
 15 16  1  0  0  0  0
 15 17  1  0  0  0  0
 15 18  1  0  0  0  0
 18 19  1  0  0  0  0
 18 20  2  0  0  0  0
M  END
> <VConfSearch Rank>
663

> <Conf_Id>
44

> <Delta U+W>
-1.440

> <U+W>
-53.185

> <U>
6.572

> <W>
-59.757

> <W(PB)>
-62.007

> <W(SA)>
2.249

> <Valence>
7.989

> <Coulomb>
-2.697

> <VdW>
1.281

> <VdW6>
-6.467

> <VdW12>
7.748

> <Bond>
0.136

> <Angle>
2.854

> <Pdih>
4.997

> <Idih>
0.001

> <Tether>
0.000

$$$$
VeraChem MOL file


 20 19  0  0  0  0  0  0  0  0999 V2000     
   18.9336   17.9333   25.0832 C   0  0  0  0  0  0  0  0  0  0  0  0
   18.4477   17.1641   24.4850 H   0  0  0  0  0  0  0  0  0  0  0  0
   18.6639   17.9938   26.1362 H   0  0  0  0  0  0  0  0  0  0  0  0
   19.8241   18.7734   24.5495 C   0  0  0  0  0  0  0  0  0  0  0  0
   20.2987   19.5368   25.1658 H   0  0  0  0  0  0  0  0  0  0  0  0
   20.2488   18.7490   23.0980 C   0  0  0  0  0  0  0  0  0  0  0  0
   19.9390   17.8034   22.6349 H   0  0  0  0  0  0  0  0  0  0  0  0
   21.3445   18.7888   23.0359 H   0  0  0  0  0  0  0  0  0  0  0  0
   19.6421   19.9397   22.3220 C   0  0  0  0  0  0  0  0  0  0  0  0
   18.5458   19.8688   22.3385 H   0  0  0  0  0  0  0  0  0  0  0  0
   19.9001   20.8720   22.8428 H   0  0  0  0  0  0  0  0  0  0  0  0
   20.1360   20.0396   20.8590 C   0  0  0  0  0  0  0  0  0  0  0  0
   21.2317   20.1203   20.8414 H   0  0  0  0  0  0  0  0  0  0  0  0
   19.7496   20.9698   20.4198 H   0  0  0  0  0  0  0  0  0  0  0  0
   19.6900   18.8480   19.9722 C   0  0  0  0  0  0  0  0  0  0  0  0
   20.1340   17.9122   20.3299 H   0  0  0  0  0  0  0  0  0  0  0  0
   18.6008   18.7299   20.0167 H   0  0  0  0  0  0  0  0  0  0  0  0
   20.0876   19.0203   18.5107 C   0  0  0  0  0  0  0  0  0  0  0  0
   19.3070   19.5794   17.7659 O   0  5  0  0  0  0  0  0  0  0  0  0
   21.1758   18.6087   18.1597 O   0  0  0  0  0  0  0  0  0  0  0  0
  1  2  1  0  0  0  0
  1  3  1  0  0  0  0
  1  4  2  0  0  0  0
  4  5  1  0  0  0  0
  4  6  1  0  0  0  0
  6  7  1  0  0  0  0
  6  8  1  0  0  0  0
  6  9  1  0  0  0  0
  9 10  1  0  0  0  0
  9 11  1  0  0  0  0
  9 12  1  0  0  0  0
 12 13  1  0  0  0  0
 12 14  1  0  0  0  0
 12 15  1  0  0  0  0
 15 16  1  0  0  0  0
 15 17  1  0  0  0  0
 15 18  1  0  0  0  0
 18 19  1  0  0  0  0
 18 20  2  0  0  0  0
M  END
> <VConfSearch Rank>
664

> <Conf_Id>
38

> <Delta U+W>
-0.381

> <U+W>
-52.126

> <U>
7.601

> <W>
-59.727

> <W(PB)>
-61.964

> <W(SA)>
2.236

> <Valence>
9.602

> <Coulomb>
-2.686

> <VdW>
0.685

> <VdW6>
-6.453

> <VdW12>
7.139

> <Bond>
0.125

> <Angle>
2.485

> <Pdih>
6.991

> <Idih>
0.001

> <Tether>
0.000

$$$$
VeraChem MOL file


 20 19  0  0  0  0  0  0  0  0999 V2000     
   22.3008   17.3256   23.5824 C   0  0  0  0  0  0  0  0  0  0  0  0
   22.9472   17.3890   22.7084 H   0  0  0  0  0  0  0  0  0  0  0  0
   22.7727   17.1118   24.5399 H   0  0  0  0  0  0  0  0  0  0  0  0
   20.9807   17.5049   23.4883 C   0  0  0  0  0  0  0  0  0  0  0  0
   20.3516   17.4382   24.3756 H   0  0  0  0  0  0  0  0  0  0  0  0
   20.2558   17.8039   22.1949 C   0  0  0  0  0  0  0  0  0  0  0  0
   19.3897   17.1360   22.0964 H   0  0  0  0  0  0  0  0  0  0  0  0
   20.9106   17.6014   21.3364 H   0  0  0  0  0  0  0  0  0  0  0  0
   19.7842   19.2724   22.1472 C   0  0  0  0  0  0  0  0  0  0  0  0
   19.1277   19.4716   23.0055 H   0  0  0  0  0  0  0  0  0  0  0  0
   20.6527   19.9373   22.2509 H   0  0  0  0  0  0  0  0  0  0  0  0
   19.0384   19.5941   20.8325 C   0  0  0  0  0  0  0  0  0  0  0  0
   18.1629   18.9377   20.7308 H   0  0  0  0  0  0  0  0  0  0  0  0
   19.6967   19.3773   19.9803 H   0  0  0  0  0  0  0  0  0  0  0  0
   18.5827   21.0742   20.7523 C   0  0  0  0  0  0  0  0  0  0  0  0
   19.4425   21.7429   20.8802 H   0  0  0  0  0  0  0  0  0  0  0  0
   18.1681   21.2767   19.7578 H   0  0  0  0  0  0  0  0  0  0  0  0
   17.5160   21.4508   21.7766 C   0  0  0  0  0  0  0  0  0  0  0  0
   17.8497   22.1153   22.7379 O   0  5  0  0  0  0  0  0  0  0  0  0
   16.3761   21.0782   21.5792 O   0  0  0  0  0  0  0  0  0  0  0  0
  1  2  1  0  0  0  0
  1  3  1  0  0  0  0
  1  4  2  0  0  0  0
  4  5  1  0  0  0  0
  4  6  1  0  0  0  0
  6  7  1  0  0  0  0
  6  8  1  0  0  0  0
  6  9  1  0  0  0  0
  9 10  1  0  0  0  0
  9 11  1  0  0  0  0
  9 12  1  0  0  0  0
 12 13  1  0  0  0  0
 12 14  1  0  0  0  0
 12 15  1  0  0  0  0
 15 16  1  0  0  0  0
 15 17  1  0  0  0  0
 15 18  1  0  0  0  0
 18 19  1  0  0  0  0
 18 20  2  0  0  0  0
M  END
> <VConfSearch Rank>
665

> <Conf_Id>
58

> <Delta U+W>
0.019

> <U+W>
-51.727

> <U>
8.963

> <W>
-60.690

> <W(PB)>
-62.934

> <W(SA)>
2.244

> <Valence>
9.327

> <Coulomb>
-0.780

> <VdW>
0.417

> <VdW6>
-6.635

> <VdW12>
7.052

> <Bond>
0.105

> <Angle>
2.399

> <Pdih>
6.822

> <Idih>
0.000

> <Tether>
0.000

$$$$
VeraChem MOL file


 20 19  0  0  0  0  0  0  0  0999 V2000     
   21.0896   20.9160   24.8856 C   0  0  0  0  0  0  0  0  0  0  0  0
   20.9678   20.0454   25.5280 H   0  0  0  0  0  0  0  0  0  0  0  0
   21.1630   21.8888   25.3689 H   0  0  0  0  0  0  0  0  0  0  0  0
   21.1446   20.8000   23.5563 C   0  0  0  0  0  0  0  0  0  0  0  0
   21.2660   21.6844   22.9311 H   0  0  0  0  0  0  0  0  0  0  0  0
   21.0505   19.4847   22.8154 C   0  0  0  0  0  0  0  0  0  0  0  0
   21.1881   18.6458   23.5111 H   0  0  0  0  0  0  0  0  0  0  0  0
   21.8613   19.4199   22.0775 H   0  0  0  0  0  0  0  0  0  0  0  0
   19.6896   19.3434   22.1018 C   0  0  0  0  0  0  0  0  0  0  0  0
   18.8810   19.4135   22.8424 H   0  0  0  0  0  0  0  0  0  0  0  0
   19.5555   20.1823   21.4050 H   0  0  0  0  0  0  0  0  0  0  0  0
   19.5781   18.0052   21.3369 C   0  0  0  0  0  0  0  0  0  0  0  0
   19.7290   17.1734   22.0383 H   0  0  0  0  0  0  0  0  0  0  0  0
   20.3792   17.9365   20.5878 H   0  0  0  0  0  0  0  0  0  0  0  0
   18.2049   17.8308   20.6377 C   0  0  0  0  0  0  0  0  0  0  0  0
   18.1352   16.8223   20.2133 H   0  0  0  0  0  0  0  0  0  0  0  0
   17.3928   17.9246   21.3687 H   0  0  0  0  0  0  0  0  0  0  0  0
   17.9564   18.8211   19.5035 C   0  0  0  0  0  0  0  0  0  0  0  0
   18.5293   18.6375   18.4475 O   0  5  0  0  0  0  0  0  0  0  0  0
   17.1893   19.7427   19.7014 O   0  0  0  0  0  0  0  0  0  0  0  0
  1  2  1  0  0  0  0
  1  3  1  0  0  0  0
  1  4  2  0  0  0  0
  4  5  1  0  0  0  0
  4  6  1  0  0  0  0
  6  7  1  0  0  0  0
  6  8  1  0  0  0  0
  6  9  1  0  0  0  0
  9 10  1  0  0  0  0
  9 11  1  0  0  0  0
  9 12  1  0  0  0  0
 12 13  1  0  0  0  0
 12 14  1  0  0  0  0
 12 15  1  0  0  0  0
 15 16  1  0  0  0  0
 15 17  1  0  0  0  0
 15 18  1  0  0  0  0
 18 19  1  0  0  0  0
 18 20  2  0  0  0  0
M  END
> <VConfSearch Rank>
666

> <Conf_Id>
54

> <Delta U+W>
-0.048

> <U+W>
-51.793

> <U>
8.964

> <W>
-60.756

> <W(PB)>
-63.007

> <W(SA)>
2.251

> <Valence>
9.327

> <Coulomb>
-0.780

> <VdW>
0.417

> <VdW6>
-6.635

> <VdW12>
7.052

> <Bond>
0.105

> <Angle>
2.399

> <Pdih>
6.822

> <Idih>
0.000

> <Tether>
0.000

$$$$
VeraChem MOL file


 20 19  0  0  0  0  0  0  0  0999 V2000     
   17.8046   20.4943   19.6437 C   0  0  0  0  0  0  0  0  0  0  0  0
   17.6589   21.5190   19.3062 H   0  0  0  0  0  0  0  0  0  0  0  0
   17.7778   19.7095   18.8895 H   0  0  0  0  0  0  0  0  0  0  0  0
   18.0111   20.2153   20.9334 C   0  0  0  0  0  0  0  0  0  0  0  0
   18.0307   21.0157   21.6724 H   0  0  0  0  0  0  0  0  0  0  0  0
   18.2143   18.8166   21.4758 C   0  0  0  0  0  0  0  0  0  0  0  0
   17.8246   18.0815   20.7586 H   0  0  0  0  0  0  0  0  0  0  0  0
   17.6325   18.6843   22.3978 H   0  0  0  0  0  0  0  0  0  0  0  0
   19.7022   18.5007   21.7484 C   0  0  0  0  0  0  0  0  0  0  0  0
   19.7941   17.4364   22.0049 H   0  0  0  0  0  0  0  0  0  0  0  0
   20.2825   18.6516   20.8277 H   0  0  0  0  0  0  0  0  0  0  0  0
   20.2997   19.3565   22.8907 C   0  0  0  0  0  0  0  0  0  0  0  0
   19.7108   19.2170   23.8078 H   0  0  0  0  0  0  0  0  0  0  0  0
   20.2284   20.4201   22.6276 H   0  0  0  0  0  0  0  0  0  0  0  0
   21.7850   19.0144   23.1769 C   0  0  0  0  0  0  0  0  0  0  0  0
   22.3803   19.1166   22.2615 H   0  0  0  0  0  0  0  0  0  0  0  0
   22.1923   19.7289   23.9019 H   0  0  0  0  0  0  0  0  0  0  0  0
   22.0014   17.6148   23.7454 C   0  0  0  0  0  0  0  0  0  0  0  0
   22.4500   16.7574   23.0101 O   0  5  0  0  0  0  0  0  0  0  0  0
   21.7251   17.4223   24.9132 O   0  0  0  0  0  0  0  0  0  0  0  0
  1  2  1  0  0  0  0
  1  3  1  0  0  0  0
  1  4  2  0  0  0  0
  4  5  1  0  0  0  0
  4  6  1  0  0  0  0
  6  7  1  0  0  0  0
  6  8  1  0  0  0  0
  6  9  1  0  0  0  0
  9 10  1  0  0  0  0
  9 11  1  0  0  0  0
  9 12  1  0  0  0  0
 12 13  1  0  0  0  0
 12 14  1  0  0  0  0
 12 15  1  0  0  0  0
 15 16  1  0  0  0  0
 15 17  1  0  0  0  0
 15 18  1  0  0  0  0
 18 19  1  0  0  0  0
 18 20  2  0  0  0  0
M  END
> <VConfSearch Rank>
667

> <Conf_Id>
27

> <Delta U+W>
0.478

> <U+W>
-51.267

> <U>
9.192

> <W>
-60.459

> <W(PB)>
-62.649

> <W(SA)>
2.190

> <Valence>
9.572

> <Coulomb>
-0.884

> <VdW>
0.504

> <VdW6>
-7.168

> <VdW12>
7.672

> <Bond>
0.127

> <Angle>
2.504

> <Pdih>
6.941

> <Idih>
0.001

> <Tether>
0.000

$$$$
VeraChem MOL file


 20 19  0  0  0  0  0  0  0  0999 V2000     
   22.7565   18.1688   23.0961 C   0  0  0  0  0  0  0  0  0  0  0  0
   23.1978   19.1275   23.3636 H   0  0  0  0  0  0  0  0  0  0  0  0
   23.4332   17.3755   22.7830 H   0  0  0  0  0  0  0  0  0  0  0  0
   21.4367   17.9705   23.1456 C   0  0  0  0  0  0  0  0  0  0  0  0
   21.0161   17.0020   22.8765 H   0  0  0  0  0  0  0  0  0  0  0  0
   20.4372   19.0227   23.5765 C   0  0  0  0  0  0  0  0  0  0  0  0
   20.9491   19.8061   24.1518 H   0  0  0  0  0  0  0  0  0  0  0  0
   19.6955   18.5790   24.2541 H   0  0  0  0  0  0  0  0  0  0  0  0
   19.7197   19.6793   22.3756 C   0  0  0  0  0  0  0  0  0  0  0  0
   19.1118   20.5177   22.7421 H   0  0  0  0  0  0  0  0  0  0  0  0
   20.4674   20.1074   21.6936 H   0  0  0  0  0  0  0  0  0  0  0  0
   18.8119   18.6931   21.6053 C   0  0  0  0  0  0  0  0  0  0  0  0
   18.0816   18.2463   22.2940 H   0  0  0  0  0  0  0  0  0  0  0  0
   19.4136   17.8687   21.1990 H   0  0  0  0  0  0  0  0  0  0  0  0
   18.0604   19.3898   20.4444 C   0  0  0  0  0  0  0  0  0  0  0  0
   17.4397   20.2071   20.8309 H   0  0  0  0  0  0  0  0  0  0  0  0
   18.7766   19.8311   19.7409 H   0  0  0  0  0  0  0  0  0  0  0  0
   17.1585   18.4375   19.6674 C   0  0  0  0  0  0  0  0  0  0  0  0
   17.6301   17.8508   18.7133 O   0  5  0  0  0  0  0  0  0  0  0  0
   16.0132   18.2941   20.0473 O   0  0  0  0  0  0  0  0  0  0  0  0
  1  2  1  0  0  0  0
  1  3  1  0  0  0  0
  1  4  2  0  0  0  0
  4  5  1  0  0  0  0
  4  6  1  0  0  0  0
  6  7  1  0  0  0  0
  6  8  1  0  0  0  0
  6  9  1  0  0  0  0
  9 10  1  0  0  0  0
  9 11  1  0  0  0  0
  9 12  1  0  0  0  0
 12 13  1  0  0  0  0
 12 14  1  0  0  0  0
 12 15  1  0  0  0  0
 15 16  1  0  0  0  0
 15 17  1  0  0  0  0
 15 18  1  0  0  0  0
 18 19  1  0  0  0  0
 18 20  2  0  0  0  0
M  END
> <VConfSearch Rank>
668

> <Conf_Id>
41

> <Delta U+W>
-0.634

> <U+W>
-52.379

> <U>
7.828

> <W>
-60.207

> <W(PB)>
-62.449

> <W(SA)>
2.242

> <Valence>
9.300

> <Coulomb>
-2.080

> <VdW>
0.608

> <VdW6>
-6.341

> <VdW12>
6.949

> <Bond>
0.103

> <Angle>
2.334

> <Pdih>
6.862

> <Idih>
0.001

> <Tether>
0.000

$$$$
VeraChem MOL file


 20 19  0  0  0  0  0  0  0  0999 V2000     
   17.1635   20.7623   22.9386 C   0  0  0  0  0  0  0  0  0  0  0  0
   16.1589   20.7647   23.3581 H   0  0  0  0  0  0  0  0  0  0  0  0
   17.6837   21.7169   22.8784 H   0  0  0  0  0  0  0  0  0  0  0  0
   17.7329   19.6299   22.5176 C   0  0  0  0  0  0  0  0  0  0  0  0
   17.1957   18.6843   22.5872 H   0  0  0  0  0  0  0  0  0  0  0  0
   19.1216   19.5486   21.9239 C   0  0  0  0  0  0  0  0  0  0  0  0
   19.4798   20.5516   21.6555 H   0  0  0  0  0  0  0  0  0  0  0  0
   19.0819   18.9646   20.9953 H   0  0  0  0  0  0  0  0  0  0  0  0
   20.1110   18.8950   22.9145 C   0  0  0  0  0  0  0  0  0  0  0  0
   20.0625   19.4334   23.8710 H   0  0  0  0  0  0  0  0  0  0  0  0
   19.7936   17.8643   23.1244 H   0  0  0  0  0  0  0  0  0  0  0  0
   21.5782   18.9020   22.4189 C   0  0  0  0  0  0  0  0  0  0  0  0
   22.2208   18.4925   23.2105 H   0  0  0  0  0  0  0  0  0  0  0  0
   21.9031   19.9400   22.2654 H   0  0  0  0  0  0  0  0  0  0  0  0
   21.8192   18.0948   21.1140 C   0  0  0  0  0  0  0  0  0  0  0  0
   21.2488   18.5238   20.2823 H   0  0  0  0  0  0  0  0  0  0  0  0
   22.8766   18.1657   20.8337 H   0  0  0  0  0  0  0  0  0  0  0  0
   21.4781   16.6117   21.2269 C   0  0  0  0  0  0  0  0  0  0  0  0
   22.2164   15.9030   21.8826 O   0  5  0  0  0  0  0  0  0  0  0  0
   20.4949   16.2006   20.6426 O   0  0  0  0  0  0  0  0  0  0  0  0
  1  2  1  0  0  0  0
  1  3  1  0  0  0  0
  1  4  2  0  0  0  0
  4  5  1  0  0  0  0
  4  6  1  0  0  0  0
  6  7  1  0  0  0  0
  6  8  1  0  0  0  0
  6  9  1  0  0  0  0
  9 10  1  0  0  0  0
  9 11  1  0  0  0  0
  9 12  1  0  0  0  0
 12 13  1  0  0  0  0
 12 14  1  0  0  0  0
 12 15  1  0  0  0  0
 15 16  1  0  0  0  0
 15 17  1  0  0  0  0
 15 18  1  0  0  0  0
 18 19  1  0  0  0  0
 18 20  2  0  0  0  0
M  END
> <VConfSearch Rank>
669

> <Conf_Id>
84

> <Delta U+W>
0.942

> <U+W>
-50.803

> <U>
10.196

> <W>
-60.999

> <W(PB)>
-63.182

> <W(SA)>
2.182

> <Valence>
9.837

> <Coulomb>
0.032

> <VdW>
0.328

> <VdW6>
-7.642

> <VdW12>
7.969

> <Bond>
0.151

> <Angle>
2.748

> <Pdih>
6.937

> <Idih>
0.001

> <Tether>
0.000

$$$$
VeraChem MOL file


 20 19  0  0  0  0  0  0  0  0999 V2000     
   21.9861   21.7827   22.3306 C   0  0  0  0  0  0  0  0  0  0  0  0
   22.9053   22.1158   22.8095 H   0  0  0  0  0  0  0  0  0  0  0  0
   21.9109   21.9048   21.2512 H   0  0  0  0  0  0  0  0  0  0  0  0
   20.9931   21.2437   23.0427 C   0  0  0  0  0  0  0  0  0  0  0  0
   21.0889   21.1296   24.1222 H   0  0  0  0  0  0  0  0  0  0  0  0
   19.6892   20.7599   22.4481 C   0  0  0  0  0  0  0  0  0  0  0  0
   19.5735   21.1409   21.4243 H   0  0  0  0  0  0  0  0  0  0  0  0
   18.8490   21.1599   23.0312 H   0  0  0  0  0  0  0  0  0  0  0  0
   19.6217   19.2183   22.4328 C   0  0  0  0  0  0  0  0  0  0  0  0
   20.4685   18.8249   21.8534 H   0  0  0  0  0  0  0  0  0  0  0  0
   19.7332   18.8366   23.4570 H   0  0  0  0  0  0  0  0  0  0  0  0
   18.2931   18.7074   21.8310 C   0  0  0  0  0  0  0  0  0  0  0  0
   18.1848   19.0759   20.8014 H   0  0  0  0  0  0  0  0  0  0  0  0
   17.4527   19.1211   22.4048 H   0  0  0  0  0  0  0  0  0  0  0  0
   18.1922   17.1600   21.8359 C   0  0  0  0  0  0  0  0  0  0  0  0
   18.3254   16.7747   22.8541 H   0  0  0  0  0  0  0  0  0  0  0  0
   17.1901   16.8570   21.5104 H   0  0  0  0  0  0  0  0  0  0  0  0
   19.1978   16.4700   20.9185 C   0  0  0  0  0  0  0  0  0  0  0  0
   20.1551   15.9185   21.4247 O   0  5  0  0  0  0  0  0  0  0  0  0
   18.9890   16.4917   19.7214 O   0  0  0  0  0  0  0  0  0  0  0  0
  1  2  1  0  0  0  0
  1  3  1  0  0  0  0
  1  4  2  0  0  0  0
  4  5  1  0  0  0  0
  4  6  1  0  0  0  0
  6  7  1  0  0  0  0
  6  8  1  0  0  0  0
  6  9  1  0  0  0  0
  9 10  1  0  0  0  0
  9 11  1  0  0  0  0
  9 12  1  0  0  0  0
 12 13  1  0  0  0  0
 12 14  1  0  0  0  0
 12 15  1  0  0  0  0
 15 16  1  0  0  0  0
 15 17  1  0  0  0  0
 15 18  1  0  0  0  0
 18 19  1  0  0  0  0
 18 20  2  0  0  0  0
M  END
> <VConfSearch Rank>
670

> <Conf_Id>
81

> <Delta U+W>
-0.051

> <U+W>
-51.796

> <U>
9.412

> <W>
-61.209

> <W(PB)>
-63.452

> <W(SA)>
2.243

> <Valence>
9.329

> <Coulomb>
-0.323

> <VdW>
0.406

> <VdW6>
-6.640

> <VdW12>
7.046

> <Bond>
0.105

> <Angle>
2.401

> <Pdih>
6.823

> <Idih>
0.000

> <Tether>
0.000

$$$$
VeraChem MOL file


 20 19  0  0  0  0  0  0  0  0999 V2000     
   20.1322   16.5781   20.0383 C   0  0  0  0  0  0  0  0  0  0  0  0
   19.3231   15.8685   20.2037 H   0  0  0  0  0  0  0  0  0  0  0  0
   20.7273   16.4580   19.1347 H   0  0  0  0  0  0  0  0  0  0  0  0
   20.3860   17.5609   20.9063 C   0  0  0  0  0  0  0  0  0  0  0  0
   21.2021   18.2593   20.7231 H   0  0  0  0  0  0  0  0  0  0  0  0
   19.6062   17.7865   22.1840 C   0  0  0  0  0  0  0  0  0  0  0  0
   20.2949   17.9818   23.0161 H   0  0  0  0  0  0  0  0  0  0  0  0
   19.0640   16.8702   22.4535 H   0  0  0  0  0  0  0  0  0  0  0  0
   18.5846   18.9419   22.0570 C   0  0  0  0  0  0  0  0  0  0  0  0
   17.8547   18.6843   21.2774 H   0  0  0  0  0  0  0  0  0  0  0  0
   18.0153   19.0182   22.9935 H   0  0  0  0  0  0  0  0  0  0  0  0
   19.2058   20.3226   21.7226 C   0  0  0  0  0  0  0  0  0  0  0  0
   18.3961   21.0593   21.6291 H   0  0  0  0  0  0  0  0  0  0  0  0
   19.6902   20.2777   20.7381 H   0  0  0  0  0  0  0  0  0  0  0  0
   20.2290   20.8380   22.7712 C   0  0  0  0  0  0  0  0  0  0  0  0
   21.0899   20.1628   22.8351 H   0  0  0  0  0  0  0  0  0  0  0  0
   20.6205   21.8099   22.4491 H   0  0  0  0  0  0  0  0  0  0  0  0
   19.6478   21.0231   24.1699 C   0  0  0  0  0  0  0  0  0  0  0  0
   19.9790   20.2416   25.0398 O   0  5  0  0  0  0  0  0  0  0  0  0
   18.8914   21.9561   24.3565 O   0  0  0  0  0  0  0  0  0  0  0  0
  1  2  1  0  0  0  0
  1  3  1  0  0  0  0
  1  4  2  0  0  0  0
  4  5  1  0  0  0  0
  4  6  1  0  0  0  0
  6  7  1  0  0  0  0
  6  8  1  0  0  0  0
  6  9  1  0  0  0  0
  9 10  1  0  0  0  0
  9 11  1  0  0  0  0
  9 12  1  0  0  0  0
 12 13  1  0  0  0  0
 12 14  1  0  0  0  0
 12 15  1  0  0  0  0
 15 16  1  0  0  0  0
 15 17  1  0  0  0  0
 15 18  1  0  0  0  0
 18 19  1  0  0  0  0
 18 20  2  0  0  0  0
M  END
> <VConfSearch Rank>
671

> <Conf_Id>
86

> <Delta U+W>
1.248

> <U+W>
-50.498

> <U>
10.404

> <W>
-60.901

> <W(PB)>
-63.061

> <W(SA)>
2.159

> <Valence>
10.021

> <Coulomb>
0.094

> <VdW>
0.289

> <VdW6>
-8.409

> <VdW12>
8.698

> <Bond>
0.179

> <Angle>
2.939

> <Pdih>
6.902

> <Idih>
0.001

> <Tether>
0.000

$$$$
VeraChem MOL file


 20 19  0  0  0  0  0  0  0  0999 V2000     
   18.9911   21.1875   19.8760 C   0  0  0  0  0  0  0  0  0  0  0  0
   19.2723   21.4775   18.8651 H   0  0  0  0  0  0  0  0  0  0  0  0
   17.9519   20.9119   20.0477 H   0  0  0  0  0  0  0  0  0  0  0  0
   19.8899   21.1684   20.8639 C   0  0  0  0  0  0  0  0  0  0  0  0
   20.9257   21.4458   20.6705 H   0  0  0  0  0  0  0  0  0  0  0  0
   19.5744   20.7768   22.2919 C   0  0  0  0  0  0  0  0  0  0  0  0
   18.4885   20.7106   22.4441 H   0  0  0  0  0  0  0  0  0  0  0  0
   19.9343   21.5641   22.9674 H   0  0  0  0  0  0  0  0  0  0  0  0
   20.2335   19.4376   22.6921 C   0  0  0  0  0  0  0  0  0  0  0  0
   21.3192   19.5015   22.5364 H   0  0  0  0  0  0  0  0  0  0  0  0
   20.0807   19.2773   23.7682 H   0  0  0  0  0  0  0  0  0  0  0  0
   19.6617   18.2329   21.9076 C   0  0  0  0  0  0  0  0  0  0  0  0
   19.8199   18.3886   20.8321 H   0  0  0  0  0  0  0  0  0  0  0  0
   18.5753   18.1715   22.0605 H   0  0  0  0  0  0  0  0  0  0  0  0
   20.3160   16.8883   22.3189 C   0  0  0  0  0  0  0  0  0  0  0  0
   19.9659   16.0917   21.6520 H   0  0  0  0  0  0  0  0  0  0  0  0
   21.4049   16.9455   22.2013 H   0  0  0  0  0  0  0  0  0  0  0  0
   20.0021   16.4571   23.7487 C   0  0  0  0  0  0  0  0  0  0  0  0
   18.9023   15.9938   23.9786 O   0  5  0  0  0  0  0  0  0  0  0  0
   20.8680   16.5848   24.5920 O   0  0  0  0  0  0  0  0  0  0  0  0
  1  2  1  0  0  0  0
  1  3  1  0  0  0  0
  1  4  2  0  0  0  0
  4  5  1  0  0  0  0
  4  6  1  0  0  0  0
  6  7  1  0  0  0  0
  6  8  1  0  0  0  0
  6  9  1  0  0  0  0
  9 10  1  0  0  0  0
  9 11  1  0  0  0  0
  9 12  1  0  0  0  0
 12 13  1  0  0  0  0
 12 14  1  0  0  0  0
 12 15  1  0  0  0  0
 15 16  1  0  0  0  0
 15 17  1  0  0  0  0
 15 18  1  0  0  0  0
 18 19  1  0  0  0  0
 18 20  2  0  0  0  0
M  END
> <VConfSearch Rank>
672

> <Conf_Id>
28

> <Delta U+W>
0.446

> <U+W>
-51.299

> <U>
9.295

> <W>
-60.594

> <W(PB)>
-62.806

> <W(SA)>
2.212

> <Valence>
9.495

> <Coulomb>
-0.610

> <VdW>
0.409

> <VdW6>
-7.332

> <VdW12>
7.741

> <Bond>
0.126

> <Angle>
2.497

> <Pdih>
6.872

> <Idih>
0.000

> <Tether>
0.000

$$$$
VeraChem MOL file


 20 19  0  0  0  0  0  0  0  0999 V2000     
   20.5864   21.7821   20.4724 C   0  0  0  0  0  0  0  0  0  0  0  0
   19.7946   22.0758   21.1582 H   0  0  0  0  0  0  0  0  0  0  0  0
   21.0681   22.5787   19.9081 H   0  0  0  0  0  0  0  0  0  0  0  0
   20.9673   20.5088   20.3183 C   0  0  0  0  0  0  0  0  0  0  0  0
   21.7688   20.2768   19.6174 H   0  0  0  0  0  0  0  0  0  0  0  0
   20.3923   19.2954   21.0300 C   0  0  0  0  0  0  0  0  0  0  0  0
   21.1914   18.8298   21.6209 H   0  0  0  0  0  0  0  0  0  0  0  0
   20.1038   18.5505   20.2765 H   0  0  0  0  0  0  0  0  0  0  0  0
   19.1741   19.5885   21.9403 C   0  0  0  0  0  0  0  0  0  0  0  0
   19.4743   20.2650   22.7522 H   0  0  0  0  0  0  0  0  0  0  0  0
   18.4099   20.1184   21.3556 H   0  0  0  0  0  0  0  0  0  0  0  0
   18.5284   18.3134   22.5373 C   0  0  0  0  0  0  0  0  0  0  0  0
   18.1855   17.6647   21.7200 H   0  0  0  0  0  0  0  0  0  0  0  0
   17.6286   18.6028   23.0977 H   0  0  0  0  0  0  0  0  0  0  0  0
   19.4591   17.4992   23.4773 C   0  0  0  0  0  0  0  0  0  0  0  0
   18.9232   16.6146   23.8405 H   0  0  0  0  0  0  0  0  0  0  0  0
   20.3336   17.1285   22.9307 H   0  0  0  0  0  0  0  0  0  0  0  0
   19.9395   18.2721   24.7023 C   0  0  0  0  0  0  0  0  0  0  0  0
   19.1302   18.5253   25.5732 O   0  5  0  0  0  0  0  0  0  0  0  0
   21.1129   18.5822   24.7639 O   0  0  0  0  0  0  0  0  0  0  0  0
  1  2  1  0  0  0  0
  1  3  1  0  0  0  0
  1  4  2  0  0  0  0
  4  5  1  0  0  0  0
  4  6  1  0  0  0  0
  6  7  1  0  0  0  0
  6  8  1  0  0  0  0
  6  9  1  0  0  0  0
  9 10  1  0  0  0  0
  9 11  1  0  0  0  0
  9 12  1  0  0  0  0
 12 13  1  0  0  0  0
 12 14  1  0  0  0  0
 12 15  1  0  0  0  0
 15 16  1  0  0  0  0
 15 17  1  0  0  0  0
 15 18  1  0  0  0  0
 18 19  1  0  0  0  0
 18 20  2  0  0  0  0
M  END
> <VConfSearch Rank>
673

> <Conf_Id>
53

> <Delta U+W>
0.549

> <U+W>
-51.197

> <U>
10.870

> <W>
-62.067

> <W(PB)>
-64.228

> <W(SA)>
2.161

> <Valence>
8.803

> <Coulomb>
1.020

> <VdW>
1.048

> <VdW6>
-8.312

> <VdW12>
9.360

> <Bond>
0.212

> <Angle>
3.379

> <Pdih>
5.211

> <Idih>
0.001

> <Tether>
0.000

$$$$
VeraChem MOL file


 20 19  0  0  0  0  0  0  0  0999 V2000     
   19.7204   20.2331   24.5145 C   0  0  0  0  0  0  0  0  0  0  0  0
   19.3640   21.0256   23.8601 H   0  0  0  0  0  0  0  0  0  0  0  0
   20.2749   20.5361   25.4008 H   0  0  0  0  0  0  0  0  0  0  0  0
   19.4902   18.9407   24.2584 C   0  0  0  0  0  0  0  0  0  0  0  0
   19.8671   18.1864   24.9484 H   0  0  0  0  0  0  0  0  0  0  0  0
   18.7402   18.3779   23.0624 C   0  0  0  0  0  0  0  0  0  0  0  0
   17.7099   18.1522   23.3675 H   0  0  0  0  0  0  0  0  0  0  0  0
   19.1718   17.4046   22.7959 H   0  0  0  0  0  0  0  0  0  0  0  0
   18.7123   19.2748   21.7972 C   0  0  0  0  0  0  0  0  0  0  0  0
   18.0824   18.7899   21.0390 H   0  0  0  0  0  0  0  0  0  0  0  0
   18.2118   20.2231   22.0330 H   0  0  0  0  0  0  0  0  0  0  0  0
   20.1041   19.5696   21.1786 C   0  0  0  0  0  0  0  0  0  0  0  0
   20.7204   20.1198   21.9011 H   0  0  0  0  0  0  0  0  0  0  0  0
   19.9716   20.2402   20.3185 H   0  0  0  0  0  0  0  0  0  0  0  0
   20.8813   18.3089   20.7105 C   0  0  0  0  0  0  0  0  0  0  0  0
   21.8486   18.6133   20.2944 H   0  0  0  0  0  0  0  0  0  0  0  0
   21.1028   17.6545   21.5612 H   0  0  0  0  0  0  0  0  0  0  0  0
   20.1621   17.4941   19.6395 C   0  0  0  0  0  0  0  0  0  0  0  0
   19.6933   16.4172   19.9522 O   0  5  0  0  0  0  0  0  0  0  0  0
   20.1056   17.9508   18.5144 O   0  0  0  0  0  0  0  0  0  0  0  0
  1  2  1  0  0  0  0
  1  3  1  0  0  0  0
  1  4  2  0  0  0  0
  4  5  1  0  0  0  0
  4  6  1  0  0  0  0
  6  7  1  0  0  0  0
  6  8  1  0  0  0  0
  6  9  1  0  0  0  0
  9 10  1  0  0  0  0
  9 11  1  0  0  0  0
  9 12  1  0  0  0  0
 12 13  1  0  0  0  0
 12 14  1  0  0  0  0
 12 15  1  0  0  0  0
 15 16  1  0  0  0  0
 15 17  1  0  0  0  0
 15 18  1  0  0  0  0
 18 19  1  0  0  0  0
 18 20  2  0  0  0  0
M  END
> <VConfSearch Rank>
674

> <Conf_Id>
66

> <Delta U+W>
1.737

> <U+W>
-50.008

> <U>
11.091

> <W>
-61.099

> <W(PB)>
-63.213

> <W(SA)>
2.114

> <Valence>
9.664

> <Coulomb>
0.658

> <VdW>
0.769

> <VdW6>
-9.171

> <VdW12>
9.940

> <Bond>
0.244

> <Angle>
3.658

> <Pdih>
5.762

> <Idih>
0.001

> <Tether>
0.000

$$$$
VeraChem MOL file


 20 19  0  0  0  0  0  0  0  0999 V2000     
   19.5121   17.1099   20.0809 C   0  0  0  0  0  0  0  0  0  0  0  0
   18.6353   17.6980   19.8190 H   0  0  0  0  0  0  0  0  0  0  0  0
   20.0691   16.6617   19.2600 H   0  0  0  0  0  0  0  0  0  0  0  0
   19.8982   16.9311   21.3489 C   0  0  0  0  0  0  0  0  0  0  0  0
   20.7835   16.3301   21.5546 H   0  0  0  0  0  0  0  0  0  0  0  0
   19.2246   17.4980   22.5881 C   0  0  0  0  0  0  0  0  0  0  0  0
   19.9932   17.7270   23.3367 H   0  0  0  0  0  0  0  0  0  0  0  0
   18.6135   16.7091   23.0461 H   0  0  0  0  0  0  0  0  0  0  0  0
   18.3463   18.7573   22.3666 C   0  0  0  0  0  0  0  0  0  0  0  0
   17.5388   18.5192   21.6618 H   0  0  0  0  0  0  0  0  0  0  0  0
   17.8485   19.0096   23.3127 H   0  0  0  0  0  0  0  0  0  0  0  0
   19.1170   20.0044   21.8633 C   0  0  0  0  0  0  0  0  0  0  0  0
   18.3923   20.8049   21.6601 H   0  0  0  0  0  0  0  0  0  0  0  0
   19.6094   19.7861   20.9065 H   0  0  0  0  0  0  0  0  0  0  0  0
   20.1694   20.5318   22.8729 C   0  0  0  0  0  0  0  0  0  0  0  0
   19.7034   20.7072   23.8497 H   0  0  0  0  0  0  0  0  0  0  0  0
   20.9662   19.7938   23.0186 H   0  0  0  0  0  0  0  0  0  0  0  0
   20.8201   21.8341   22.4200 C   0  0  0  0  0  0  0  0  0  0  0  0
   21.8423   21.7692   21.7662 O   0  5  0  0  0  0  0  0  0  0  0  0
   20.2792   22.8799   22.7210 O   0  0  0  0  0  0  0  0  0  0  0  0
  1  2  1  0  0  0  0
  1  3  1  0  0  0  0
  1  4  2  0  0  0  0
  4  5  1  0  0  0  0
  4  6  1  0  0  0  0
  6  7  1  0  0  0  0
  6  8  1  0  0  0  0
  6  9  1  0  0  0  0
  9 10  1  0  0  0  0
  9 11  1  0  0  0  0
  9 12  1  0  0  0  0
 12 13  1  0  0  0  0
 12 14  1  0  0  0  0
 12 15  1  0  0  0  0
 15 16  1  0  0  0  0
 15 17  1  0  0  0  0
 15 18  1  0  0  0  0
 18 19  1  0  0  0  0
 18 20  2  0  0  0  0
M  END
> <VConfSearch Rank>
675

> <Conf_Id>
64

> <Delta U+W>
0.366

> <U+W>
-51.379

> <U>
10.000

> <W>
-61.379

> <W(PB)>
-63.541

> <W(SA)>
2.162

> <Valence>
9.398

> <Coulomb>
-0.504

> <VdW>
1.105

> <VdW6>
-7.975

> <VdW12>
9.080

> <Bond>
0.216

> <Angle>
3.417

> <Pdih>
5.765

> <Idih>
0.001

> <Tether>
0.000

$$$$
VeraChem MOL file


 20 19  0  0  0  0  0  0  0  0999 V2000     
   22.9136   19.1635   21.9563 C   0  0  0  0  0  0  0  0  0  0  0  0
   22.8957   18.9817   23.0296 H   0  0  0  0  0  0  0  0  0  0  0  0
   23.6514   19.8699   21.5798 H   0  0  0  0  0  0  0  0  0  0  0  0
   22.0624   18.5488   21.1307 C   0  0  0  0  0  0  0  0  0  0  0  0
   22.0952   18.7467   20.0597 H   0  0  0  0  0  0  0  0  0  0  0  0
   21.0107   17.5566   21.5796 C   0  0  0  0  0  0  0  0  0  0  0  0
   21.1771   17.2631   22.6250 H   0  0  0  0  0  0  0  0  0  0  0  0
   21.1040   16.6400   20.9821 H   0  0  0  0  0  0  0  0  0  0  0  0
   19.5769   18.1109   21.4214 C   0  0  0  0  0  0  0  0  0  0  0  0
   19.4108   18.4050   20.3760 H   0  0  0  0  0  0  0  0  0  0  0  0
   18.8600   17.3077   21.6400 H   0  0  0  0  0  0  0  0  0  0  0  0
   19.2952   19.3110   22.3542 C   0  0  0  0  0  0  0  0  0  0  0  0
   19.9891   20.1321   22.1272 H   0  0  0  0  0  0  0  0  0  0  0  0
   19.4784   19.0196   23.3976 H   0  0  0  0  0  0  0  0  0  0  0  0
   17.8402   19.8217   22.2128 C   0  0  0  0  0  0  0  0  0  0  0  0
   17.6458   20.1284   21.1780 H   0  0  0  0  0  0  0  0  0  0  0  0
   17.1319   19.0194   22.4520 H   0  0  0  0  0  0  0  0  0  0  0  0
   17.5377   21.0065   23.1232 C   0  0  0  0  0  0  0  0  0  0  0  0
   17.1415   20.7780   24.2491 O   0  5  0  0  0  0  0  0  0  0  0  0
   17.7194   22.1262   22.6876 O   0  0  0  0  0  0  0  0  0  0  0  0
  1  2  1  0  0  0  0
  1  3  1  0  0  0  0
  1  4  2  0  0  0  0
  4  5  1  0  0  0  0
  4  6  1  0  0  0  0
  6  7  1  0  0  0  0
  6  8  1  0  0  0  0
  6  9  1  0  0  0  0
  9 10  1  0  0  0  0
  9 11  1  0  0  0  0
  9 12  1  0  0  0  0
 12 13  1  0  0  0  0
 12 14  1  0  0  0  0
 12 15  1  0  0  0  0
 15 16  1  0  0  0  0
 15 17  1  0  0  0  0
 15 18  1  0  0  0  0
 18 19  1  0  0  0  0
 18 20  2  0  0  0  0
M  END
> <VConfSearch Rank>
676

> <Conf_Id>
42

> <Delta U+W>
-0.601

> <U+W>
-52.347

> <U>
8.428

> <W>
-60.774

> <W(PB)>
-62.982

> <W(SA)>
2.208

> <Valence>
9.231

> <Coulomb>
-1.304

> <VdW>
0.501

> <VdW6>
-6.515

> <VdW12>
7.016

> <Bond>
0.103

> <Angle>
2.328

> <Pdih>
6.799

> <Idih>
0.000

> <Tether>
0.000

$$$$
VeraChem MOL file


 20 19  0  0  0  0  0  0  0  0999 V2000     
   18.1220   21.5194   23.2842 C   0  0  0  0  0  0  0  0  0  0  0  0
   17.3086   20.8828   23.6286 H   0  0  0  0  0  0  0  0  0  0  0  0
   17.8611   22.5089   22.9128 H   0  0  0  0  0  0  0  0  0  0  0  0
   19.3913   21.1047   23.3109 C   0  0  0  0  0  0  0  0  0  0  0  0
   20.1904   21.7565   22.9587 H   0  0  0  0  0  0  0  0  0  0  0  0
   19.8303   19.7448   23.8107 C   0  0  0  0  0  0  0  0  0  0  0  0
   19.0026   19.2350   24.3221 H   0  0  0  0  0  0  0  0  0  0  0  0
   20.6229   19.8763   24.5594 H   0  0  0  0  0  0  0  0  0  0  0  0
   20.3649   18.8472   22.6720 C   0  0  0  0  0  0  0  0  0  0  0  0
   21.1971   19.3562   22.1663 H   0  0  0  0  0  0  0  0  0  0  0  0
   20.7792   17.9282   23.1085 H   0  0  0  0  0  0  0  0  0  0  0  0
   19.2714   18.4735   21.6434 C   0  0  0  0  0  0  0  0  0  0  0  0
   18.8770   19.3822   21.1680 H   0  0  0  0  0  0  0  0  0  0  0  0
   18.4293   18.0008   22.1664 H   0  0  0  0  0  0  0  0  0  0  0  0
   19.7901   17.5079   20.5465 C   0  0  0  0  0  0  0  0  0  0  0  0
   20.2098   16.6040   21.0044 H   0  0  0  0  0  0  0  0  0  0  0  0
   18.9527   17.1852   19.9168 H   0  0  0  0  0  0  0  0  0  0  0  0
   20.8428   18.1218   19.6279 C   0  0  0  0  0  0  0  0  0  0  0  0
   22.0065   17.8168   19.8009 O   0  5  0  0  0  0  0  0  0  0  0  0
   20.4681   18.8755   18.7512 O   0  0  0  0  0  0  0  0  0  0  0  0
  1  2  1  0  0  0  0
  1  3  1  0  0  0  0
  1  4  2  0  0  0  0
  4  5  1  0  0  0  0
  4  6  1  0  0  0  0
  6  7  1  0  0  0  0
  6  8  1  0  0  0  0
  6  9  1  0  0  0  0
  9 10  1  0  0  0  0
  9 11  1  0  0  0  0
  9 12  1  0  0  0  0
 12 13  1  0  0  0  0
 12 14  1  0  0  0  0
 12 15  1  0  0  0  0
 15 16  1  0  0  0  0
 15 17  1  0  0  0  0
 15 18  1  0  0  0  0
 18 19  1  0  0  0  0
 18 20  2  0  0  0  0
M  END
> <VConfSearch Rank>
677

> <Conf_Id>
68

> <Delta U+W>
0.492

> <U+W>
-51.253

> <U>
10.179

> <W>
-61.432

> <W(PB)>
-63.627

> <W(SA)>
2.195

> <Valence>
9.483

> <Coulomb>
0.361

> <VdW>
0.335

> <VdW6>
-7.385

> <VdW12>
7.720

> <Bond>
0.125

> <Angle>
2.487

> <Pdih>
6.870

> <Idih>
0.001

> <Tether>
0.000

$$$$
VeraChem MOL file


 20 19  0  0  0  0  0  0  0  0999 V2000     
   22.0118   17.6136   23.5152 C   0  0  0  0  0  0  0  0  0  0  0  0
   22.9064   18.1174   23.1528 H   0  0  0  0  0  0  0  0  0  0  0  0
   22.0858   16.5471   23.7209 H   0  0  0  0  0  0  0  0  0  0  0  0
   20.8653   18.2738   23.6981 C   0  0  0  0  0  0  0  0  0  0  0  0
   19.9824   17.7506   24.0642 H   0  0  0  0  0  0  0  0  0  0  0  0
   20.6895   19.7549   23.4393 C   0  0  0  0  0  0  0  0  0  0  0  0
   21.6716   20.2464   23.4180 H   0  0  0  0  0  0  0  0  0  0  0  0
   20.1332   20.2158   24.2664 H   0  0  0  0  0  0  0  0  0  0  0  0
   19.9661   20.0366   22.1030 C   0  0  0  0  0  0  0  0  0  0  0  0
   19.9856   21.1179   21.9107 H   0  0  0  0  0  0  0  0  0  0  0  0
   20.5220   19.5628   21.2820 H   0  0  0  0  0  0  0  0  0  0  0  0
   18.4985   19.5467   22.0987 C   0  0  0  0  0  0  0  0  0  0  0  0
   17.9665   19.9882   22.9522 H   0  0  0  0  0  0  0  0  0  0  0  0
   18.4651   18.4570   22.2338 H   0  0  0  0  0  0  0  0  0  0  0  0
   17.7509   19.9195   20.7923 C   0  0  0  0  0  0  0  0  0  0  0  0
   16.6913   19.6544   20.8882 H   0  0  0  0  0  0  0  0  0  0  0  0
   17.7933   21.0028   20.6267 H   0  0  0  0  0  0  0  0  0  0  0  0
   18.2872   19.2156   19.5490 C   0  0  0  0  0  0  0  0  0  0  0  0
   17.9777   18.0539   19.3707 O   0  5  0  0  0  0  0  0  0  0  0  0
   18.9833   19.8519   18.7823 O   0  0  0  0  0  0  0  0  0  0  0  0
  1  2  1  0  0  0  0
  1  3  1  0  0  0  0
  1  4  2  0  0  0  0
  4  5  1  0  0  0  0
  4  6  1  0  0  0  0
  6  7  1  0  0  0  0
  6  8  1  0  0  0  0
  6  9  1  0  0  0  0
  9 10  1  0  0  0  0
  9 11  1  0  0  0  0
  9 12  1  0  0  0  0
 12 13  1  0  0  0  0
 12 14  1  0  0  0  0
 12 15  1  0  0  0  0
 15 16  1  0  0  0  0
 15 17  1  0  0  0  0
 15 18  1  0  0  0  0
 18 19  1  0  0  0  0
 18 20  2  0  0  0  0
M  END
> <VConfSearch Rank>
678

> <Conf_Id>
87

> <Delta U+W>
0.339

> <U+W>
-51.407

> <U>
10.461

> <W>
-61.867

> <W(PB)>
-64.045

> <W(SA)>
2.178

> <Valence>
9.555

> <Coulomb>
0.483

> <VdW>
0.423

> <VdW6>
-7.223

> <VdW12>
7.646

> <Bond>
0.126

> <Angle>
2.492

> <Pdih>
6.936

> <Idih>
0.001

> <Tether>
0.000

$$$$
VeraChem MOL file


 20 19  0  0  0  0  0  0  0  0999 V2000     
   17.9305   19.0458   24.2557 C   0  0  0  0  0  0  0  0  0  0  0  0
   17.8715   20.1135   24.4604 H   0  0  0  0  0  0  0  0  0  0  0  0
   17.0426   18.4471   24.4513 H   0  0  0  0  0  0  0  0  0  0  0  0
   19.0479   18.4898   23.7803 C   0  0  0  0  0  0  0  0  0  0  0  0
   19.0903   17.4180   23.5902 H   0  0  0  0  0  0  0  0  0  0  0  0
   20.3211   19.2584   23.4979 C   0  0  0  0  0  0  0  0  0  0  0  0
   21.1780   18.5729   23.4558 H   0  0  0  0  0  0  0  0  0  0  0  0
   20.5177   19.9291   24.3452 H   0  0  0  0  0  0  0  0  0  0  0  0
   20.2578   20.1080   22.2042 C   0  0  0  0  0  0  0  0  0  0  0  0
   19.3060   20.6549   22.1601 H   0  0  0  0  0  0  0  0  0  0  0  0
   21.0426   20.8741   22.2655 H   0  0  0  0  0  0  0  0  0  0  0  0
   20.4772   19.3147   20.8913 C   0  0  0  0  0  0  0  0  0  0  0  0
   21.4230   18.7582   20.9447 H   0  0  0  0  0  0  0  0  0  0  0  0
   20.5904   20.0346   20.0689 H   0  0  0  0  0  0  0  0  0  0  0  0
   19.3234   18.3431   20.5336 C   0  0  0  0  0  0  0  0  0  0  0  0
   19.2746   17.5214   21.2551 H   0  0  0  0  0  0  0  0  0  0  0  0
   18.3610   18.8673   20.5685 H   0  0  0  0  0  0  0  0  0  0  0  0
   19.4787   17.7278   19.1476 C   0  0  0  0  0  0  0  0  0  0  0  0
   20.1154   16.6979   19.0446 O   0  5  0  0  0  0  0  0  0  0  0  0
   18.9766   18.3057   18.2038 O   0  0  0  0  0  0  0  0  0  0  0  0
  1  2  1  0  0  0  0
  1  3  1  0  0  0  0
  1  4  2  0  0  0  0
  4  5  1  0  0  0  0
  4  6  1  0  0  0  0
  6  7  1  0  0  0  0
  6  8  1  0  0  0  0
  6  9  1  0  0  0  0
  9 10  1  0  0  0  0
  9 11  1  0  0  0  0
  9 12  1  0  0  0  0
 12 13  1  0  0  0  0
 12 14  1  0  0  0  0
 12 15  1  0  0  0  0
 15 16  1  0  0  0  0
 15 17  1  0  0  0  0
 15 18  1  0  0  0  0
 18 19  1  0  0  0  0
 18 20  2  0  0  0  0
M  END
> <VConfSearch Rank>
679

> <Conf_Id>
51

> <Delta U+W>
1.709

> <U+W>
-50.036

> <U>
10.643

> <W>
-60.679

> <W(PB)>
-62.882

> <W(SA)>
2.203

> <Valence>
11.231

> <Coulomb>
-1.077

> <VdW>
0.489

> <VdW6>
-7.546

> <VdW12>
8.035

> <Bond>
0.159

> <Angle>
3.005

> <Pdih>
8.065

> <Idih>
0.002

> <Tether>
0.000

$$$$
VeraChem MOL file


 20 19  0  0  0  0  0  0  0  0999 V2000     
   20.0266   16.5421   23.0786 C   0  0  0  0  0  0  0  0  0  0  0  0
   19.0203   16.2259   23.3482 H   0  0  0  0  0  0  0  0  0  0  0  0
   20.8402   16.2440   23.7375 H   0  0  0  0  0  0  0  0  0  0  0  0
   20.2563   17.2705   21.9829 C   0  0  0  0  0  0  0  0  0  0  0  0
   21.2715   17.5697   21.7250 H   0  0  0  0  0  0  0  0  0  0  0  0
   19.1763   17.7089   21.0169 C   0  0  0  0  0  0  0  0  0  0  0  0
   18.5204   16.8512   20.8160 H   0  0  0  0  0  0  0  0  0  0  0  0
   19.6187   17.9787   20.0487 H   0  0  0  0  0  0  0  0  0  0  0  0
   18.3081   18.8770   21.5470 C   0  0  0  0  0  0  0  0  0  0  0  0
   17.3719   18.8886   20.9724 H   0  0  0  0  0  0  0  0  0  0  0  0
   18.0190   18.6872   22.5897 H   0  0  0  0  0  0  0  0  0  0  0  0
   18.9541   20.2798   21.4207 C   0  0  0  0  0  0  0  0  0  0  0  0
   18.1894   21.0334   21.6549 H   0  0  0  0  0  0  0  0  0  0  0  0
   19.2547   20.4603   20.3795 H   0  0  0  0  0  0  0  0  0  0  0  0
   20.1676   20.5089   22.3579 C   0  0  0  0  0  0  0  0  0  0  0  0
   19.9069   20.2420   23.3889 H   0  0  0  0  0  0  0  0  0  0  0  0
   21.0094   19.8762   22.0592 H   0  0  0  0  0  0  0  0  0  0  0  0
   20.6542   21.9535   22.3503 C   0  0  0  0  0  0  0  0  0  0  0  0
   21.4831   22.2759   21.5221 O   0  5  0  0  0  0  0  0  0  0  0  0
   20.1766   22.7241   23.1596 O   0  0  0  0  0  0  0  0  0  0  0  0
  1  2  1  0  0  0  0
  1  3  1  0  0  0  0
  1  4  2  0  0  0  0
  4  5  1  0  0  0  0
  4  6  1  0  0  0  0
  6  7  1  0  0  0  0
  6  8  1  0  0  0  0
  6  9  1  0  0  0  0
  9 10  1  0  0  0  0
  9 11  1  0  0  0  0
  9 12  1  0  0  0  0
 12 13  1  0  0  0  0
 12 14  1  0  0  0  0
 12 15  1  0  0  0  0
 15 16  1  0  0  0  0
 15 17  1  0  0  0  0
 15 18  1  0  0  0  0
 18 19  1  0  0  0  0
 18 20  2  0  0  0  0
M  END
> <VConfSearch Rank>
680

> <Conf_Id>
91

> <Delta U+W>
1.604

> <U+W>
-50.141

> <U>
10.644

> <W>
-60.786

> <W(PB)>
-62.965

> <W(SA)>
2.179

> <Valence>
11.230

> <Coulomb>
-1.075

> <VdW>
0.489

> <VdW6>
-7.547

> <VdW12>
8.036

> <Bond>
0.159

> <Angle>
3.006

> <Pdih>
8.064

> <Idih>
0.002

> <Tether>
0.000

$$$$
VeraChem MOL file


 20 19  0  0  0  0  0  0  0  0999 V2000     
   20.9475   18.6664   18.3895 C   0  0  0  0  0  0  0  0  0  0  0  0
   21.9119   18.3369   18.7729 H   0  0  0  0  0  0  0  0  0  0  0  0
   20.9159   19.0400   17.3674 H   0  0  0  0  0  0  0  0  0  0  0  0
   19.8446   18.6182   19.1411 C   0  0  0  0  0  0  0  0  0  0  0  0
   18.8891   18.9537   18.7384 H   0  0  0  0  0  0  0  0  0  0  0  0
   19.8111   18.1119   20.5659 C   0  0  0  0  0  0  0  0  0  0  0  0
   20.7342   17.5625   20.7961 H   0  0  0  0  0  0  0  0  0  0  0  0
   18.9825   17.4009   20.6839 H   0  0  0  0  0  0  0  0  0  0  0  0
   19.6421   19.2744   21.5664 C   0  0  0  0  0  0  0  0  0  0  0  0
   20.4710   19.9847   21.4414 H   0  0  0  0  0  0  0  0  0  0  0  0
   18.7165   19.8208   21.3387 H   0  0  0  0  0  0  0  0  0  0  0  0
   19.6030   18.7744   23.0271 C   0  0  0  0  0  0  0  0  0  0  0  0
   20.5287   18.2282   23.2558 H   0  0  0  0  0  0  0  0  0  0  0  0
   18.7749   18.0630   23.1525 H   0  0  0  0  0  0  0  0  0  0  0  0
   19.4337   19.9439   24.0331 C   0  0  0  0  0  0  0  0  0  0  0  0
   20.2604   20.6547   23.9178 H   0  0  0  0  0  0  0  0  0  0  0  0
   18.5083   20.4898   23.8147 H   0  0  0  0  0  0  0  0  0  0  0  0
   19.3855   19.5355   25.5063 C   0  0  0  0  0  0  0  0  0  0  0  0
   19.2523   20.4243   26.3239 O   0  5  0  0  0  0  0  0  0  0  0  0
   19.4795   18.3618   25.8099 O   0  0  0  0  0  0  0  0  0  0  0  0
  1  2  1  0  0  0  0
  1  3  1  0  0  0  0
  1  4  2  0  0  0  0
  4  5  1  0  0  0  0
  4  6  1  0  0  0  0
  6  7  1  0  0  0  0
  6  8  1  0  0  0  0
  6  9  1  0  0  0  0
  9 10  1  0  0  0  0
  9 11  1  0  0  0  0
  9 12  1  0  0  0  0
 12 13  1  0  0  0  0
 12 14  1  0  0  0  0
 12 15  1  0  0  0  0
 15 16  1  0  0  0  0
 15 17  1  0  0  0  0
 15 18  1  0  0  0  0
 18 19  1  0  0  0  0
 18 20  2  0  0  0  0
M  END
> <VConfSearch Rank>
681

> <Conf_Id>
33

> <Delta U+W>
0.000

> <U+W>
-51.745

> <U>
7.593

> <W>
-59.338

> <W(PB)>
-61.574

> <W(SA)>
2.236

> <Valence>
9.570

> <Coulomb>
-3.091

> <VdW>
1.114

> <VdW6>
-6.064

> <VdW12>
7.178

> <Bond>
0.117

> <Angle>
2.692

> <Pdih>
6.761

> <Idih>
0.000

> <Tether>
0.000

$$$$
VeraChem MOL file


 20 19  0  0  0  0  0  0  0  0999 V2000     
   18.7428   17.5340   25.0522 C   0  0  0  0  0  0  0  0  0  0  0  0
   19.6224   17.9747   25.5187 H   0  0  0  0  0  0  0  0  0  0  0  0
   18.1789   16.8064   25.6335 H   0  0  0  0  0  0  0  0  0  0  0  0
   18.3683   17.8681   23.8145 C   0  0  0  0  0  0  0  0  0  0  0  0
   17.4850   17.4145   23.3655 H   0  0  0  0  0  0  0  0  0  0  0  0
   19.0998   18.8694   22.9485 C   0  0  0  0  0  0  0  0  0  0  0  0
   19.8032   19.4546   23.5562 H   0  0  0  0  0  0  0  0  0  0  0  0
   18.3757   19.5792   22.5291 H   0  0  0  0  0  0  0  0  0  0  0  0
   19.8688   18.1613   21.8105 C   0  0  0  0  0  0  0  0  0  0  0  0
   20.5249   17.3970   22.2495 H   0  0  0  0  0  0  0  0  0  0  0  0
   19.1606   17.6268   21.1626 H   0  0  0  0  0  0  0  0  0  0  0  0
   20.7318   19.1217   20.9578 C   0  0  0  0  0  0  0  0  0  0  0  0
   21.3273   18.5269   20.2515 H   0  0  0  0  0  0  0  0  0  0  0  0
   21.4497   19.6473   21.6026 H   0  0  0  0  0  0  0  0  0  0  0  0
   19.8991   20.1573   20.1583 C   0  0  0  0  0  0  0  0  0  0  0  0
   19.1495   19.6461   19.5425 H   0  0  0  0  0  0  0  0  0  0  0  0
   19.3605   20.8277   20.8375 H   0  0  0  0  0  0  0  0  0  0  0  0
   20.7570   21.0199   19.2397 C   0  0  0  0  0  0  0  0  0  0  0  0
   21.2236   22.0482   19.6888 O   0  5  0  0  0  0  0  0  0  0  0  0
   20.9525   20.6310   18.1052 O   0  0  0  0  0  0  0  0  0  0  0  0
  1  2  1  0  0  0  0
  1  3  1  0  0  0  0
  1  4  2  0  0  0  0
  4  5  1  0  0  0  0
  4  6  1  0  0  0  0
  6  7  1  0  0  0  0
  6  8  1  0  0  0  0
  6  9  1  0  0  0  0
  9 10  1  0  0  0  0
  9 11  1  0  0  0  0
  9 12  1  0  0  0  0
 12 13  1  0  0  0  0
 12 14  1  0  0  0  0
 12 15  1  0  0  0  0
 15 16  1  0  0  0  0
 15 17  1  0  0  0  0
 15 18  1  0  0  0  0
 18 19  1  0  0  0  0
 18 20  2  0  0  0  0
M  END
> <VConfSearch Rank>
682

> <Conf_Id>
37

> <Delta U+W>
-0.384

> <U+W>
-52.130

> <U>
7.491

> <W>
-59.621

> <W(PB)>
-61.853

> <W(SA)>
2.232

> <Valence>
9.604

> <Coulomb>
-2.799

> <VdW>
0.686

> <VdW6>
-6.435

> <VdW12>
7.121

> <Bond>
0.124

> <Angle>
2.493

> <Pdih>
6.986

> <Idih>
0.001

> <Tether>
0.000

$$$$
VeraChem MOL file


 20 19  0  0  0  0  0  0  0  0999 V2000     
   20.7595   21.9850   20.6997 C   0  0  0  0  0  0  0  0  0  0  0  0
   21.0579   22.9553   20.3063 H   0  0  0  0  0  0  0  0  0  0  0  0
   21.5576   21.3193   21.0213 H   0  0  0  0  0  0  0  0  0  0  0  0
   19.4674   21.6465   20.7755 C   0  0  0  0  0  0  0  0  0  0  0  0
   18.7129   22.3565   20.4374 H   0  0  0  0  0  0  0  0  0  0  0  0
   18.9004   20.3370   21.2978 C   0  0  0  0  0  0  0  0  0  0  0  0
   18.2894   19.8776   20.5093 H   0  0  0  0  0  0  0  0  0  0  0  0
   18.2063   20.5562   22.1202 H   0  0  0  0  0  0  0  0  0  0  0  0
   19.9547   19.3147   21.7829 C   0  0  0  0  0  0  0  0  0  0  0  0
   20.6401   19.0752   20.9583 H   0  0  0  0  0  0  0  0  0  0  0  0
   20.5560   19.7611   22.5867 H   0  0  0  0  0  0  0  0  0  0  0  0
   19.2975   18.0149   22.2965 C   0  0  0  0  0  0  0  0  0  0  0  0
   18.6942   17.5633   21.4967 H   0  0  0  0  0  0  0  0  0  0  0  0
   18.6103   18.2479   23.1217 H   0  0  0  0  0  0  0  0  0  0  0  0
   20.3512   16.9896   22.7828 C   0  0  0  0  0  0  0  0  0  0  0  0
   21.0378   16.7358   21.9662 H   0  0  0  0  0  0  0  0  0  0  0  0
   20.9539   17.4204   23.5913 H   0  0  0  0  0  0  0  0  0  0  0  0
   19.7265   15.6968   23.2952 C   0  0  0  0  0  0  0  0  0  0  0  0
   19.5330   14.7987   22.4998 O   0  5  0  0  0  0  0  0  0  0  0  0
   19.4317   15.6294   24.4721 O   0  0  0  0  0  0  0  0  0  0  0  0
  1  2  1  0  0  0  0
  1  3  1  0  0  0  0
  1  4  2  0  0  0  0
  4  5  1  0  0  0  0
  4  6  1  0  0  0  0
  6  7  1  0  0  0  0
  6  8  1  0  0  0  0
  6  9  1  0  0  0  0
  9 10  1  0  0  0  0
  9 11  1  0  0  0  0
  9 12  1  0  0  0  0
 12 13  1  0  0  0  0
 12 14  1  0  0  0  0
 12 15  1  0  0  0  0
 15 16  1  0  0  0  0
 15 17  1  0  0  0  0
 15 18  1  0  0  0  0
 18 19  1  0  0  0  0
 18 20  2  0  0  0  0
M  END
> <VConfSearch Rank>
683

> <Conf_Id>
44

> <Delta U+W>
-1.440

> <U+W>
-53.185

> <U>
6.572

> <W>
-59.757

> <W(PB)>
-62.007

> <W(SA)>
2.249

> <Valence>
7.989

> <Coulomb>
-2.697

> <VdW>
1.281

> <VdW6>
-6.467

> <VdW12>
7.748

> <Bond>
0.136

> <Angle>
2.854

> <Pdih>
4.997

> <Idih>
0.001

> <Tether>
0.000

$$$$
VeraChem MOL file


 20 19  0  0  0  0  0  0  0  0999 V2000     
   18.7765   18.0328   25.0704 C   0  0  0  0  0  0  0  0  0  0  0  0
   17.8057   18.2879   24.6483 H   0  0  0  0  0  0  0  0  0  0  0  0
   18.8299   17.8791   26.1469 H   0  0  0  0  0  0  0  0  0  0  0  0
   19.8622   17.9146   24.3017 C   0  0  0  0  0  0  0  0  0  0  0  0
   20.8247   17.6590   24.7443 H   0  0  0  0  0  0  0  0  0  0  0  0
   19.8648   18.1117   22.8020 C   0  0  0  0  0  0  0  0  0  0  0  0
   18.8353   18.0926   22.4218 H   0  0  0  0  0  0  0  0  0  0  0  0
   20.3953   17.2777   22.3235 H   0  0  0  0  0  0  0  0  0  0  0  0
   20.5436   19.4459   22.4186 C   0  0  0  0  0  0  0  0  0  0  0  0
   19.9801   20.2831   22.8529 H   0  0  0  0  0  0  0  0  0  0  0  0
   21.5444   19.4784   22.8708 H   0  0  0  0  0  0  0  0  0  0  0  0
   20.6861   19.6500   20.8914 C   0  0  0  0  0  0  0  0  0  0  0  0
   21.2579   18.8183   20.4571 H   0  0  0  0  0  0  0  0  0  0  0  0
   21.2763   20.5593   20.7114 H   0  0  0  0  0  0  0  0  0  0  0  0
   19.3277   19.7849   20.1554 C   0  0  0  0  0  0  0  0  0  0  0  0
   18.7494   18.8578   20.2378 H   0  0  0  0  0  0  0  0  0  0  0  0
   18.7291   20.5838   20.6090 H   0  0  0  0  0  0  0  0  0  0  0  0
   19.4899   20.0993   18.6726 C   0  0  0  0  0  0  0  0  0  0  0  0
   19.5364   21.2658   18.3353 O   0  5  0  0  0  0  0  0  0  0  0  0
   19.5855   19.1695   17.8960 O   0  0  0  0  0  0  0  0  0  0  0  0
  1  2  1  0  0  0  0
  1  3  1  0  0  0  0
  1  4  2  0  0  0  0
  4  5  1  0  0  0  0
  4  6  1  0  0  0  0
  6  7  1  0  0  0  0
  6  8  1  0  0  0  0
  6  9  1  0  0  0  0
  9 10  1  0  0  0  0
  9 11  1  0  0  0  0
  9 12  1  0  0  0  0
 12 13  1  0  0  0  0
 12 14  1  0  0  0  0
 12 15  1  0  0  0  0
 15 16  1  0  0  0  0
 15 17  1  0  0  0  0
 15 18  1  0  0  0  0
 18 19  1  0  0  0  0
 18 20  2  0  0  0  0
M  END
> <VConfSearch Rank>
684

> <Conf_Id>
38

> <Delta U+W>
-0.381

> <U+W>
-52.126

> <U>
7.601

> <W>
-59.727

> <W(PB)>
-61.964

> <W(SA)>
2.236

> <Valence>
9.602

> <Coulomb>
-2.686

> <VdW>
0.685

> <VdW6>
-6.453

> <VdW12>
7.139

> <Bond>
0.125

> <Angle>
2.485

> <Pdih>
6.991

> <Idih>
0.001

> <Tether>
0.000

$$$$
VeraChem MOL file


 20 19  0  0  0  0  0  0  0  0999 V2000     
   21.6530   19.4533   25.0212 C   0  0  0  0  0  0  0  0  0  0  0  0
   20.9604   18.8298   25.5845 H   0  0  0  0  0  0  0  0  0  0  0  0
   22.6726   19.5326   25.3944 H   0  0  0  0  0  0  0  0  0  0  0  0
   21.2714   20.0955   23.9141 C   0  0  0  0  0  0  0  0  0  0  0  0
   21.9807   20.7139   23.3644 H   0  0  0  0  0  0  0  0  0  0  0  0
   19.8748   20.0337   23.3369 C   0  0  0  0  0  0  0  0  0  0  0  0
   19.5239   21.0504   23.1145 H   0  0  0  0  0  0  0  0  0  0  0  0
   19.1772   19.6124   24.0735 H   0  0  0  0  0  0  0  0  0  0  0  0
   19.8408   19.1822   22.0505 C   0  0  0  0  0  0  0  0  0  0  0  0
   20.5376   19.6070   21.3146 H   0  0  0  0  0  0  0  0  0  0  0  0
   20.1970   18.1675   22.2759 H   0  0  0  0  0  0  0  0  0  0  0  0
   18.4204   19.1112   21.4456 C   0  0  0  0  0  0  0  0  0  0  0  0
   18.0653   20.1239   21.2092 H   0  0  0  0  0  0  0  0  0  0  0  0
   17.7286   18.7001   22.1933 H   0  0  0  0  0  0  0  0  0  0  0  0
   18.3596   18.2343   20.1680 C   0  0  0  0  0  0  0  0  0  0  0  0
   18.7375   17.2271   20.3813 H   0  0  0  0  0  0  0  0  0  0  0  0
   17.3164   18.1213   19.8503 H   0  0  0  0  0  0  0  0  0  0  0  0
   19.1371   18.8061   18.9859 C   0  0  0  0  0  0  0  0  0  0  0  0
   20.2010   18.2957   18.6952 O   0  5  0  0  0  0  0  0  0  0  0  0
   18.6515   19.7411   18.3800 O   0  0  0  0  0  0  0  0  0  0  0  0
  1  2  1  0  0  0  0
  1  3  1  0  0  0  0
  1  4  2  0  0  0  0
  4  5  1  0  0  0  0
  4  6  1  0  0  0  0
  6  7  1  0  0  0  0
  6  8  1  0  0  0  0
  6  9  1  0  0  0  0
  9 10  1  0  0  0  0
  9 11  1  0  0  0  0
  9 12  1  0  0  0  0
 12 13  1  0  0  0  0
 12 14  1  0  0  0  0
 12 15  1  0  0  0  0
 15 16  1  0  0  0  0
 15 17  1  0  0  0  0
 15 18  1  0  0  0  0
 18 19  1  0  0  0  0
 18 20  2  0  0  0  0
M  END
> <VConfSearch Rank>
685

> <Conf_Id>
58

> <Delta U+W>
0.019

> <U+W>
-51.727

> <U>
8.963

> <W>
-60.690

> <W(PB)>
-62.934

> <W(SA)>
2.244

> <Valence>
9.327

> <Coulomb>
-0.780

> <VdW>
0.417

> <VdW6>
-6.635

> <VdW12>
7.052

> <Bond>
0.105

> <Angle>
2.399

> <Pdih>
6.822

> <Idih>
0.000

> <Tether>
0.000

$$$$
VeraChem MOL file


 20 19  0  0  0  0  0  0  0  0999 V2000     
   16.4808   17.8104   22.0734 C   0  0  0  0  0  0  0  0  0  0  0  0
   16.0080   18.7474   21.7831 H   0  0  0  0  0  0  0  0  0  0  0  0
   15.8583   17.0681   22.5701 H   0  0  0  0  0  0  0  0  0  0  0  0
   17.7739   17.5778   21.8337 C   0  0  0  0  0  0  0  0  0  0  0  0
   18.2280   16.6336   22.1333 H   0  0  0  0  0  0  0  0  0  0  0  0
   18.6991   18.5591   21.1491 C   0  0  0  0  0  0  0  0  0  0  0  0
   18.1176   19.3533   20.6615 H   0  0  0  0  0  0  0  0  0  0  0  0
   19.2586   18.0447   20.3563 H   0  0  0  0  0  0  0  0  0  0  0  0
   19.6868   19.1878   22.1541 C   0  0  0  0  0  0  0  0  0  0  0  0
   19.1236   19.6973   22.9481 H   0  0  0  0  0  0  0  0  0  0  0  0
   20.2688   18.3916   22.6387 H   0  0  0  0  0  0  0  0  0  0  0  0
   20.6422   20.1914   21.4698 C   0  0  0  0  0  0  0  0  0  0  0  0
   20.0514   20.9744   20.9753 H   0  0  0  0  0  0  0  0  0  0  0  0
   21.2150   19.6824   20.6821 H   0  0  0  0  0  0  0  0  0  0  0  0
   21.6233   20.8572   22.4693 C   0  0  0  0  0  0  0  0  0  0  0  0
   22.1931   21.6411   21.9566 H   0  0  0  0  0  0  0  0  0  0  0  0
   21.0666   21.3464   23.2778 H   0  0  0  0  0  0  0  0  0  0  0  0
   22.6303   19.8909   23.0866 C   0  0  0  0  0  0  0  0  0  0  0  0
   23.5632   19.5213   22.4008 O   0  5  0  0  0  0  0  0  0  0  0  0
   22.4623   19.5420   24.2385 O   0  0  0  0  0  0  0  0  0  0  0  0
  1  2  1  0  0  0  0
  1  3  1  0  0  0  0
  1  4  2  0  0  0  0
  4  5  1  0  0  0  0
  4  6  1  0  0  0  0
  6  7  1  0  0  0  0
  6  8  1  0  0  0  0
  6  9  1  0  0  0  0
  9 10  1  0  0  0  0
  9 11  1  0  0  0  0
  9 12  1  0  0  0  0
 12 13  1  0  0  0  0
 12 14  1  0  0  0  0
 12 15  1  0  0  0  0
 15 16  1  0  0  0  0
 15 17  1  0  0  0  0
 15 18  1  0  0  0  0
 18 19  1  0  0  0  0
 18 20  2  0  0  0  0
M  END
> <VConfSearch Rank>
686

> <Conf_Id>
54

> <Delta U+W>
-0.048

> <U+W>
-51.793

> <U>
8.964

> <W>
-60.756

> <W(PB)>
-63.007

> <W(SA)>
2.251

> <Valence>
9.327

> <Coulomb>
-0.780

> <VdW>
0.417

> <VdW6>
-6.635

> <VdW12>
7.052

> <Bond>
0.105

> <Angle>
2.399

> <Pdih>
6.822

> <Idih>
0.000

> <Tether>
0.000

$$$$
VeraChem MOL file


 20 19  0  0  0  0  0  0  0  0999 V2000     
   18.9043   22.1881   23.0217 C   0  0  0  0  0  0  0  0  0  0  0  0
   18.1949   22.5596   23.7592 H   0  0  0  0  0  0  0  0  0  0  0  0
   19.8487   22.7208   22.9219 H   0  0  0  0  0  0  0  0  0  0  0  0
   18.6246   21.1185   22.2726 C   0  0  0  0  0  0  0  0  0  0  0  0
   17.6719   20.6021   22.3861 H   0  0  0  0  0  0  0  0  0  0  0  0
   19.5576   20.5505   21.2244 C   0  0  0  0  0  0  0  0  0  0  0  0
   20.2909   21.3133   20.9296 H   0  0  0  0  0  0  0  0  0  0  0  0
   18.9929   20.3003   20.3164 H   0  0  0  0  0  0  0  0  0  0  0  0
   20.3175   19.3019   21.7264 C   0  0  0  0  0  0  0  0  0  0  0  0
   21.0716   19.0249   20.9770 H   0  0  0  0  0  0  0  0  0  0  0  0
   20.8664   19.5528   22.6444 H   0  0  0  0  0  0  0  0  0  0  0  0
   19.3856   18.0944   21.9863 C   0  0  0  0  0  0  0  0  0  0  0  0
   18.8257   17.8524   21.0723 H   0  0  0  0  0  0  0  0  0  0  0  0
   18.6438   18.3616   22.7504 H   0  0  0  0  0  0  0  0  0  0  0  0
   20.1587   16.8373   22.4631 C   0  0  0  0  0  0  0  0  0  0  0  0
   20.7497   17.0725   23.3565 H   0  0  0  0  0  0  0  0  0  0  0  0
   19.4454   16.0560   22.7508 H   0  0  0  0  0  0  0  0  0  0  0  0
   21.0862   16.2414   21.4078 C   0  0  0  0  0  0  0  0  0  0  0  0
   22.2822   16.4245   21.5227 O   0  5  0  0  0  0  0  0  0  0  0  0
   20.5876   15.6001   20.5039 O   0  0  0  0  0  0  0  0  0  0  0  0
  1  2  1  0  0  0  0
  1  3  1  0  0  0  0
  1  4  2  0  0  0  0
  4  5  1  0  0  0  0
  4  6  1  0  0  0  0
  6  7  1  0  0  0  0
  6  8  1  0  0  0  0
  6  9  1  0  0  0  0
  9 10  1  0  0  0  0
  9 11  1  0  0  0  0
  9 12  1  0  0  0  0
 12 13  1  0  0  0  0
 12 14  1  0  0  0  0
 12 15  1  0  0  0  0
 15 16  1  0  0  0  0
 15 17  1  0  0  0  0
 15 18  1  0  0  0  0
 18 19  1  0  0  0  0
 18 20  2  0  0  0  0
M  END
> <VConfSearch Rank>
687

> <Conf_Id>
27

> <Delta U+W>
0.478

> <U+W>
-51.267

> <U>
9.192

> <W>
-60.459

> <W(PB)>
-62.649

> <W(SA)>
2.190

> <Valence>
9.572

> <Coulomb>
-0.884

> <VdW>
0.504

> <VdW6>
-7.168

> <VdW12>
7.672

> <Bond>
0.127

> <Angle>
2.504

> <Pdih>
6.941

> <Idih>
0.001

> <Tether>
0.000

$$$$
VeraChem MOL file


 20 19  0  0  0  0  0  0  0  0999 V2000     
   22.4234   17.2853   23.1076 C   0  0  0  0  0  0  0  0  0  0  0  0
   22.5134   16.3410   22.5731 H   0  0  0  0  0  0  0  0  0  0  0  0
   22.8244   17.3289   24.1188 H   0  0  0  0  0  0  0  0  0  0  0  0
   21.8416   18.3499   22.5493 C   0  0  0  0  0  0  0  0  0  0  0  0
   21.7648   19.2865   23.1009 H   0  0  0  0  0  0  0  0  0  0  0  0
   21.2683   18.3651   21.1483 C   0  0  0  0  0  0  0  0  0  0  0  0
   21.6959   17.5389   20.5643 H   0  0  0  0  0  0  0  0  0  0  0  0
   21.5624   19.2896   20.6336 H   0  0  0  0  0  0  0  0  0  0  0  0
   19.7287   18.2314   21.1413 C   0  0  0  0  0  0  0  0  0  0  0  0
   19.3886   18.1157   20.1031 H   0  0  0  0  0  0  0  0  0  0  0  0
   19.4400   17.3131   21.6711 H   0  0  0  0  0  0  0  0  0  0  0  0
   19.0168   19.4482   21.7758 C   0  0  0  0  0  0  0  0  0  0  0  0
   19.3266   20.3685   21.2616 H   0  0  0  0  0  0  0  0  0  0  0  0
   19.3179   19.5528   22.8270 H   0  0  0  0  0  0  0  0  0  0  0  0
   17.4757   19.3155   21.7026 C   0  0  0  0  0  0  0  0  0  0  0  0
   17.1519   19.2264   20.6587 H   0  0  0  0  0  0  0  0  0  0  0  0
   17.1491   18.4068   22.2223 H   0  0  0  0  0  0  0  0  0  0  0  0
   16.7494   20.5034   22.3235 C   0  0  0  0  0  0  0  0  0  0  0  0
   16.4741   20.4534   23.5060 O   0  5  0  0  0  0  0  0  0  0  0  0
   16.4938   21.4549   21.6121 O   0  0  0  0  0  0  0  0  0  0  0  0
  1  2  1  0  0  0  0
  1  3  1  0  0  0  0
  1  4  2  0  0  0  0
  4  5  1  0  0  0  0
  4  6  1  0  0  0  0
  6  7  1  0  0  0  0
  6  8  1  0  0  0  0
  6  9  1  0  0  0  0
  9 10  1  0  0  0  0
  9 11  1  0  0  0  0
  9 12  1  0  0  0  0
 12 13  1  0  0  0  0
 12 14  1  0  0  0  0
 12 15  1  0  0  0  0
 15 16  1  0  0  0  0
 15 17  1  0  0  0  0
 15 18  1  0  0  0  0
 18 19  1  0  0  0  0
 18 20  2  0  0  0  0
M  END
> <VConfSearch Rank>
688

> <Conf_Id>
41

> <Delta U+W>
-0.634

> <U+W>
-52.379

> <U>
7.828

> <W>
-60.207

> <W(PB)>
-62.449

> <W(SA)>
2.242

> <Valence>
9.300

> <Coulomb>
-2.080

> <VdW>
0.608

> <VdW6>
-6.341

> <VdW12>
6.949

> <Bond>
0.103

> <Angle>
2.334

> <Pdih>
6.862

> <Idih>
0.001

> <Tether>
0.000

$$$$
VeraChem MOL file


 20 19  0  0  0  0  0  0  0  0999 V2000     
   20.0647   16.5320   19.5762 C   0  0  0  0  0  0  0  0  0  0  0  0
   19.9696   15.4834   19.2994 H   0  0  0  0  0  0  0  0  0  0  0  0
   19.9699   17.2705   18.7817 H   0  0  0  0  0  0  0  0  0  0  0  0
   20.2866   16.8941   20.8424 C   0  0  0  0  0  0  0  0  0  0  0  0
   20.3777   16.1393   21.6232 H   0  0  0  0  0  0  0  0  0  0  0  0
   20.4308   18.3279   21.3016 C   0  0  0  0  0  0  0  0  0  0  0  0
   20.5838   18.9901   20.4387 H   0  0  0  0  0  0  0  0  0  0  0  0
   21.3243   18.4149   21.9333 H   0  0  0  0  0  0  0  0  0  0  0  0
   19.1831   18.7863   22.0893 C   0  0  0  0  0  0  0  0  0  0  0  0
   18.2894   18.5983   21.4784 H   0  0  0  0  0  0  0  0  0  0  0  0
   19.0734   18.1718   22.9935 H   0  0  0  0  0  0  0  0  0  0  0  0
   19.2106   20.2862   22.4737 C   0  0  0  0  0  0  0  0  0  0  0  0
   18.2590   20.5443   22.9587 H   0  0  0  0  0  0  0  0  0  0  0  0
   19.2644   20.8929   21.5598 H   0  0  0  0  0  0  0  0  0  0  0  0
   20.3763   20.6856   23.4193 C   0  0  0  0  0  0  0  0  0  0  0  0
   21.3442   20.5107   22.9361 H   0  0  0  0  0  0  0  0  0  0  0  0
   20.3232   21.7608   23.6265 H   0  0  0  0  0  0  0  0  0  0  0  0
   20.3635   19.9634   24.7635 C   0  0  0  0  0  0  0  0  0  0  0  0
   19.5107   20.2739   25.5720 O   0  5  0  0  0  0  0  0  0  0  0  0
   21.2160   19.1232   24.9742 O   0  0  0  0  0  0  0  0  0  0  0  0
  1  2  1  0  0  0  0
  1  3  1  0  0  0  0
  1  4  2  0  0  0  0
  4  5  1  0  0  0  0
  4  6  1  0  0  0  0
  6  7  1  0  0  0  0
  6  8  1  0  0  0  0
  6  9  1  0  0  0  0
  9 10  1  0  0  0  0
  9 11  1  0  0  0  0
  9 12  1  0  0  0  0
 12 13  1  0  0  0  0
 12 14  1  0  0  0  0
 12 15  1  0  0  0  0
 15 16  1  0  0  0  0
 15 17  1  0  0  0  0
 15 18  1  0  0  0  0
 18 19  1  0  0  0  0
 18 20  2  0  0  0  0
M  END
> <VConfSearch Rank>
689

> <Conf_Id>
84

> <Delta U+W>
0.942

> <U+W>
-50.803

> <U>
10.196

> <W>
-60.999

> <W(PB)>
-63.182

> <W(SA)>
2.182

> <Valence>
9.837

> <Coulomb>
0.032

> <VdW>
0.328

> <VdW6>
-7.642

> <VdW12>
7.969

> <Bond>
0.151

> <Angle>
2.748

> <Pdih>
6.937

> <Idih>
0.001

> <Tether>
0.000

$$$$
VeraChem MOL file


 20 19  0  0  0  0  0  0  0  0999 V2000     
   16.4745   20.5585   22.6133 C   0  0  0  0  0  0  0  0  0  0  0  0
   15.5324   20.8545   22.1551 H   0  0  0  0  0  0  0  0  0  0  0  0
   16.4238   19.9611   23.5222 H   0  0  0  0  0  0  0  0  0  0  0  0
   17.6447   20.9145   22.0768 C   0  0  0  0  0  0  0  0  0  0  0  0
   17.6735   21.5121   21.1660 H   0  0  0  0  0  0  0  0  0  0  0  0
   18.9912   20.5420   22.6563 C   0  0  0  0  0  0  0  0  0  0  0  0
   18.8742   20.1749   23.6850 H   0  0  0  0  0  0  0  0  0  0  0  0
   19.6277   21.4354   22.7099 H   0  0  0  0  0  0  0  0  0  0  0  0
   19.6862   19.4615   21.8016 C   0  0  0  0  0  0  0  0  0  0  0  0
   19.0413   18.5733   21.7470 H   0  0  0  0  0  0  0  0  0  0  0  0
   19.8073   19.8295   20.7735 H   0  0  0  0  0  0  0  0  0  0  0  0
   21.0659   19.0719   22.3787 C   0  0  0  0  0  0  0  0  0  0  0  0
   20.9468   18.6900   23.4023 H   0  0  0  0  0  0  0  0  0  0  0  0
   21.6963   19.9689   22.4473 H   0  0  0  0  0  0  0  0  0  0  0  0
   21.7949   18.0095   21.5158 C   0  0  0  0  0  0  0  0  0  0  0  0
   21.8974   18.3651   20.4834 H   0  0  0  0  0  0  0  0  0  0  0  0
   22.8099   17.8577   21.9016 H   0  0  0  0  0  0  0  0  0  0  0  0
   21.1061   16.6478   21.4959 C   0  0  0  0  0  0  0  0  0  0  0  0
   20.4951   16.3261   20.4958 O   0  5  0  0  0  0  0  0  0  0  0  0
   21.2105   15.9392   22.4777 O   0  0  0  0  0  0  0  0  0  0  0  0
  1  2  1  0  0  0  0
  1  3  1  0  0  0  0
  1  4  2  0  0  0  0
  4  5  1  0  0  0  0
  4  6  1  0  0  0  0
  6  7  1  0  0  0  0
  6  8  1  0  0  0  0
  6  9  1  0  0  0  0
  9 10  1  0  0  0  0
  9 11  1  0  0  0  0
  9 12  1  0  0  0  0
 12 13  1  0  0  0  0
 12 14  1  0  0  0  0
 12 15  1  0  0  0  0
 15 16  1  0  0  0  0
 15 17  1  0  0  0  0
 15 18  1  0  0  0  0
 18 19  1  0  0  0  0
 18 20  2  0  0  0  0
M  END
> <VConfSearch Rank>
690

> <Conf_Id>
81

> <Delta U+W>
-0.051

> <U+W>
-51.796

> <U>
9.412

> <W>
-61.209

> <W(PB)>
-63.452

> <W(SA)>
2.243

> <Valence>
9.329

> <Coulomb>
-0.323

> <VdW>
0.406

> <VdW6>
-6.640

> <VdW12>
7.046

> <Bond>
0.105

> <Angle>
2.401

> <Pdih>
6.823

> <Idih>
0.000

> <Tether>
0.000

$$$$
VeraChem MOL file


 20 19  0  0  0  0  0  0  0  0999 V2000     
   22.2149   19.1517   24.0117 C   0  0  0  0  0  0  0  0  0  0  0  0
   23.0763   18.8128   23.4385 H   0  0  0  0  0  0  0  0  0  0  0  0
   22.4090   19.6622   24.9534 H   0  0  0  0  0  0  0  0  0  0  0  0
   20.9672   18.9536   23.5785 C   0  0  0  0  0  0  0  0  0  0  0  0
   20.1188   19.2987   24.1687 H   0  0  0  0  0  0  0  0  0  0  0  0
   20.6206   18.2485   22.2846 C   0  0  0  0  0  0  0  0  0  0  0  0
   19.8030   17.5353   22.4515 H   0  0  0  0  0  0  0  0  0  0  0  0
   21.4770   17.6483   21.9491 H   0  0  0  0  0  0  0  0  0  0  0  0
   20.2416   19.2369   21.1558 C   0  0  0  0  0  0  0  0  0  0  0  0
   21.1052   19.8831   20.9471 H   0  0  0  0  0  0  0  0  0  0  0  0
   20.0562   18.6697   20.2334 H   0  0  0  0  0  0  0  0  0  0  0  0
   19.0120   20.1303   21.4622 C   0  0  0  0  0  0  0  0  0  0  0  0
   18.8489   20.8077   20.6127 H   0  0  0  0  0  0  0  0  0  0  0  0
   19.2320   20.7732   22.3248 H   0  0  0  0  0  0  0  0  0  0  0  0
   17.6991   19.3460   21.7327 C   0  0  0  0  0  0  0  0  0  0  0  0
   17.8027   18.7146   22.6224 H   0  0  0  0  0  0  0  0  0  0  0  0
   16.8907   20.0545   21.9476 H   0  0  0  0  0  0  0  0  0  0  0  0
   17.2420   18.4754   20.5657 C   0  0  0  0  0  0  0  0  0  0  0  0
   17.3390   17.2688   20.6742 O   0  5  0  0  0  0  0  0  0  0  0  0
   16.7840   19.0278   19.5846 O   0  0  0  0  0  0  0  0  0  0  0  0
  1  2  1  0  0  0  0
  1  3  1  0  0  0  0
  1  4  2  0  0  0  0
  4  5  1  0  0  0  0
  4  6  1  0  0  0  0
  6  7  1  0  0  0  0
  6  8  1  0  0  0  0
  6  9  1  0  0  0  0
  9 10  1  0  0  0  0
  9 11  1  0  0  0  0
  9 12  1  0  0  0  0
 12 13  1  0  0  0  0
 12 14  1  0  0  0  0
 12 15  1  0  0  0  0
 15 16  1  0  0  0  0
 15 17  1  0  0  0  0
 15 18  1  0  0  0  0
 18 19  1  0  0  0  0
 18 20  2  0  0  0  0
M  END
> <VConfSearch Rank>
691

> <Conf_Id>
86

> <Delta U+W>
1.248

> <U+W>
-50.498

> <U>
10.404

> <W>
-60.901

> <W(PB)>
-63.061

> <W(SA)>
2.159

> <Valence>
10.021

> <Coulomb>
0.094

> <VdW>
0.289

> <VdW6>
-8.409

> <VdW12>
8.698

> <Bond>
0.179

> <Angle>
2.939

> <Pdih>
6.902

> <Idih>
0.001

> <Tether>
0.000

$$$$
VeraChem MOL file


 20 19  0  0  0  0  0  0  0  0999 V2000     
   21.2200   16.6493   23.4175 C   0  0  0  0  0  0  0  0  0  0  0  0
   21.5866   16.3816   24.4069 H   0  0  0  0  0  0  0  0  0  0  0  0
   20.4782   15.9943   22.9636 H   0  0  0  0  0  0  0  0  0  0  0  0
   21.6630   17.7418   22.7895 C   0  0  0  0  0  0  0  0  0  0  0  0
   22.4043   18.3855   23.2623 H   0  0  0  0  0  0  0  0  0  0  0  0
   21.2006   18.1781   21.4155 C   0  0  0  0  0  0  0  0  0  0  0  0
   20.6187   17.3816   20.9321 H   0  0  0  0  0  0  0  0  0  0  0  0
   22.0791   18.3493   20.7793 H   0  0  0  0  0  0  0  0  0  0  0  0
   20.3602   19.4740   21.4635 C   0  0  0  0  0  0  0  0  0  0  0  0
   20.9401   20.2700   21.9504 H   0  0  0  0  0  0  0  0  0  0  0  0
   20.1708   19.8096   20.4346 H   0  0  0  0  0  0  0  0  0  0  0  0
   19.0117   19.2841   22.1976 C   0  0  0  0  0  0  0  0  0  0  0  0
   19.1997   18.9552   23.2284 H   0  0  0  0  0  0  0  0  0  0  0  0
   18.4336   18.4853   21.7127 H   0  0  0  0  0  0  0  0  0  0  0  0
   18.1645   20.5825   22.2345 C   0  0  0  0  0  0  0  0  0  0  0  0
   17.2829   20.4266   22.8674 H   0  0  0  0  0  0  0  0  0  0  0  0
   18.7408   21.3979   22.6880 H   0  0  0  0  0  0  0  0  0  0  0  0
   17.6683   21.0390   20.8655 C   0  0  0  0  0  0  0  0  0  0  0  0
   16.7344   20.4422   20.3668 O   0  5  0  0  0  0  0  0  0  0  0  0
   18.2202   21.9852   20.3390 O   0  0  0  0  0  0  0  0  0  0  0  0
  1  2  1  0  0  0  0
  1  3  1  0  0  0  0
  1  4  2  0  0  0  0
  4  5  1  0  0  0  0
  4  6  1  0  0  0  0
  6  7  1  0  0  0  0
  6  8  1  0  0  0  0
  6  9  1  0  0  0  0
  9 10  1  0  0  0  0
  9 11  1  0  0  0  0
  9 12  1  0  0  0  0
 12 13  1  0  0  0  0
 12 14  1  0  0  0  0
 12 15  1  0  0  0  0
 15 16  1  0  0  0  0
 15 17  1  0  0  0  0
 15 18  1  0  0  0  0
 18 19  1  0  0  0  0
 18 20  2  0  0  0  0
M  END
> <VConfSearch Rank>
692

> <Conf_Id>
28

> <Delta U+W>
0.446

> <U+W>
-51.299

> <U>
9.295

> <W>
-60.594

> <W(PB)>
-62.806

> <W(SA)>
2.212

> <Valence>
9.495

> <Coulomb>
-0.610

> <VdW>
0.409

> <VdW6>
-7.332

> <VdW12>
7.741

> <Bond>
0.126

> <Angle>
2.497

> <Pdih>
6.872

> <Idih>
0.000

> <Tether>
0.000

$$$$
VeraChem MOL file


 20 19  0  0  0  0  0  0  0  0999 V2000     
   19.0996   22.0233   20.8686 C   0  0  0  0  0  0  0  0  0  0  0  0
   18.1880   21.6226   21.3067 H   0  0  0  0  0  0  0  0  0  0  0  0
   19.0585   23.0465   20.4992 H   0  0  0  0  0  0  0  0  0  0  0  0
   20.2284   21.3105   20.7823 C   0  0  0  0  0  0  0  0  0  0  0  0
   21.1107   21.7676   20.3350 H   0  0  0  0  0  0  0  0  0  0  0  0
   20.4381   19.8797   21.2496 C   0  0  0  0  0  0  0  0  0  0  0  0
   21.2117   19.8796   22.0281 H   0  0  0  0  0  0  0  0  0  0  0  0
   20.8510   19.2953   20.4167 H   0  0  0  0  0  0  0  0  0  0  0  0
   19.1660   19.1724   21.7789 C   0  0  0  0  0  0  0  0  0  0  0  0
   18.7940   19.6990   22.6685 H   0  0  0  0  0  0  0  0  0  0  0  0
   18.3758   19.2415   21.0190 H   0  0  0  0  0  0  0  0  0  0  0  0
   19.3855   17.6761   22.1137 C   0  0  0  0  0  0  0  0  0  0  0  0
   19.7091   17.1462   21.2077 H   0  0  0  0  0  0  0  0  0  0  0  0
   18.4214   17.2335   22.4004 H   0  0  0  0  0  0  0  0  0  0  0  0
   20.4108   17.4136   23.2506 C   0  0  0  0  0  0  0  0  0  0  0  0
   20.5079   16.3332   23.4087 H   0  0  0  0  0  0  0  0  0  0  0  0
   21.4054   17.7755   22.9667 H   0  0  0  0  0  0  0  0  0  0  0  0
   20.0285   18.0346   24.5912 C   0  0  0  0  0  0  0  0  0  0  0  0
   19.0932   17.5526   25.1996 O   0  5  0  0  0  0  0  0  0  0  0  0
   20.6879   18.9692   25.0018 O   0  0  0  0  0  0  0  0  0  0  0  0
  1  2  1  0  0  0  0
  1  3  1  0  0  0  0
  1  4  2  0  0  0  0
  4  5  1  0  0  0  0
  4  6  1  0  0  0  0
  6  7  1  0  0  0  0
  6  8  1  0  0  0  0
  6  9  1  0  0  0  0
  9 10  1  0  0  0  0
  9 11  1  0  0  0  0
  9 12  1  0  0  0  0
 12 13  1  0  0  0  0
 12 14  1  0  0  0  0
 12 15  1  0  0  0  0
 15 16  1  0  0  0  0
 15 17  1  0  0  0  0
 15 18  1  0  0  0  0
 18 19  1  0  0  0  0
 18 20  2  0  0  0  0
M  END
> <VConfSearch Rank>
693

> <Conf_Id>
53

> <Delta U+W>
0.549

> <U+W>
-51.197

> <U>
10.870

> <W>
-62.067

> <W(PB)>
-64.228

> <W(SA)>
2.161

> <Valence>
8.803

> <Coulomb>
1.020

> <VdW>
1.048

> <VdW6>
-8.312

> <VdW12>
9.360

> <Bond>
0.212

> <Angle>
3.379

> <Pdih>
5.211

> <Idih>
0.001

> <Tether>
0.000

$$$$
VeraChem MOL file


 20 19  0  0  0  0  0  0  0  0999 V2000     
   19.4529   16.1178   22.5213 C   0  0  0  0  0  0  0  0  0  0  0  0
   19.9404   16.4259   23.4437 H   0  0  0  0  0  0  0  0  0  0  0  0
   19.6376   15.1006   22.1807 H   0  0  0  0  0  0  0  0  0  0  0  0
   18.6549   16.9382   21.8294 C   0  0  0  0  0  0  0  0  0  0  0  0
   18.1885   16.5785   20.9126 H   0  0  0  0  0  0  0  0  0  0  0  0
   18.3154   18.3767   22.1831 C   0  0  0  0  0  0  0  0  0  0  0  0
   17.3374   18.3951   22.6816 H   0  0  0  0  0  0  0  0  0  0  0  0
   18.1673   18.9468   21.2570 H   0  0  0  0  0  0  0  0  0  0  0  0
   19.3518   19.1196   23.0662 C   0  0  0  0  0  0  0  0  0  0  0  0
   18.9550   20.1150   23.3081 H   0  0  0  0  0  0  0  0  0  0  0  0
   19.4505   18.6002   24.0284 H   0  0  0  0  0  0  0  0  0  0  0  0
   20.7550   19.2818   22.4247 C   0  0  0  0  0  0  0  0  0  0  0  0
   21.1952   18.2927   22.2444 H   0  0  0  0  0  0  0  0  0  0  0  0
   21.4156   19.7820   23.1461 H   0  0  0  0  0  0  0  0  0  0  0  0
   20.7674   20.0882   21.0974 C   0  0  0  0  0  0  0  0  0  0  0  0
   21.7943   20.1463   20.7182 H   0  0  0  0  0  0  0  0  0  0  0  0
   20.1822   19.5727   20.3275 H   0  0  0  0  0  0  0  0  0  0  0  0
   20.2508   21.5178   21.2306 C   0  0  0  0  0  0  0  0  0  0  0  0
   19.1691   21.7874   20.7463 O   0  5  0  0  0  0  0  0  0  0  0  0
   20.9534   22.3296   21.8006 O   0  0  0  0  0  0  0  0  0  0  0  0
  1  2  1  0  0  0  0
  1  3  1  0  0  0  0
  1  4  2  0  0  0  0
  4  5  1  0  0  0  0
  4  6  1  0  0  0  0
  6  7  1  0  0  0  0
  6  8  1  0  0  0  0
  6  9  1  0  0  0  0
  9 10  1  0  0  0  0
  9 11  1  0  0  0  0
  9 12  1  0  0  0  0
 12 13  1  0  0  0  0
 12 14  1  0  0  0  0
 12 15  1  0  0  0  0
 15 16  1  0  0  0  0
 15 17  1  0  0  0  0
 15 18  1  0  0  0  0
 18 19  1  0  0  0  0
 18 20  2  0  0  0  0
M  END
> <VConfSearch Rank>
694

> <Conf_Id>
66

> <Delta U+W>
1.737

> <U+W>
-50.008

> <U>
11.091

> <W>
-61.099

> <W(PB)>
-63.213

> <W(SA)>
2.114

> <Valence>
9.664

> <Coulomb>
0.658

> <VdW>
0.769

> <VdW6>
-9.171

> <VdW12>
9.940

> <Bond>
0.244

> <Angle>
3.658

> <Pdih>
5.762

> <Idih>
0.001

> <Tether>
0.000

$$$$
VeraChem MOL file


 20 19  0  0  0  0  0  0  0  0999 V2000     
   20.4022   17.0416   20.3552 C   0  0  0  0  0  0  0  0  0  0  0  0
   19.6080   16.5567   20.9184 H   0  0  0  0  0  0  0  0  0  0  0  0
   20.5270   16.7386   19.3171 H   0  0  0  0  0  0  0  0  0  0  0  0
   21.2013   17.9655   20.9000 C   0  0  0  0  0  0  0  0  0  0  0  0
   21.9831   18.4175   20.2902 H   0  0  0  0  0  0  0  0  0  0  0  0
   21.1397   18.4872   22.3264 C   0  0  0  0  0  0  0  0  0  0  0  0
   21.4196   19.5480   22.3289 H   0  0  0  0  0  0  0  0  0  0  0  0
   21.9215   17.9896   22.9151 H   0  0  0  0  0  0  0  0  0  0  0  0
   19.7773   18.3242   23.0500 C   0  0  0  0  0  0  0  0  0  0  0  0
   19.5178   17.2587   23.1029 H   0  0  0  0  0  0  0  0  0  0  0  0
   19.8908   18.6533   24.0918 H   0  0  0  0  0  0  0  0  0  0  0  0
   18.6044   19.1077   22.4071 C   0  0  0  0  0  0  0  0  0  0  0  0
   17.6794   18.8549   22.9435 H   0  0  0  0  0  0  0  0  0  0  0  0
   18.4553   18.7840   21.3686 H   0  0  0  0  0  0  0  0  0  0  0  0
   18.7940   20.6465   22.4422 C   0  0  0  0  0  0  0  0  0  0  0  0
   18.9945   20.9807   23.4670 H   0  0  0  0  0  0  0  0  0  0  0  0
   19.6520   20.9424   21.8281 H   0  0  0  0  0  0  0  0  0  0  0  0
   17.5735   21.4027   21.9296 C   0  0  0  0  0  0  0  0  0  0  0  0
   17.5252   21.6836   20.7483 O   0  5  0  0  0  0  0  0  0  0  0  0
   16.6955   21.6790   22.7233 O   0  0  0  0  0  0  0  0  0  0  0  0
  1  2  1  0  0  0  0
  1  3  1  0  0  0  0
  1  4  2  0  0  0  0
  4  5  1  0  0  0  0
  4  6  1  0  0  0  0
  6  7  1  0  0  0  0
  6  8  1  0  0  0  0
  6  9  1  0  0  0  0
  9 10  1  0  0  0  0
  9 11  1  0  0  0  0
  9 12  1  0  0  0  0
 12 13  1  0  0  0  0
 12 14  1  0  0  0  0
 12 15  1  0  0  0  0
 15 16  1  0  0  0  0
 15 17  1  0  0  0  0
 15 18  1  0  0  0  0
 18 19  1  0  0  0  0
 18 20  2  0  0  0  0
M  END
> <VConfSearch Rank>
695

> <Conf_Id>
64

> <Delta U+W>
0.366

> <U+W>
-51.379

> <U>
10.000

> <W>
-61.379

> <W(PB)>
-63.541

> <W(SA)>
2.162

> <Valence>
9.398

> <Coulomb>
-0.504

> <VdW>
1.105

> <VdW6>
-7.975

> <VdW12>
9.080

> <Bond>
0.216

> <Angle>
3.417

> <Pdih>
5.765

> <Idih>
0.001

> <Tether>
0.000

$$$$
VeraChem MOL file


 20 19  0  0  0  0  0  0  0  0999 V2000     
   18.0891   20.2114   19.9325 C   0  0  0  0  0  0  0  0  0  0  0  0
   18.2160   19.2822   19.3795 H   0  0  0  0  0  0  0  0  0  0  0  0
   18.0624   21.1363   19.3590 H   0  0  0  0  0  0  0  0  0  0  0  0
   17.9742   20.2207   21.2632 C   0  0  0  0  0  0  0  0  0  0  0  0
   17.8504   21.1620   21.7980 H   0  0  0  0  0  0  0  0  0  0  0  0
   18.0027   18.9777   22.1270 C   0  0  0  0  0  0  0  0  0  0  0  0
   17.9245   18.0742   21.5070 H   0  0  0  0  0  0  0  0  0  0  0  0
   17.1240   18.9782   22.7855 H   0  0  0  0  0  0  0  0  0  0  0  0
   19.2775   18.8977   22.9967 C   0  0  0  0  0  0  0  0  0  0  0  0
   19.3560   19.8017   23.6162 H   0  0  0  0  0  0  0  0  0  0  0  0
   19.1823   18.0496   23.6885 H   0  0  0  0  0  0  0  0  0  0  0  0
   20.5633   18.7257   22.1560 C   0  0  0  0  0  0  0  0  0  0  0  0
   20.6843   19.5819   21.4781 H   0  0  0  0  0  0  0  0  0  0  0  0
   20.4756   17.8307   21.5247 H   0  0  0  0  0  0  0  0  0  0  0  0
   21.8230   18.6021   23.0481 C   0  0  0  0  0  0  0  0  0  0  0  0
   21.9310   19.4948   23.6758 H   0  0  0  0  0  0  0  0  0  0  0  0
   21.7278   17.7417   23.7212 H   0  0  0  0  0  0  0  0  0  0  0  0
   23.1052   18.4318   22.2413 C   0  0  0  0  0  0  0  0  0  0  0  0
   23.4473   17.3056   21.9391 O   0  5  0  0  0  0  0  0  0  0  0  0
   23.7207   19.4305   21.9242 O   0  0  0  0  0  0  0  0  0  0  0  0
  1  2  1  0  0  0  0
  1  3  1  0  0  0  0
  1  4  2  0  0  0  0
  4  5  1  0  0  0  0
  4  6  1  0  0  0  0
  6  7  1  0  0  0  0
  6  8  1  0  0  0  0
  6  9  1  0  0  0  0
  9 10  1  0  0  0  0
  9 11  1  0  0  0  0
  9 12  1  0  0  0  0
 12 13  1  0  0  0  0
 12 14  1  0  0  0  0
 12 15  1  0  0  0  0
 15 16  1  0  0  0  0
 15 17  1  0  0  0  0
 15 18  1  0  0  0  0
 18 19  1  0  0  0  0
 18 20  2  0  0  0  0
M  END
> <VConfSearch Rank>
696

> <Conf_Id>
42

> <Delta U+W>
-0.601

> <U+W>
-52.347

> <U>
8.428

> <W>
-60.774

> <W(PB)>
-62.982

> <W(SA)>
2.208

> <Valence>
9.231

> <Coulomb>
-1.304

> <VdW>
0.501

> <VdW6>
-6.515

> <VdW12>
7.016

> <Bond>
0.103

> <Angle>
2.328

> <Pdih>
6.799

> <Idih>
0.000

> <Tether>
0.000

$$$$
VeraChem MOL file


 20 19  0  0  0  0  0  0  0  0999 V2000     
   17.8992   17.8694   24.0881 C   0  0  0  0  0  0  0  0  0  0  0  0
   17.7538   18.7697   24.6830 H   0  0  0  0  0  0  0  0  0  0  0  0
   17.9875   16.9248   24.6220 H   0  0  0  0  0  0  0  0  0  0  0  0
   17.9710   17.9183   22.7553 C   0  0  0  0  0  0  0  0  0  0  0  0
   18.1198   17.0058   22.1786 H   0  0  0  0  0  0  0  0  0  0  0  0
   17.8587   19.1921   21.9447 C   0  0  0  0  0  0  0  0  0  0  0  0
   17.5181   20.0237   22.5764 H   0  0  0  0  0  0  0  0  0  0  0  0
   17.0924   19.0578   21.1697 H   0  0  0  0  0  0  0  0  0  0  0  0
   19.1932   19.5728   21.2650 C   0  0  0  0  0  0  0  0  0  0  0  0
   19.5285   18.7423   20.6285 H   0  0  0  0  0  0  0  0  0  0  0  0
   19.0209   20.4284   20.5979 H   0  0  0  0  0  0  0  0  0  0  0  0
   20.2991   19.9370   22.2836 C   0  0  0  0  0  0  0  0  0  0  0  0
   20.5115   19.0752   22.9313 H   0  0  0  0  0  0  0  0  0  0  0  0
   19.9374   20.7413   22.9382 H   0  0  0  0  0  0  0  0  0  0  0  0
   21.6124   20.3962   21.5987 C   0  0  0  0  0  0  0  0  0  0  0  0
   21.4153   21.2421   20.9290 H   0  0  0  0  0  0  0  0  0  0  0  0
   22.3175   20.7513   22.3595 H   0  0  0  0  0  0  0  0  0  0  0  0
   22.3129   19.2985   20.8030 C   0  0  0  0  0  0  0  0  0  0  0  0
   22.2152   19.3137   19.5916 O   0  5  0  0  0  0  0  0  0  0  0  0
   22.9534   18.4670   21.4158 O   0  0  0  0  0  0  0  0  0  0  0  0
  1  2  1  0  0  0  0
  1  3  1  0  0  0  0
  1  4  2  0  0  0  0
  4  5  1  0  0  0  0
  4  6  1  0  0  0  0
  6  7  1  0  0  0  0
  6  8  1  0  0  0  0
  6  9  1  0  0  0  0
  9 10  1  0  0  0  0
  9 11  1  0  0  0  0
  9 12  1  0  0  0  0
 12 13  1  0  0  0  0
 12 14  1  0  0  0  0
 12 15  1  0  0  0  0
 15 16  1  0  0  0  0
 15 17  1  0  0  0  0
 15 18  1  0  0  0  0
 18 19  1  0  0  0  0
 18 20  2  0  0  0  0
M  END
> <VConfSearch Rank>
697

> <Conf_Id>
68

> <Delta U+W>
0.492

> <U+W>
-51.253

> <U>
10.179

> <W>
-61.432

> <W(PB)>
-63.627

> <W(SA)>
2.195

> <Valence>
9.483

> <Coulomb>
0.361

> <VdW>
0.335

> <VdW6>
-7.385

> <VdW12>
7.720

> <Bond>
0.125

> <Angle>
2.487

> <Pdih>
6.870

> <Idih>
0.001

> <Tether>
0.000

$$$$
VeraChem MOL file


 20 19  0  0  0  0  0  0  0  0999 V2000     
   16.6010   18.5974   22.7424 C   0  0  0  0  0  0  0  0  0  0  0  0
   16.3272   17.9106   21.9430 H   0  0  0  0  0  0  0  0  0  0  0  0
   15.8224   19.2532   23.1282 H   0  0  0  0  0  0  0  0  0  0  0  0
   17.8432   18.6391   23.2311 C   0  0  0  0  0  0  0  0  0  0  0  0
   18.0950   19.3323   24.0332 H   0  0  0  0  0  0  0  0  0  0  0  0
   18.9737   17.7552   22.7491 C   0  0  0  0  0  0  0  0  0  0  0  0
   18.5635   16.8855   22.2182 H   0  0  0  0  0  0  0  0  0  0  0  0
   19.5293   17.3566   23.6085 H   0  0  0  0  0  0  0  0  0  0  0  0
   19.9413   18.5015   21.8031 C   0  0  0  0  0  0  0  0  0  0  0  0
   20.6575   17.7796   21.3874 H   0  0  0  0  0  0  0  0  0  0  0  0
   19.3766   18.9072   20.9521 H   0  0  0  0  0  0  0  0  0  0  0  0
   20.7182   19.6370   22.5108 C   0  0  0  0  0  0  0  0  0  0  0  0
   21.2383   19.2284   23.3877 H   0  0  0  0  0  0  0  0  0  0  0  0
   20.0177   20.3968   22.8834 H   0  0  0  0  0  0  0  0  0  0  0  0
   21.7568   20.3164   21.5810 C   0  0  0  0  0  0  0  0  0  0  0  0
   22.3561   21.0287   22.1601 H   0  0  0  0  0  0  0  0  0  0  0  0
   22.4521   19.5695   21.1791 H   0  0  0  0  0  0  0  0  0  0  0  0
   21.1375   21.0819   20.4151 C   0  0  0  0  0  0  0  0  0  0  0  0
   20.6543   22.1742   20.6400 O   0  5  0  0  0  0  0  0  0  0  0  0
   21.1717   20.5756   19.3108 O   0  0  0  0  0  0  0  0  0  0  0  0
  1  2  1  0  0  0  0
  1  3  1  0  0  0  0
  1  4  2  0  0  0  0
  4  5  1  0  0  0  0
  4  6  1  0  0  0  0
  6  7  1  0  0  0  0
  6  8  1  0  0  0  0
  6  9  1  0  0  0  0
  9 10  1  0  0  0  0
  9 11  1  0  0  0  0
  9 12  1  0  0  0  0
 12 13  1  0  0  0  0
 12 14  1  0  0  0  0
 12 15  1  0  0  0  0
 15 16  1  0  0  0  0
 15 17  1  0  0  0  0
 15 18  1  0  0  0  0
 18 19  1  0  0  0  0
 18 20  2  0  0  0  0
M  END
> <VConfSearch Rank>
698

> <Conf_Id>
87

> <Delta U+W>
0.339

> <U+W>
-51.407

> <U>
10.461

> <W>
-61.867

> <W(PB)>
-64.045

> <W(SA)>
2.178

> <Valence>
9.555

> <Coulomb>
0.483

> <VdW>
0.423

> <VdW6>
-7.223

> <VdW12>
7.646

> <Bond>
0.126

> <Angle>
2.492

> <Pdih>
6.936

> <Idih>
0.001

> <Tether>
0.000

$$$$
VeraChem MOL file


 20 19  0  0  0  0  0  0  0  0999 V2000     
   21.3460   17.5185   23.6702 C   0  0  0  0  0  0  0  0  0  0  0  0
   22.0098   18.3004   24.0353 H   0  0  0  0  0  0  0  0  0  0  0  0
   21.0826   16.7200   24.3616 H   0  0  0  0  0  0  0  0  0  0  0  0
   20.8698   17.5375   22.4226 C   0  0  0  0  0  0  0  0  0  0  0  0
   20.2139   16.7411   22.0728 H   0  0  0  0  0  0  0  0  0  0  0  0
   21.2039   18.6080   21.4058 C   0  0  0  0  0  0  0  0  0  0  0  0
   20.9981   18.2454   20.3899 H   0  0  0  0  0  0  0  0  0  0  0  0
   22.2855   18.7960   21.4415 H   0  0  0  0  0  0  0  0  0  0  0  0
   20.4649   19.9471   21.6506 C   0  0  0  0  0  0  0  0  0  0  0  0
   20.5149   20.2147   22.7149 H   0  0  0  0  0  0  0  0  0  0  0  0
   21.0111   20.7361   21.1159 H   0  0  0  0  0  0  0  0  0  0  0  0
   18.9947   19.9798   21.1621 C   0  0  0  0  0  0  0  0  0  0  0  0
   18.9473   19.6982   20.1012 H   0  0  0  0  0  0  0  0  0  0  0  0
   18.6352   21.0165   21.2211 H   0  0  0  0  0  0  0  0  0  0  0  0
   18.0314   19.0822   21.9803 C   0  0  0  0  0  0  0  0  0  0  0  0
   18.2671   18.0245   21.8267 H   0  0  0  0  0  0  0  0  0  0  0  0
   18.1375   19.2893   23.0519 H   0  0  0  0  0  0  0  0  0  0  0  0
   16.5693   19.2862   21.6002 C   0  0  0  0  0  0  0  0  0  0  0  0
   16.1121   18.6151   20.6961 O   0  5  0  0  0  0  0  0  0  0  0  0
   15.9311   20.1257   22.2042 O   0  0  0  0  0  0  0  0  0  0  0  0
  1  2  1  0  0  0  0
  1  3  1  0  0  0  0
  1  4  2  0  0  0  0
  4  5  1  0  0  0  0
  4  6  1  0  0  0  0
  6  7  1  0  0  0  0
  6  8  1  0  0  0  0
  6  9  1  0  0  0  0
  9 10  1  0  0  0  0
  9 11  1  0  0  0  0
  9 12  1  0  0  0  0
 12 13  1  0  0  0  0
 12 14  1  0  0  0  0
 12 15  1  0  0  0  0
 15 16  1  0  0  0  0
 15 17  1  0  0  0  0
 15 18  1  0  0  0  0
 18 19  1  0  0  0  0
 18 20  2  0  0  0  0
M  END
> <VConfSearch Rank>
699

> <Conf_Id>
51

> <Delta U+W>
1.709

> <U+W>
-50.036

> <U>
10.643

> <W>
-60.679

> <W(PB)>
-62.882

> <W(SA)>
2.203

> <Valence>
11.231

> <Coulomb>
-1.077

> <VdW>
0.489

> <VdW6>
-7.546

> <VdW12>
8.035

> <Bond>
0.159

> <Angle>
3.005

> <Pdih>
8.065

> <Idih>
0.002

> <Tether>
0.000

$$$$
VeraChem MOL file


 20 19  0  0  0  0  0  0  0  0999 V2000     
   22.3337   18.6694   22.6029 C   0  0  0  0  0  0  0  0  0  0  0  0
   22.8090   18.5956   21.6261 H   0  0  0  0  0  0  0  0  0  0  0  0
   22.7190   18.0338   23.3982 H   0  0  0  0  0  0  0  0  0  0  0  0
   21.3149   19.5055   22.8188 C   0  0  0  0  0  0  0  0  0  0  0  0
   20.8582   19.5717   23.8057 H   0  0  0  0  0  0  0  0  0  0  0  0
   20.7376   20.4256   21.7644 C   0  0  0  0  0  0  0  0  0  0  0  0
   21.5680   20.9106   21.2337 H   0  0  0  0  0  0  0  0  0  0  0  0
   20.1715   21.2388   22.2378 H   0  0  0  0  0  0  0  0  0  0  0  0
   19.8501   19.6969   20.7250 C   0  0  0  0  0  0  0  0  0  0  0  0
   19.7740   20.3394   19.8373 H   0  0  0  0  0  0  0  0  0  0  0  0
   20.3450   18.7757   20.3883 H   0  0  0  0  0  0  0  0  0  0  0  0
   18.4097   19.3831   21.2025 C   0  0  0  0  0  0  0  0  0  0  0  0
   17.8277   19.0370   20.3371 H   0  0  0  0  0  0  0  0  0  0  0  0
   17.9229   20.3041   21.5516 H   0  0  0  0  0  0  0  0  0  0  0  0
   18.3271   18.3013   22.3098 C   0  0  0  0  0  0  0  0  0  0  0  0
   18.8898   17.4088   22.0115 H   0  0  0  0  0  0  0  0  0  0  0  0
   18.7681   18.6697   23.2414 H   0  0  0  0  0  0  0  0  0  0  0  0
   16.8948   17.8788   22.6160 C   0  0  0  0  0  0  0  0  0  0  0  0
   16.2786   18.5048   23.4558 O   0  5  0  0  0  0  0  0  0  0  0  0
   16.4255   16.9475   21.9921 O   0  0  0  0  0  0  0  0  0  0  0  0
  1  2  1  0  0  0  0
  1  3  1  0  0  0  0
  1  4  2  0  0  0  0
  4  5  1  0  0  0  0
  4  6  1  0  0  0  0
  6  7  1  0  0  0  0
  6  8  1  0  0  0  0
  6  9  1  0  0  0  0
  9 10  1  0  0  0  0
  9 11  1  0  0  0  0
  9 12  1  0  0  0  0
 12 13  1  0  0  0  0
 12 14  1  0  0  0  0
 12 15  1  0  0  0  0
 15 16  1  0  0  0  0
 15 17  1  0  0  0  0
 15 18  1  0  0  0  0
 18 19  1  0  0  0  0
 18 20  2  0  0  0  0
M  END
> <VConfSearch Rank>
700

> <Conf_Id>
91

> <Delta U+W>
1.604

> <U+W>
-50.141

> <U>
10.644

> <W>
-60.786

> <W(PB)>
-62.965

> <W(SA)>
2.179

> <Valence>
11.230

> <Coulomb>
-1.075

> <VdW>
0.489

> <VdW6>
-7.547

> <VdW12>
8.036

> <Bond>
0.159

> <Angle>
3.006

> <Pdih>
8.064

> <Idih>
0.002

> <Tether>
0.000

$$$$
VeraChem MOL file


 20 19  0  0  0  0  0  0  0  0999 V2000     
   16.1239   19.2697   21.9807 C   0  0  0  0  0  0  0  0  0  0  0  0
   16.0896   18.6437   21.0905 H   0  0  0  0  0  0  0  0  0  0  0  0
   15.2473   19.8770   22.2001 H   0  0  0  0  0  0  0  0  0  0  0  0
   17.1981   19.2966   22.7738 C   0  0  0  0  0  0  0  0  0  0  0  0
   17.2123   19.9309   23.6599 H   0  0  0  0  0  0  0  0  0  0  0  0
   18.4494   18.4817   22.5340 C   0  0  0  0  0  0  0  0  0  0  0  0
   18.2547   17.6951   21.7923 H   0  0  0  0  0  0  0  0  0  0  0  0
   18.7412   17.9743   23.4633 H   0  0  0  0  0  0  0  0  0  0  0  0
   19.6098   19.3734   22.0448 C   0  0  0  0  0  0  0  0  0  0  0  0
   19.3112   19.8817   21.1175 H   0  0  0  0  0  0  0  0  0  0  0  0
   19.8072   20.1571   22.7891 H   0  0  0  0  0  0  0  0  0  0  0  0
   20.8972   18.5570   21.7976 C   0  0  0  0  0  0  0  0  0  0  0  0
   20.7007   17.7731   21.0530 H   0  0  0  0  0  0  0  0  0  0  0  0
   21.1956   18.0473   22.7243 H   0  0  0  0  0  0  0  0  0  0  0  0
   22.0638   19.4541   21.3049 C   0  0  0  0  0  0  0  0  0  0  0  0
   21.7751   19.9609   20.3766 H   0  0  0  0  0  0  0  0  0  0  0  0
   22.2697   20.2349   22.0464 H   0  0  0  0  0  0  0  0  0  0  0  0
   23.3799   18.7230   21.0350 C   0  0  0  0  0  0  0  0  0  0  0  0
   24.3171   19.3929   20.6490 O   0  5  0  0  0  0  0  0  0  0  0  0
   23.4492   17.5217   21.2101 O   0  0  0  0  0  0  0  0  0  0  0  0
  1  2  1  0  0  0  0
  1  3  1  0  0  0  0
  1  4  2  0  0  0  0
  4  5  1  0  0  0  0
  4  6  1  0  0  0  0
  6  7  1  0  0  0  0
  6  8  1  0  0  0  0
  6  9  1  0  0  0  0
  9 10  1  0  0  0  0
  9 11  1  0  0  0  0
  9 12  1  0  0  0  0
 12 13  1  0  0  0  0
 12 14  1  0  0  0  0
 12 15  1  0  0  0  0
 15 16  1  0  0  0  0
 15 17  1  0  0  0  0
 15 18  1  0  0  0  0
 18 19  1  0  0  0  0
 18 20  2  0  0  0  0
M  END
> <VConfSearch Rank>
701

> <Conf_Id>
33

> <Delta U+W>
0.000

> <U+W>
-51.745

> <U>
7.593

> <W>
-59.338

> <W(PB)>
-61.574

> <W(SA)>
2.236

> <Valence>
9.570

> <Coulomb>
-3.091

> <VdW>
1.114

> <VdW6>
-6.064

> <VdW12>
7.178

> <Bond>
0.117

> <Angle>
2.692

> <Pdih>
6.761

> <Idih>
0.000

> <Tether>
0.000

$$$$
VeraChem MOL file


 20 19  0  0  0  0  0  0  0  0999 V2000     
   19.3713   17.2842   25.0539 C   0  0  0  0  0  0  0  0  0  0  0  0
   19.1036   18.2246   25.5331 H   0  0  0  0  0  0  0  0  0  0  0  0
   19.5666   16.4304   25.7004 H   0  0  0  0  0  0  0  0  0  0  0  0
   19.4602   17.1787   23.7255 C   0  0  0  0  0  0  0  0  0  0  0  0
   19.7305   16.2283   23.2657 H   0  0  0  0  0  0  0  0  0  0  0  0
   19.2031   18.3186   22.7652 C   0  0  0  0  0  0  0  0  0  0  0  0
   18.6963   19.1442   23.2831 H   0  0  0  0  0  0  0  0  0  0  0  0
   18.5247   17.9763   21.9736 H   0  0  0  0  0  0  0  0  0  0  0  0
   20.5232   18.8319   22.1474 C   0  0  0  0  0  0  0  0  0  0  0  0
   21.2171   19.0889   22.9597 H   0  0  0  0  0  0  0  0  0  0  0  0
   21.0013   18.0256   21.5746 H   0  0  0  0  0  0  0  0  0  0  0  0
   20.3396   20.0745   21.2437 C   0  0  0  0  0  0  0  0  0  0  0  0
   21.3309   20.4389   20.9405 H   0  0  0  0  0  0  0  0  0  0  0  0
   19.8735   20.8864   21.8190 H   0  0  0  0  0  0  0  0  0  0  0  0
   19.5008   19.7947   19.9697 C   0  0  0  0  0  0  0  0  0  0  0  0
   19.9323   18.9572   19.4086 H   0  0  0  0  0  0  0  0  0  0  0  0
   18.4753   19.5148   20.2356 H   0  0  0  0  0  0  0  0  0  0  0  0
   19.4254   20.9990   19.0380 C   0  0  0  0  0  0  0  0  0  0  0  0
   18.5259   21.7987   19.2056 O   0  5  0  0  0  0  0  0  0  0  0  0
   20.2797   21.1161   18.1817 O   0  0  0  0  0  0  0  0  0  0  0  0
  1  2  1  0  0  0  0
  1  3  1  0  0  0  0
  1  4  2  0  0  0  0
  4  5  1  0  0  0  0
  4  6  1  0  0  0  0
  6  7  1  0  0  0  0
  6  8  1  0  0  0  0
  6  9  1  0  0  0  0
  9 10  1  0  0  0  0
  9 11  1  0  0  0  0
  9 12  1  0  0  0  0
 12 13  1  0  0  0  0
 12 14  1  0  0  0  0
 12 15  1  0  0  0  0
 15 16  1  0  0  0  0
 15 17  1  0  0  0  0
 15 18  1  0  0  0  0
 18 19  1  0  0  0  0
 18 20  2  0  0  0  0
M  END
> <VConfSearch Rank>
702

> <Conf_Id>
37

> <Delta U+W>
-0.384

> <U+W>
-52.130

> <U>
7.491

> <W>
-59.621

> <W(PB)>
-61.853

> <W(SA)>
2.232

> <Valence>
9.604

> <Coulomb>
-2.799

> <VdW>
0.686

> <VdW6>
-6.435

> <VdW12>
7.121

> <Bond>
0.124

> <Angle>
2.493

> <Pdih>
6.986

> <Idih>
0.001

> <Tether>
0.000

$$$$
VeraChem MOL file


 20 19  0  0  0  0  0  0  0  0999 V2000     
   18.8123   18.1465   18.8166 C   0  0  0  0  0  0  0  0  0  0  0  0
   18.5120   17.8567   17.8111 H   0  0  0  0  0  0  0  0  0  0  0  0
   18.0785   18.6860   19.4116 H   0  0  0  0  0  0  0  0  0  0  0  0
   20.0305   17.8441   19.2797 C   0  0  0  0  0  0  0  0  0  0  0  0
   20.7225   17.3017   18.6359 H   0  0  0  0  0  0  0  0  0  0  0  0
   20.5896   18.1795   20.6522 C   0  0  0  0  0  0  0  0  0  0  0  0
   21.5100   18.7650   20.5248 H   0  0  0  0  0  0  0  0  0  0  0  0
   20.8975   17.2477   21.1452 H   0  0  0  0  0  0  0  0  0  0  0  0
   19.6233   18.9498   21.5822 C   0  0  0  0  0  0  0  0  0  0  0  0
   19.3277   19.8936   21.1036 H   0  0  0  0  0  0  0  0  0  0  0  0
   18.7085   18.3598   21.7307 H   0  0  0  0  0  0  0  0  0  0  0  0
   20.2668   19.2507   22.9535 C   0  0  0  0  0  0  0  0  0  0  0  0
   21.1828   19.8409   22.8117 H   0  0  0  0  0  0  0  0  0  0  0  0
   20.5649   18.3102   23.4375 H   0  0  0  0  0  0  0  0  0  0  0  0
   19.3011   20.0220   23.8865 C   0  0  0  0  0  0  0  0  0  0  0  0
   19.0040   20.9706   23.4235 H   0  0  0  0  0  0  0  0  0  0  0  0
   18.3860   19.4399   24.0492 H   0  0  0  0  0  0  0  0  0  0  0  0
   19.9140   20.3309   25.2477 C   0  0  0  0  0  0  0  0  0  0  0  0
   20.5282   21.3714   25.3773 O   0  5  0  0  0  0  0  0  0  0  0  0
   19.7778   19.5139   26.1368 O   0  0  0  0  0  0  0  0  0  0  0  0
  1  2  1  0  0  0  0
  1  3  1  0  0  0  0
  1  4  2  0  0  0  0
  4  5  1  0  0  0  0
  4  6  1  0  0  0  0
  6  7  1  0  0  0  0
  6  8  1  0  0  0  0
  6  9  1  0  0  0  0
  9 10  1  0  0  0  0
  9 11  1  0  0  0  0
  9 12  1  0  0  0  0
 12 13  1  0  0  0  0
 12 14  1  0  0  0  0
 12 15  1  0  0  0  0
 15 16  1  0  0  0  0
 15 17  1  0  0  0  0
 15 18  1  0  0  0  0
 18 19  1  0  0  0  0
 18 20  2  0  0  0  0
M  END
> <VConfSearch Rank>
703

> <Conf_Id>
44

> <Delta U+W>
-1.440

> <U+W>
-53.185

> <U>
6.572

> <W>
-59.757

> <W(PB)>
-62.007

> <W(SA)>
2.249

> <Valence>
7.989

> <Coulomb>
-2.697

> <VdW>
1.281

> <VdW6>
-6.467

> <VdW12>
7.748

> <Bond>
0.136

> <Angle>
2.854

> <Pdih>
4.997

> <Idih>
0.001

> <Tether>
0.000

$$$$
VeraChem MOL file


 20 19  0  0  0  0  0  0  0  0999 V2000     
   19.8648   16.2250   23.9067 C   0  0  0  0  0  0  0  0  0  0  0  0
   19.9052   16.9822   24.6880 H   0  0  0  0  0  0  0  0  0  0  0  0
   20.0969   15.1998   24.1901 H   0  0  0  0  0  0  0  0  0  0  0  0
   19.5462   16.5377   22.6479 C   0  0  0  0  0  0  0  0  0  0  0  0
   19.5120   15.7645   21.8806 H   0  0  0  0  0  0  0  0  0  0  0  0
   19.2111   17.9367   22.1807 C   0  0  0  0  0  0  0  0  0  0  0  0
   19.0061   18.5796   23.0462 H   0  0  0  0  0  0  0  0  0  0  0  0
   18.2928   17.9121   21.5790 H   0  0  0  0  0  0  0  0  0  0  0  0
   20.3642   18.5330   21.3424 C   0  0  0  0  0  0  0  0  0  0  0  0
   21.2685   18.6079   21.9620 H   0  0  0  0  0  0  0  0  0  0  0  0
   20.6052   17.8395   20.5252 H   0  0  0  0  0  0  0  0  0  0  0  0
   20.0337   19.9166   20.7333 C   0  0  0  0  0  0  0  0  0  0  0  0
   19.1351   19.8411   20.1056 H   0  0  0  0  0  0  0  0  0  0  0  0
   20.8546   20.2121   20.0652 H   0  0  0  0  0  0  0  0  0  0  0  0
   19.8318   21.0284   21.7955 C   0  0  0  0  0  0  0  0  0  0  0  0
   18.9611   20.8097   22.4237 H   0  0  0  0  0  0  0  0  0  0  0  0
   20.7051   21.0835   22.4564 H   0  0  0  0  0  0  0  0  0  0  0  0
   19.6211   22.4047   21.1747 C   0  0  0  0  0  0  0  0  0  0  0  0
   20.5991   23.0937   20.9616 O   0  5  0  0  0  0  0  0  0  0  0  0
   18.4863   22.7436   20.9022 O   0  0  0  0  0  0  0  0  0  0  0  0
  1  2  1  0  0  0  0
  1  3  1  0  0  0  0
  1  4  2  0  0  0  0
  4  5  1  0  0  0  0
  4  6  1  0  0  0  0
  6  7  1  0  0  0  0
  6  8  1  0  0  0  0
  6  9  1  0  0  0  0
  9 10  1  0  0  0  0
  9 11  1  0  0  0  0
  9 12  1  0  0  0  0
 12 13  1  0  0  0  0
 12 14  1  0  0  0  0
 12 15  1  0  0  0  0
 15 16  1  0  0  0  0
 15 17  1  0  0  0  0
 15 18  1  0  0  0  0
 18 19  1  0  0  0  0
 18 20  2  0  0  0  0
M  END
> <VConfSearch Rank>
704

> <Conf_Id>
38

> <Delta U+W>
-0.381

> <U+W>
-52.126

> <U>
7.601

> <W>
-59.727

> <W(PB)>
-61.964

> <W(SA)>
2.236

> <Valence>
9.602

> <Coulomb>
-2.686

> <VdW>
0.685

> <VdW6>
-6.453

> <VdW12>
7.139

> <Bond>
0.125

> <Angle>
2.485

> <Pdih>
6.991

> <Idih>
0.001

> <Tether>
0.000

$$$$
VeraChem MOL file


 20 19  0  0  0  0  0  0  0  0999 V2000     
   19.4596   18.1415   18.6538 C   0  0  0  0  0  0  0  0  0  0  0  0
   19.4633   17.0892   18.9334 H   0  0  0  0  0  0  0  0  0  0  0  0
   19.0381   18.4007   17.6841 H   0  0  0  0  0  0  0  0  0  0  0  0
   19.9497   19.0811   19.4666 C   0  0  0  0  0  0  0  0  0  0  0  0
   19.9357   20.1291   19.1680 H   0  0  0  0  0  0  0  0  0  0  0  0
   20.5505   18.7974   20.8253 C   0  0  0  0  0  0  0  0  0  0  0  0
   21.5147   19.3153   20.9161 H   0  0  0  0  0  0  0  0  0  0  0  0
   20.7568   17.7238   20.9332 H   0  0  0  0  0  0  0  0  0  0  0  0
   19.6085   19.2566   21.9579 C   0  0  0  0  0  0  0  0  0  0  0  0
   19.4057   20.3311   21.8491 H   0  0  0  0  0  0  0  0  0  0  0  0
   18.6436   18.7401   21.8610 H   0  0  0  0  0  0  0  0  0  0  0  0
   20.2091   18.9765   23.3540 C   0  0  0  0  0  0  0  0  0  0  0  0
   21.1695   19.5004   23.4582 H   0  0  0  0  0  0  0  0  0  0  0  0
   20.4227   17.9031   23.4477 H   0  0  0  0  0  0  0  0  0  0  0  0
   19.2635   19.4037   24.5065 C   0  0  0  0  0  0  0  0  0  0  0  0
   18.2899   18.9099   24.4006 H   0  0  0  0  0  0  0  0  0  0  0  0
   19.6829   19.0764   25.4652 H   0  0  0  0  0  0  0  0  0  0  0  0
   19.0383   20.9103   24.5977 C   0  0  0  0  0  0  0  0  0  0  0  0
   17.9755   21.3580   24.2142 O   0  5  0  0  0  0  0  0  0  0  0  0
   19.9292   21.5951   25.0607 O   0  0  0  0  0  0  0  0  0  0  0  0
  1  2  1  0  0  0  0
  1  3  1  0  0  0  0
  1  4  2  0  0  0  0
  4  5  1  0  0  0  0
  4  6  1  0  0  0  0
  6  7  1  0  0  0  0
  6  8  1  0  0  0  0
  6  9  1  0  0  0  0
  9 10  1  0  0  0  0
  9 11  1  0  0  0  0
  9 12  1  0  0  0  0
 12 13  1  0  0  0  0
 12 14  1  0  0  0  0
 12 15  1  0  0  0  0
 15 16  1  0  0  0  0
 15 17  1  0  0  0  0
 15 18  1  0  0  0  0
 18 19  1  0  0  0  0
 18 20  2  0  0  0  0
M  END
> <VConfSearch Rank>
705

> <Conf_Id>
58

> <Delta U+W>
0.019

> <U+W>
-51.727

> <U>
8.963

> <W>
-60.690

> <W(PB)>
-62.934

> <W(SA)>
2.244

> <Valence>
9.327

> <Coulomb>
-0.780

> <VdW>
0.417

> <VdW6>
-6.635

> <VdW12>
7.052

> <Bond>
0.105

> <Angle>
2.399

> <Pdih>
6.822

> <Idih>
0.000

> <Tether>
0.000

$$$$
VeraChem MOL file


 20 19  0  0  0  0  0  0  0  0999 V2000     
   19.4022   15.6897   21.9433 C   0  0  0  0  0  0  0  0  0  0  0  0
   19.9583   15.6054   21.0110 H   0  0  0  0  0  0  0  0  0  0  0  0
   18.7324   14.8716   22.2029 H   0  0  0  0  0  0  0  0  0  0  0  0
   19.5316   16.7546   22.7390 C   0  0  0  0  0  0  0  0  0  0  0  0
   18.9650   16.8199   23.6676 H   0  0  0  0  0  0  0  0  0  0  0  0
   20.4410   17.9269   22.4452 C   0  0  0  0  0  0  0  0  0  0  0  0
   21.1488   17.6681   21.6460 H   0  0  0  0  0  0  0  0  0  0  0  0
   21.0405   18.1589   23.3357 H   0  0  0  0  0  0  0  0  0  0  0  0
   19.6289   19.1716   22.0302 C   0  0  0  0  0  0  0  0  0  0  0  0
   19.0270   18.9343   21.1421 H   0  0  0  0  0  0  0  0  0  0  0  0
   18.9234   19.4297   22.8321 H   0  0  0  0  0  0  0  0  0  0  0  0
   20.5436   20.3804   21.7292 C   0  0  0  0  0  0  0  0  0  0  0  0
   21.2550   20.1080   20.9378 H   0  0  0  0  0  0  0  0  0  0  0  0
   21.1394   20.6272   22.6190 H   0  0  0  0  0  0  0  0  0  0  0  0
   19.7475   21.6333   21.2805 C   0  0  0  0  0  0  0  0  0  0  0  0
   20.4457   22.4185   20.9674 H   0  0  0  0  0  0  0  0  0  0  0  0
   19.1257   21.3952   20.4090 H   0  0  0  0  0  0  0  0  0  0  0  0
   18.8553   22.2236   22.3688 C   0  0  0  0  0  0  0  0  0  0  0  0
   19.3832   22.8640   23.2567 O   0  5  0  0  0  0  0  0  0  0  0  0
   17.6566   22.0375   22.2947 O   0  0  0  0  0  0  0  0  0  0  0  0
  1  2  1  0  0  0  0
  1  3  1  0  0  0  0
  1  4  2  0  0  0  0
  4  5  1  0  0  0  0
  4  6  1  0  0  0  0
  6  7  1  0  0  0  0
  6  8  1  0  0  0  0
  6  9  1  0  0  0  0
  9 10  1  0  0  0  0
  9 11  1  0  0  0  0
  9 12  1  0  0  0  0
 12 13  1  0  0  0  0
 12 14  1  0  0  0  0
 12 15  1  0  0  0  0
 15 16  1  0  0  0  0
 15 17  1  0  0  0  0
 15 18  1  0  0  0  0
 18 19  1  0  0  0  0
 18 20  2  0  0  0  0
M  END
> <VConfSearch Rank>
706

> <Conf_Id>
54

> <Delta U+W>
-0.048

> <U+W>
-51.793

> <U>
8.964

> <W>
-60.756

> <W(PB)>
-63.007

> <W(SA)>
2.251

> <Valence>
9.327

> <Coulomb>
-0.780

> <VdW>
0.417

> <VdW6>
-6.635

> <VdW12>
7.052

> <Bond>
0.105

> <Angle>
2.399

> <Pdih>
6.822

> <Idih>
0.000

> <Tether>
0.000

$$$$
VeraChem MOL file


 20 19  0  0  0  0  0  0  0  0999 V2000     
   20.1833   20.9622   24.7805 C   0  0  0  0  0  0  0  0  0  0  0  0
   19.7994   21.9327   25.0902 H   0  0  0  0  0  0  0  0  0  0  0  0
   20.2788   20.1935   25.5457 H   0  0  0  0  0  0  0  0  0  0  0  0
   20.5202   20.7268   23.5098 C   0  0  0  0  0  0  0  0  0  0  0  0
   20.4201   21.5114   22.7604 H   0  0  0  0  0  0  0  0  0  0  0  0
   21.0662   19.4068   23.0085 C   0  0  0  0  0  0  0  0  0  0  0  0
   21.4671   18.8281   23.8517 H   0  0  0  0  0  0  0  0  0  0  0  0
   21.9106   19.5846   22.3291 H   0  0  0  0  0  0  0  0  0  0  0  0
   19.9911   18.5580   22.2929 C   0  0  0  0  0  0  0  0  0  0  0  0
   20.4117   17.5658   22.0794 H   0  0  0  0  0  0  0  0  0  0  0  0
   19.1412   18.3981   22.9706 H   0  0  0  0  0  0  0  0  0  0  0  0
   19.4968   19.1998   20.9746 C   0  0  0  0  0  0  0  0  0  0  0  0
   20.3486   19.3733   20.3025 H   0  0  0  0  0  0  0  0  0  0  0  0
   19.0566   20.1828   21.1879 H   0  0  0  0  0  0  0  0  0  0  0  0
   18.4386   18.3290   20.2486 C   0  0  0  0  0  0  0  0  0  0  0  0
   17.5965   18.1188   20.9191 H   0  0  0  0  0  0  0  0  0  0  0  0
   18.0331   18.8825   19.3935 H   0  0  0  0  0  0  0  0  0  0  0  0
   18.9818   17.0051   19.7184 C   0  0  0  0  0  0  0  0  0  0  0  0
   18.7011   15.9859   20.3179 O   0  5  0  0  0  0  0  0  0  0  0  0
   19.6632   17.0278   18.7122 O   0  0  0  0  0  0  0  0  0  0  0  0
  1  2  1  0  0  0  0
  1  3  1  0  0  0  0
  1  4  2  0  0  0  0
  4  5  1  0  0  0  0
  4  6  1  0  0  0  0
  6  7  1  0  0  0  0
  6  8  1  0  0  0  0
  6  9  1  0  0  0  0
  9 10  1  0  0  0  0
  9 11  1  0  0  0  0
  9 12  1  0  0  0  0
 12 13  1  0  0  0  0
 12 14  1  0  0  0  0
 12 15  1  0  0  0  0
 15 16  1  0  0  0  0
 15 17  1  0  0  0  0
 15 18  1  0  0  0  0
 18 19  1  0  0  0  0
 18 20  2  0  0  0  0
M  END
> <VConfSearch Rank>
707

> <Conf_Id>
27

> <Delta U+W>
0.478

> <U+W>
-51.267

> <U>
9.192

> <W>
-60.459

> <W(PB)>
-62.649

> <W(SA)>
2.190

> <Valence>
9.572

> <Coulomb>
-0.884

> <VdW>
0.504

> <VdW6>
-7.168

> <VdW12>
7.672

> <Bond>
0.127

> <Angle>
2.504

> <Pdih>
6.941

> <Idih>
0.001

> <Tether>
0.000

$$$$
VeraChem MOL file


 20 19  0  0  0  0  0  0  0  0999 V2000     
   17.7142   21.4882   22.3623 C   0  0  0  0  0  0  0  0  0  0  0  0
   17.4243   21.8298   21.3699 H   0  0  0  0  0  0  0  0  0  0  0  0
   17.7750   22.2356   23.1516 H   0  0  0  0  0  0  0  0  0  0  0  0
   17.9884   20.2039   22.6053 C   0  0  0  0  0  0  0  0  0  0  0  0
   18.2737   19.8830   23.6068 H   0  0  0  0  0  0  0  0  0  0  0  0
   17.9189   19.1101   21.5610 C   0  0  0  0  0  0  0  0  0  0  0  0
   17.2999   19.4430   20.7169 H   0  0  0  0  0  0  0  0  0  0  0  0
   17.4194   18.2256   21.9783 H   0  0  0  0  0  0  0  0  0  0  0  0
   19.3148   18.7175   21.0268 C   0  0  0  0  0  0  0  0  0  0  0  0
   19.1887   18.0219   20.1858 H   0  0  0  0  0  0  0  0  0  0  0  0
   19.8157   19.6091   20.6251 H   0  0  0  0  0  0  0  0  0  0  0  0
   20.2061   18.0560   22.1029 C   0  0  0  0  0  0  0  0  0  0  0  0
   19.6926   17.1796   22.5220 H   0  0  0  0  0  0  0  0  0  0  0  0
   20.3733   18.7555   22.9333 H   0  0  0  0  0  0  0  0  0  0  0  0
   21.5756   17.6194   21.5268 C   0  0  0  0  0  0  0  0  0  0  0  0
   21.4317   16.9067   20.7058 H   0  0  0  0  0  0  0  0  0  0  0  0
   22.1064   18.4861   21.1149 H   0  0  0  0  0  0  0  0  0  0  0  0
   22.4746   16.9648   22.5695 C   0  0  0  0  0  0  0  0  0  0  0  0
   23.2226   17.6766   23.2103 O   0  5  0  0  0  0  0  0  0  0  0  0
   22.3906   15.7627   22.7258 O   0  0  0  0  0  0  0  0  0  0  0  0
  1  2  1  0  0  0  0
  1  3  1  0  0  0  0
  1  4  2  0  0  0  0
  4  5  1  0  0  0  0
  4  6  1  0  0  0  0
  6  7  1  0  0  0  0
  6  8  1  0  0  0  0
  6  9  1  0  0  0  0
  9 10  1  0  0  0  0
  9 11  1  0  0  0  0
  9 12  1  0  0  0  0
 12 13  1  0  0  0  0
 12 14  1  0  0  0  0
 12 15  1  0  0  0  0
 15 16  1  0  0  0  0
 15 17  1  0  0  0  0
 15 18  1  0  0  0  0
 18 19  1  0  0  0  0
 18 20  2  0  0  0  0
M  END
> <VConfSearch Rank>
708

> <Conf_Id>
41

> <Delta U+W>
-0.634

> <U+W>
-52.379

> <U>
7.828

> <W>
-60.207

> <W(PB)>
-62.449

> <W(SA)>
2.242

> <Valence>
9.300

> <Coulomb>
-2.080

> <VdW>
0.608

> <VdW6>
-6.341

> <VdW12>
6.949

> <Bond>
0.103

> <Angle>
2.334

> <Pdih>
6.862

> <Idih>
0.001

> <Tether>
0.000

$$$$
VeraChem MOL file


 20 19  0  0  0  0  0  0  0  0999 V2000     
   21.2091   22.0041   23.0201 C   0  0  0  0  0  0  0  0  0  0  0  0
   21.4788   23.0051   22.6877 H   0  0  0  0  0  0  0  0  0  0  0  0
   21.0442   21.8577   24.0864 H   0  0  0  0  0  0  0  0  0  0  0  0
   21.0844   20.9983   22.1504 C   0  0  0  0  0  0  0  0  0  0  0  0
   21.2531   21.1657   21.0868 H   0  0  0  0  0  0  0  0  0  0  0  0
   20.7146   19.5836   22.5371 C   0  0  0  0  0  0  0  0  0  0  0  0
   20.8170   19.4469   23.6221 H   0  0  0  0  0  0  0  0  0  0  0  0
   21.4147   18.8858   22.0598 H   0  0  0  0  0  0  0  0  0  0  0  0
   19.2675   19.2518   22.1093 C   0  0  0  0  0  0  0  0  0  0  0  0
   18.5933   20.0188   22.5146 H   0  0  0  0  0  0  0  0  0  0  0  0
   19.1843   19.3151   21.0155 H   0  0  0  0  0  0  0  0  0  0  0  0
   18.7820   17.8633   22.5935 C   0  0  0  0  0  0  0  0  0  0  0  0
   17.7260   17.7412   22.3154 H   0  0  0  0  0  0  0  0  0  0  0  0
   18.8167   17.8304   23.6908 H   0  0  0  0  0  0  0  0  0  0  0  0
   19.5894   16.6656   22.0225 C   0  0  0  0  0  0  0  0  0  0  0  0
   20.6359   16.7154   22.3441 H   0  0  0  0  0  0  0  0  0  0  0  0
   19.1853   15.7301   22.4266 H   0  0  0  0  0  0  0  0  0  0  0  0
   19.5503   16.5568   20.5008 C   0  0  0  0  0  0  0  0  0  0  0  0
   18.5138   16.1949   19.9793 O   0  5  0  0  0  0  0  0  0  0  0  0
   20.5608   16.8188   19.8785 O   0  0  0  0  0  0  0  0  0  0  0  0
  1  2  1  0  0  0  0
  1  3  1  0  0  0  0
  1  4  2  0  0  0  0
  4  5  1  0  0  0  0
  4  6  1  0  0  0  0
  6  7  1  0  0  0  0
  6  8  1  0  0  0  0
  6  9  1  0  0  0  0
  9 10  1  0  0  0  0
  9 11  1  0  0  0  0
  9 12  1  0  0  0  0
 12 13  1  0  0  0  0
 12 14  1  0  0  0  0
 12 15  1  0  0  0  0
 15 16  1  0  0  0  0
 15 17  1  0  0  0  0
 15 18  1  0  0  0  0
 18 19  1  0  0  0  0
 18 20  2  0  0  0  0
M  END
> <VConfSearch Rank>
709

> <Conf_Id>
84

> <Delta U+W>
0.942

> <U+W>
-50.803

> <U>
10.196

> <W>
-60.999

> <W(PB)>
-63.182

> <W(SA)>
2.182

> <Valence>
9.837

> <Coulomb>
0.032

> <VdW>
0.328

> <VdW6>
-7.642

> <VdW12>
7.969

> <Bond>
0.151

> <Angle>
2.748

> <Pdih>
6.937

> <Idih>
0.001

> <Tether>
0.000

$$$$
VeraChem MOL file


 20 19  0  0  0  0  0  0  0  0999 V2000     
   16.2143   19.5586   21.6042 C   0  0  0  0  0  0  0  0  0  0  0  0
   15.2737   19.8959   22.0365 H   0  0  0  0  0  0  0  0  0  0  0  0
   16.4242   19.8457   20.5751 H   0  0  0  0  0  0  0  0  0  0  0  0
   17.0753   18.8237   22.3129 C   0  0  0  0  0  0  0  0  0  0  0  0
   16.8465   18.5478   23.3420 H   0  0  0  0  0  0  0  0  0  0  0  0
   18.3980   18.3192   21.7804 C   0  0  0  0  0  0  0  0  0  0  0  0
   18.4297   18.4168   20.6866 H   0  0  0  0  0  0  0  0  0  0  0  0
   18.5003   17.2491   22.0054 H   0  0  0  0  0  0  0  0  0  0  0  0
   19.5801   19.0940   22.3994 C   0  0  0  0  0  0  0  0  0  0  0  0
   19.4680   20.1641   22.1759 H   0  0  0  0  0  0  0  0  0  0  0  0
   19.5514   18.9934   23.4931 H   0  0  0  0  0  0  0  0  0  0  0  0
   20.9402   18.5879   21.8678 C   0  0  0  0  0  0  0  0  0  0  0  0
   20.9778   18.7002   20.7753 H   0  0  0  0  0  0  0  0  0  0  0  0
   21.0347   17.5141   22.0787 H   0  0  0  0  0  0  0  0  0  0  0  0
   22.1431   19.3330   22.5023 C   0  0  0  0  0  0  0  0  0  0  0  0
   22.1047   19.2530   23.5954 H   0  0  0  0  0  0  0  0  0  0  0  0
   23.0783   18.8588   22.1820 H   0  0  0  0  0  0  0  0  0  0  0  0
   22.2276   20.8092   22.1245 C   0  0  0  0  0  0  0  0  0  0  0  0
   21.9082   21.6357   22.9563 O   0  5  0  0  0  0  0  0  0  0  0  0
   22.6236   21.0933   21.0112 O   0  0  0  0  0  0  0  0  0  0  0  0
  1  2  1  0  0  0  0
  1  3  1  0  0  0  0
  1  4  2  0  0  0  0
  4  5  1  0  0  0  0
  4  6  1  0  0  0  0
  6  7  1  0  0  0  0
  6  8  1  0  0  0  0
  6  9  1  0  0  0  0
  9 10  1  0  0  0  0
  9 11  1  0  0  0  0
  9 12  1  0  0  0  0
 12 13  1  0  0  0  0
 12 14  1  0  0  0  0
 12 15  1  0  0  0  0
 15 16  1  0  0  0  0
 15 17  1  0  0  0  0
 15 18  1  0  0  0  0
 18 19  1  0  0  0  0
 18 20  2  0  0  0  0
M  END
> <VConfSearch Rank>
710

> <Conf_Id>
81

> <Delta U+W>
-0.051

> <U+W>
-51.796

> <U>
9.412

> <W>
-61.209

> <W(PB)>
-63.452

> <W(SA)>
2.243

> <Valence>
9.329

> <Coulomb>
-0.323

> <VdW>
0.406

> <VdW6>
-6.640

> <VdW12>
7.046

> <Bond>
0.105

> <Angle>
2.401

> <Pdih>
6.823

> <Idih>
0.000

> <Tether>
0.000

$$$$
VeraChem MOL file


 20 19  0  0  0  0  0  0  0  0999 V2000     
   22.8177   18.9461   22.6933 C   0  0  0  0  0  0  0  0  0  0  0  0
   22.9438   18.2873   23.5510 H   0  0  0  0  0  0  0  0  0  0  0  0
   23.7047   19.1821   22.1078 H   0  0  0  0  0  0  0  0  0  0  0  0
   21.6225   19.4449   22.3670 C   0  0  0  0  0  0  0  0  0  0  0  0
   21.5183   20.1044   21.5060 H   0  0  0  0  0  0  0  0  0  0  0  0
   20.3485   19.1659   23.1355 C   0  0  0  0  0  0  0  0  0  0  0  0
   19.7857   20.0968   23.2824 H   0  0  0  0  0  0  0  0  0  0  0  0
   20.5954   18.8037   24.1425 H   0  0  0  0  0  0  0  0  0  0  0  0
   19.4571   18.1101   22.4389 C   0  0  0  0  0  0  0  0  0  0  0  0
   20.0104   17.1628   22.3813 H   0  0  0  0  0  0  0  0  0  0  0  0
   18.5802   17.9122   23.0703 H   0  0  0  0  0  0  0  0  0  0  0  0
   18.9839   18.4992   21.0145 C   0  0  0  0  0  0  0  0  0  0  0  0
   18.3853   17.6739   20.6050 H   0  0  0  0  0  0  0  0  0  0  0  0
   19.8550   18.5992   20.3536 H   0  0  0  0  0  0  0  0  0  0  0  0
   18.1431   19.8035   20.9505 C   0  0  0  0  0  0  0  0  0  0  0  0
   18.7372   20.6627   21.2820 H   0  0  0  0  0  0  0  0  0  0  0  0
   17.8622   20.0036   19.9100 H   0  0  0  0  0  0  0  0  0  0  0  0
   16.8553   19.7550   21.7677 C   0  0  0  0  0  0  0  0  0  0  0  0
   16.7935   20.4156   22.7860 O   0  5  0  0  0  0  0  0  0  0  0  0
   15.9403   19.0702   21.3538 O   0  0  0  0  0  0  0  0  0  0  0  0
  1  2  1  0  0  0  0
  1  3  1  0  0  0  0
  1  4  2  0  0  0  0
  4  5  1  0  0  0  0
  4  6  1  0  0  0  0
  6  7  1  0  0  0  0
  6  8  1  0  0  0  0
  6  9  1  0  0  0  0
  9 10  1  0  0  0  0
  9 11  1  0  0  0  0
  9 12  1  0  0  0  0
 12 13  1  0  0  0  0
 12 14  1  0  0  0  0
 12 15  1  0  0  0  0
 15 16  1  0  0  0  0
 15 17  1  0  0  0  0
 15 18  1  0  0  0  0
 18 19  1  0  0  0  0
 18 20  2  0  0  0  0
M  END
> <VConfSearch Rank>
711

> <Conf_Id>
86

> <Delta U+W>
1.248

> <U+W>
-50.498

> <U>
10.404

> <W>
-60.901

> <W(PB)>
-63.061

> <W(SA)>
2.159

> <Valence>
10.021

> <Coulomb>
0.094

> <VdW>
0.289

> <VdW6>
-8.409

> <VdW12>
8.698

> <Bond>
0.179

> <Angle>
2.939

> <Pdih>
6.902

> <Idih>
0.001

> <Tether>
0.000

$$$$
VeraChem MOL file


 20 19  0  0  0  0  0  0  0  0999 V2000     
   19.8825   21.7974   20.5072 C   0  0  0  0  0  0  0  0  0  0  0  0
   19.2388   22.6618   20.3537 H   0  0  0  0  0  0  0  0  0  0  0  0
   20.8635   21.9744   20.9450 H   0  0  0  0  0  0  0  0  0  0  0  0
   19.4793   20.5685   20.1735 C   0  0  0  0  0  0  0  0  0  0  0  0
   18.4925   20.4125   19.7386 H   0  0  0  0  0  0  0  0  0  0  0  0
   20.3167   19.3206   20.3572 C   0  0  0  0  0  0  0  0  0  0  0  0
   21.3539   19.5837   20.6055 H   0  0  0  0  0  0  0  0  0  0  0  0
   20.3555   18.7719   19.4068 H   0  0  0  0  0  0  0  0  0  0  0  0
   19.7463   18.3868   21.4484 C   0  0  0  0  0  0  0  0  0  0  0  0
   18.7077   18.1264   21.2029 H   0  0  0  0  0  0  0  0  0  0  0  0
   20.3148   17.4467   21.4402 H   0  0  0  0  0  0  0  0  0  0  0  0
   19.8095   19.0123   22.8621 C   0  0  0  0  0  0  0  0  0  0  0  0
   19.2359   19.9488   22.8735 H   0  0  0  0  0  0  0  0  0  0  0  0
   20.8479   19.2762   23.1058 H   0  0  0  0  0  0  0  0  0  0  0  0
   19.2475   18.0692   23.9574 C   0  0  0  0  0  0  0  0  0  0  0  0
   19.2023   18.6043   24.9132 H   0  0  0  0  0  0  0  0  0  0  0  0
   18.2210   17.7720   23.7109 H   0  0  0  0  0  0  0  0  0  0  0  0
   20.0800   16.8095   24.1786 C   0  0  0  0  0  0  0  0  0  0  0  0
   21.1201   16.9123   24.7988 O   0  5  0  0  0  0  0  0  0  0  0  0
   19.6619   15.7578   23.7357 O   0  0  0  0  0  0  0  0  0  0  0  0
  1  2  1  0  0  0  0
  1  3  1  0  0  0  0
  1  4  2  0  0  0  0
  4  5  1  0  0  0  0
  4  6  1  0  0  0  0
  6  7  1  0  0  0  0
  6  8  1  0  0  0  0
  6  9  1  0  0  0  0
  9 10  1  0  0  0  0
  9 11  1  0  0  0  0
  9 12  1  0  0  0  0
 12 13  1  0  0  0  0
 12 14  1  0  0  0  0
 12 15  1  0  0  0  0
 15 16  1  0  0  0  0
 15 17  1  0  0  0  0
 15 18  1  0  0  0  0
 18 19  1  0  0  0  0
 18 20  2  0  0  0  0
M  END
> <VConfSearch Rank>
712

> <Conf_Id>
28

> <Delta U+W>
0.446

> <U+W>
-51.299

> <U>
9.295

> <W>
-60.594

> <W(PB)>
-62.806

> <W(SA)>
2.212

> <Valence>
9.495

> <Coulomb>
-0.610

> <VdW>
0.409

> <VdW6>
-7.332

> <VdW12>
7.741

> <Bond>
0.126

> <Angle>
2.497

> <Pdih>
6.872

> <Idih>
0.000

> <Tether>
0.000

$$$$
VeraChem MOL file


 20 19  0  0  0  0  0  0  0  0999 V2000     
   21.5114   16.7495   21.3439 C   0  0  0  0  0  0  0  0  0  0  0  0
   21.0537   17.1415   20.4382 H   0  0  0  0  0  0  0  0  0  0  0  0
   22.2483   15.9579   21.2190 H   0  0  0  0  0  0  0  0  0  0  0  0
   21.2002   17.2072   22.5619 C   0  0  0  0  0  0  0  0  0  0  0  0
   21.6945   16.7761   23.4321 H   0  0  0  0  0  0  0  0  0  0  0  0
   20.1970   18.2995   22.8936 C   0  0  0  0  0  0  0  0  0  0  0  0
   20.7319   19.1239   23.3824 H   0  0  0  0  0  0  0  0  0  0  0  0
   19.4926   17.9137   23.6425 H   0  0  0  0  0  0  0  0  0  0  0  0
   19.3977   18.8420   21.6830 C   0  0  0  0  0  0  0  0  0  0  0  0
   20.0861   19.3110   20.9666 H   0  0  0  0  0  0  0  0  0  0  0  0
   18.9252   17.9995   21.1599 H   0  0  0  0  0  0  0  0  0  0  0  0
   18.2895   19.8500   22.0764 C   0  0  0  0  0  0  0  0  0  0  0  0
   17.5773   19.3591   22.7532 H   0  0  0  0  0  0  0  0  0  0  0  0
   17.7212   20.1190   21.1753 H   0  0  0  0  0  0  0  0  0  0  0  0
   18.8103   21.1527   22.7432 C   0  0  0  0  0  0  0  0  0  0  0  0
   17.9592   21.7960   22.9950 H   0  0  0  0  0  0  0  0  0  0  0  0
   19.3187   20.9282   23.6876 H   0  0  0  0  0  0  0  0  0  0  0  0
   19.7514   21.9708   21.8634 C   0  0  0  0  0  0  0  0  0  0  0  0
   19.2812   22.5438   20.9000 O   0  5  0  0  0  0  0  0  0  0  0  0
   20.9243   22.0312   22.1755 O   0  0  0  0  0  0  0  0  0  0  0  0
  1  2  1  0  0  0  0
  1  3  1  0  0  0  0
  1  4  2  0  0  0  0
  4  5  1  0  0  0  0
  4  6  1  0  0  0  0
  6  7  1  0  0  0  0
  6  8  1  0  0  0  0
  6  9  1  0  0  0  0
  9 10  1  0  0  0  0
  9 11  1  0  0  0  0
  9 12  1  0  0  0  0
 12 13  1  0  0  0  0
 12 14  1  0  0  0  0
 12 15  1  0  0  0  0
 15 16  1  0  0  0  0
 15 17  1  0  0  0  0
 15 18  1  0  0  0  0
 18 19  1  0  0  0  0
 18 20  2  0  0  0  0
M  END
> <VConfSearch Rank>
713

> <Conf_Id>
53

> <Delta U+W>
0.549

> <U+W>
-51.197

> <U>
10.870

> <W>
-62.067

> <W(PB)>
-64.228

> <W(SA)>
2.161

> <Valence>
8.803

> <Coulomb>
1.020

> <VdW>
1.048

> <VdW6>
-8.312

> <VdW12>
9.360

> <Bond>
0.212

> <Angle>
3.379

> <Pdih>
5.211

> <Idih>
0.001

> <Tether>
0.000

$$$$
VeraChem MOL file


 20 19  0  0  0  0  0  0  0  0999 V2000     
   19.9607   19.6902   19.3840 C   0  0  0  0  0  0  0  0  0  0  0  0
   21.0082   19.5850   19.6575 H   0  0  0  0  0  0  0  0  0  0  0  0
   19.7230   20.4159   18.6082 H   0  0  0  0  0  0  0  0  0  0  0  0
   18.9976   18.9634   19.9610 C   0  0  0  0  0  0  0  0  0  0  0  0
   17.9637   19.1058   19.6478 H   0  0  0  0  0  0  0  0  0  0  0  0
   19.1843   17.9246   21.0546 C   0  0  0  0  0  0  0  0  0  0  0  0
   19.1934   16.9276   20.5949 H   0  0  0  0  0  0  0  0  0  0  0  0
   18.2984   17.9251   21.7025 H   0  0  0  0  0  0  0  0  0  0  0  0
   20.4486   18.0905   21.9375 C   0  0  0  0  0  0  0  0  0  0  0  0
   20.5029   17.2418   22.6330 H   0  0  0  0  0  0  0  0  0  0  0  0
   21.3455   18.0138   21.3089 H   0  0  0  0  0  0  0  0  0  0  0  0
   20.5044   19.4099   22.7516 C   0  0  0  0  0  0  0  0  0  0  0  0
   20.5248   20.2665   22.0658 H   0  0  0  0  0  0  0  0  0  0  0  0
   21.4525   19.4412   23.3058 H   0  0  0  0  0  0  0  0  0  0  0  0
   19.3350   19.5969   23.7566 C   0  0  0  0  0  0  0  0  0  0  0  0
   19.4556   20.5529   24.2791 H   0  0  0  0  0  0  0  0  0  0  0  0
   18.3769   19.6525   23.2274 H   0  0  0  0  0  0  0  0  0  0  0  0
   19.2451   18.5062   24.8198 C   0  0  0  0  0  0  0  0  0  0  0  0
   18.3327   17.7064   24.7495 O   0  5  0  0  0  0  0  0  0  0  0  0
   20.0813   18.4964   25.7020 O   0  0  0  0  0  0  0  0  0  0  0  0
  1  2  1  0  0  0  0
  1  3  1  0  0  0  0
  1  4  2  0  0  0  0
  4  5  1  0  0  0  0
  4  6  1  0  0  0  0
  6  7  1  0  0  0  0
  6  8  1  0  0  0  0
  6  9  1  0  0  0  0
  9 10  1  0  0  0  0
  9 11  1  0  0  0  0
  9 12  1  0  0  0  0
 12 13  1  0  0  0  0
 12 14  1  0  0  0  0
 12 15  1  0  0  0  0
 15 16  1  0  0  0  0
 15 17  1  0  0  0  0
 15 18  1  0  0  0  0
 18 19  1  0  0  0  0
 18 20  2  0  0  0  0
M  END
> <VConfSearch Rank>
714

> <Conf_Id>
66

> <Delta U+W>
1.737

> <U+W>
-50.008

> <U>
11.091

> <W>
-61.099

> <W(PB)>
-63.213

> <W(SA)>
2.114

> <Valence>
9.664

> <Coulomb>
0.658

> <VdW>
0.769

> <VdW6>
-9.171

> <VdW12>
9.940

> <Bond>
0.244

> <Angle>
3.658

> <Pdih>
5.762

> <Idih>
0.001

> <Tether>
0.000

$$$$
VeraChem MOL file


 20 19  0  0  0  0  0  0  0  0999 V2000     
   21.9399   18.0886   22.8684 C   0  0  0  0  0  0  0  0  0  0  0  0
   21.9375   17.7444   21.8366 H   0  0  0  0  0  0  0  0  0  0  0  0
   22.9023   18.3688   23.2930 H   0  0  0  0  0  0  0  0  0  0  0  0
   20.8213   18.1644   23.5977 C   0  0  0  0  0  0  0  0  0  0  0  0
   20.8818   18.5139   24.6279 H   0  0  0  0  0  0  0  0  0  0  0  0
   19.4158   17.8137   23.1371 C   0  0  0  0  0  0  0  0  0  0  0  0
   18.7030   18.4894   23.6260 H   0  0  0  0  0  0  0  0  0  0  0  0
   19.1617   16.8155   23.5172 H   0  0  0  0  0  0  0  0  0  0  0  0
   19.1750   17.8507   21.6051 C   0  0  0  0  0  0  0  0  0  0  0  0
   19.8454   17.1336   21.1133 H   0  0  0  0  0  0  0  0  0  0  0  0
   18.1570   17.4924   21.4004 H   0  0  0  0  0  0  0  0  0  0  0  0
   19.3497   19.2470   20.9553 C   0  0  0  0  0  0  0  0  0  0  0  0
   19.2415   19.1423   19.8669 H   0  0  0  0  0  0  0  0  0  0  0  0
   20.3673   19.6217   21.1279 H   0  0  0  0  0  0  0  0  0  0  0  0
   18.3248   20.2970   21.4574 C   0  0  0  0  0  0  0  0  0  0  0  0
   17.3033   19.9169   21.3386 H   0  0  0  0  0  0  0  0  0  0  0  0
   18.4754   20.5022   22.5233 H   0  0  0  0  0  0  0  0  0  0  0  0
   18.4247   21.6224   20.7108 C   0  0  0  0  0  0  0  0  0  0  0  0
   19.1548   22.4829   21.1617 O   0  5  0  0  0  0  0  0  0  0  0  0
   17.7801   21.7547   19.6891 O   0  0  0  0  0  0  0  0  0  0  0  0
  1  2  1  0  0  0  0
  1  3  1  0  0  0  0
  1  4  2  0  0  0  0
  4  5  1  0  0  0  0
  4  6  1  0  0  0  0
  6  7  1  0  0  0  0
  6  8  1  0  0  0  0
  6  9  1  0  0  0  0
  9 10  1  0  0  0  0
  9 11  1  0  0  0  0
  9 12  1  0  0  0  0
 12 13  1  0  0  0  0
 12 14  1  0  0  0  0
 12 15  1  0  0  0  0
 15 16  1  0  0  0  0
 15 17  1  0  0  0  0
 15 18  1  0  0  0  0
 18 19  1  0  0  0  0
 18 20  2  0  0  0  0
M  END
> <VConfSearch Rank>
715

> <Conf_Id>
64

> <Delta U+W>
0.366

> <U+W>
-51.379

> <U>
10.000

> <W>
-61.379

> <W(PB)>
-63.541

> <W(SA)>
2.162

> <Valence>
9.398

> <Coulomb>
-0.504

> <VdW>
1.105

> <VdW6>
-7.975

> <VdW12>
9.080

> <Bond>
0.216

> <Angle>
3.417

> <Pdih>
5.765

> <Idih>
0.001

> <Tether>
0.000

$$$$
VeraChem MOL file


 20 19  0  0  0  0  0  0  0  0999 V2000     
   21.1529   17.8332   19.5940 C   0  0  0  0  0  0  0  0  0  0  0  0
   20.2080   17.9971   19.0785 H   0  0  0  0  0  0  0  0  0  0  0  0
   21.6688   16.8929   19.4079 H   0  0  0  0  0  0  0  0  0  0  0  0
   21.6606   18.7462   20.4263 C   0  0  0  0  0  0  0  0  0  0  0  0
   22.6067   18.5615   20.9344 H   0  0  0  0  0  0  0  0  0  0  0  0
   21.0018   20.0738   20.7350 C   0  0  0  0  0  0  0  0  0  0  0  0
   20.1741   20.2659   20.0388 H   0  0  0  0  0  0  0  0  0  0  0  0
   21.7304   20.8805   20.5798 H   0  0  0  0  0  0  0  0  0  0  0  0
   20.4807   20.1454   22.1881 C   0  0  0  0  0  0  0  0  0  0  0  0
   21.3084   19.9526   22.8843 H   0  0  0  0  0  0  0  0  0  0  0  0
   20.1316   21.1674   22.3897 H   0  0  0  0  0  0  0  0  0  0  0  0
   19.3273   19.1521   22.4576 C   0  0  0  0  0  0  0  0  0  0  0  0
   19.6719   18.1232   22.2852 H   0  0  0  0  0  0  0  0  0  0  0  0
   18.5078   19.3356   21.7491 H   0  0  0  0  0  0  0  0  0  0  0  0
   18.7899   19.2721   23.9050 C   0  0  0  0  0  0  0  0  0  0  0  0
   19.5946   19.0790   24.6245 H   0  0  0  0  0  0  0  0  0  0  0  0
   18.4255   20.2895   24.0908 H   0  0  0  0  0  0  0  0  0  0  0  0
   17.6509   18.3014   24.1957 C   0  0  0  0  0  0  0  0  0  0  0  0
   16.5156   18.6599   23.9521 O   0  5  0  0  0  0  0  0  0  0  0  0
   17.9298   17.2073   24.6450 O   0  0  0  0  0  0  0  0  0  0  0  0
  1  2  1  0  0  0  0
  1  3  1  0  0  0  0
  1  4  2  0  0  0  0
  4  5  1  0  0  0  0
  4  6  1  0  0  0  0
  6  7  1  0  0  0  0
  6  8  1  0  0  0  0
  6  9  1  0  0  0  0
  9 10  1  0  0  0  0
  9 11  1  0  0  0  0
  9 12  1  0  0  0  0
 12 13  1  0  0  0  0
 12 14  1  0  0  0  0
 12 15  1  0  0  0  0
 15 16  1  0  0  0  0
 15 17  1  0  0  0  0
 15 18  1  0  0  0  0
 18 19  1  0  0  0  0
 18 20  2  0  0  0  0
M  END
> <VConfSearch Rank>
716

> <Conf_Id>
42

> <Delta U+W>
-0.601

> <U+W>
-52.347

> <U>
8.428

> <W>
-60.774

> <W(PB)>
-62.982

> <W(SA)>
2.208

> <Valence>
9.231

> <Coulomb>
-1.304

> <VdW>
0.501

> <VdW6>
-6.515

> <VdW12>
7.016

> <Bond>
0.103

> <Angle>
2.328

> <Pdih>
6.799

> <Idih>
0.000

> <Tether>
0.000

$$$$
VeraChem MOL file


 20 19  0  0  0  0  0  0  0  0999 V2000     
   20.5635   21.8852   23.2091 C   0  0  0  0  0  0  0  0  0  0  0  0
   19.6456   22.0355   23.7750 H   0  0  0  0  0  0  0  0  0  0  0  0
   21.0221   22.7622   22.7557 H   0  0  0  0  0  0  0  0  0  0  0  0
   21.1067   20.6729   23.0707 C   0  0  0  0  0  0  0  0  0  0  0  0
   22.0245   20.5435   22.4976 H   0  0  0  0  0  0  0  0  0  0  0  0
   20.5272   19.4090   23.6695 C   0  0  0  0  0  0  0  0  0  0  0  0
   19.7278   19.6504   24.3832 H   0  0  0  0  0  0  0  0  0  0  0  0
   21.3085   18.8924   24.2427 H   0  0  0  0  0  0  0  0  0  0  0  0
   19.9825   18.4464   22.5903 C   0  0  0  0  0  0  0  0  0  0  0  0
   20.7854   18.2009   21.8815 H   0  0  0  0  0  0  0  0  0  0  0  0
   19.6900   17.5027   23.0707 H   0  0  0  0  0  0  0  0  0  0  0  0
   18.7671   19.0281   21.8304 C   0  0  0  0  0  0  0  0  0  0  0  0
   19.0567   19.9516   21.3100 H   0  0  0  0  0  0  0  0  0  0  0  0
   17.9875   19.3049   22.5528 H   0  0  0  0  0  0  0  0  0  0  0  0
   18.1722   18.0293   20.8041 C   0  0  0  0  0  0  0  0  0  0  0  0
   17.8988   17.0913   21.3022 H   0  0  0  0  0  0  0  0  0  0  0  0
   17.2498   18.4446   20.3812 H   0  0  0  0  0  0  0  0  0  0  0  0
   19.1049   17.7082   19.6397 C   0  0  0  0  0  0  0  0  0  0  0  0
   19.6897   16.6428   19.6473 O   0  5  0  0  0  0  0  0  0  0  0  0
   19.2076   18.5256   18.7462 O   0  0  0  0  0  0  0  0  0  0  0  0
  1  2  1  0  0  0  0
  1  3  1  0  0  0  0
  1  4  2  0  0  0  0
  4  5  1  0  0  0  0
  4  6  1  0  0  0  0
  6  7  1  0  0  0  0
  6  8  1  0  0  0  0
  6  9  1  0  0  0  0
  9 10  1  0  0  0  0
  9 11  1  0  0  0  0
  9 12  1  0  0  0  0
 12 13  1  0  0  0  0
 12 14  1  0  0  0  0
 12 15  1  0  0  0  0
 15 16  1  0  0  0  0
 15 17  1  0  0  0  0
 15 18  1  0  0  0  0
 18 19  1  0  0  0  0
 18 20  2  0  0  0  0
M  END
> <VConfSearch Rank>
717

> <Conf_Id>
68

> <Delta U+W>
0.492

> <U+W>
-51.253

> <U>
10.179

> <W>
-61.432

> <W(PB)>
-63.627

> <W(SA)>
2.195

> <Valence>
9.483

> <Coulomb>
0.361

> <VdW>
0.335

> <VdW6>
-7.385

> <VdW12>
7.720

> <Bond>
0.125

> <Angle>
2.487

> <Pdih>
6.870

> <Idih>
0.001

> <Tether>
0.000

$$$$
VeraChem MOL file


 20 19  0  0  0  0  0  0  0  0999 V2000     
   19.5285   16.9899   24.3518 C   0  0  0  0  0  0  0  0  0  0  0  0
   20.3390   16.3201   24.0689 H   0  0  0  0  0  0  0  0  0  0  0  0
   18.6597   16.5484   24.8370 H   0  0  0  0  0  0  0  0  0  0  0  0
   19.5922   18.3021   24.1116 C   0  0  0  0  0  0  0  0  0  0  0  0
   18.7708   18.9550   24.4055 H   0  0  0  0  0  0  0  0  0  0  0  0
   20.7683   18.9861   23.4477 C   0  0  0  0  0  0  0  0  0  0  0  0
   21.6548   18.3404   23.5080 H   0  0  0  0  0  0  0  0  0  0  0  0
   21.0211   19.9065   23.9908 H   0  0  0  0  0  0  0  0  0  0  0  0
   20.4956   19.3149   21.9626 C   0  0  0  0  0  0  0  0  0  0  0  0
   21.4231   19.6865   21.5059 H   0  0  0  0  0  0  0  0  0  0  0  0
   20.2322   18.3914   21.4284 H   0  0  0  0  0  0  0  0  0  0  0  0
   19.3795   20.3699   21.7752 C   0  0  0  0  0  0  0  0  0  0  0  0
   19.6304   21.2695   22.3533 H   0  0  0  0  0  0  0  0  0  0  0  0
   18.4306   19.9894   22.1770 H   0  0  0  0  0  0  0  0  0  0  0  0
   19.1791   20.7662   20.2894 C   0  0  0  0  0  0  0  0  0  0  0  0
   18.4641   21.5948   20.2245 H   0  0  0  0  0  0  0  0  0  0  0  0
   20.1226   21.1271   19.8623 H   0  0  0  0  0  0  0  0  0  0  0  0
   18.6489   19.6354   19.4125 C   0  0  0  0  0  0  0  0  0  0  0  0
   17.4656   19.3662   19.4793 O   0  5  0  0  0  0  0  0  0  0  0  0
   19.4276   19.0671   18.6723 O   0  0  0  0  0  0  0  0  0  0  0  0
  1  2  1  0  0  0  0
  1  3  1  0  0  0  0
  1  4  2  0  0  0  0
  4  5  1  0  0  0  0
  4  6  1  0  0  0  0
  6  7  1  0  0  0  0
  6  8  1  0  0  0  0
  6  9  1  0  0  0  0
  9 10  1  0  0  0  0
  9 11  1  0  0  0  0
  9 12  1  0  0  0  0
 12 13  1  0  0  0  0
 12 14  1  0  0  0  0
 12 15  1  0  0  0  0
 15 16  1  0  0  0  0
 15 17  1  0  0  0  0
 15 18  1  0  0  0  0
 18 19  1  0  0  0  0
 18 20  2  0  0  0  0
M  END
> <VConfSearch Rank>
718

> <Conf_Id>
87

> <Delta U+W>
0.339

> <U+W>
-51.407

> <U>
10.461

> <W>
-61.867

> <W(PB)>
-64.045

> <W(SA)>
2.178

> <Valence>
9.555

> <Coulomb>
0.483

> <VdW>
0.423

> <VdW6>
-7.223

> <VdW12>
7.646

> <Bond>
0.126

> <Angle>
2.492

> <Pdih>
6.936

> <Idih>
0.001

> <Tether>
0.000

$$$$
VeraChem MOL file


 20 19  0  0  0  0  0  0  0  0999 V2000     
   16.7836   18.7513   22.3693 C   0  0  0  0  0  0  0  0  0  0  0  0
   16.5303   17.7839   21.9387 H   0  0  0  0  0  0  0  0  0  0  0  0
   16.2366   19.0649   23.2567 H   0  0  0  0  0  0  0  0  0  0  0  0
   17.7308   19.5246   21.8321 C   0  0  0  0  0  0  0  0  0  0  0  0
   17.9638   20.4936   22.2721 H   0  0  0  0  0  0  0  0  0  0  0  0
   18.5207   19.1580   20.5939 C   0  0  0  0  0  0  0  0  0  0  0  0
   18.9695   20.0561   20.1491 H   0  0  0  0  0  0  0  0  0  0  0  0
   17.8238   18.7686   19.8395 H   0  0  0  0  0  0  0  0  0  0  0  0
   19.6133   18.0903   20.8497 C   0  0  0  0  0  0  0  0  0  0  0  0
   19.2048   17.2734   21.4601 H   0  0  0  0  0  0  0  0  0  0  0  0
   19.8779   17.6405   19.8831 H   0  0  0  0  0  0  0  0  0  0  0  0
   20.9173   18.6313   21.4886 C   0  0  0  0  0  0  0  0  0  0  0  0
   21.3153   19.4571   20.8830 H   0  0  0  0  0  0  0  0  0  0  0  0
   21.6731   17.8344   21.4559 H   0  0  0  0  0  0  0  0  0  0  0  0
   20.7612   19.0953   22.9595 C   0  0  0  0  0  0  0  0  0  0  0  0
   20.1285   19.9867   23.0167 H   0  0  0  0  0  0  0  0  0  0  0  0
   20.2782   18.3120   23.5556 H   0  0  0  0  0  0  0  0  0  0  0  0
   22.0944   19.4363   23.6151 C   0  0  0  0  0  0  0  0  0  0  0  0
   22.5136   20.5719   23.5072 O   0  5  0  0  0  0  0  0  0  0  0  0
   22.6896   18.5521   24.1988 O   0  0  0  0  0  0  0  0  0  0  0  0
  1  2  1  0  0  0  0
  1  3  1  0  0  0  0
  1  4  2  0  0  0  0
  4  5  1  0  0  0  0
  4  6  1  0  0  0  0
  6  7  1  0  0  0  0
  6  8  1  0  0  0  0
  6  9  1  0  0  0  0
  9 10  1  0  0  0  0
  9 11  1  0  0  0  0
  9 12  1  0  0  0  0
 12 13  1  0  0  0  0
 12 14  1  0  0  0  0
 12 15  1  0  0  0  0
 15 16  1  0  0  0  0
 15 17  1  0  0  0  0
 15 18  1  0  0  0  0
 18 19  1  0  0  0  0
 18 20  2  0  0  0  0
M  END
> <VConfSearch Rank>
719

> <Conf_Id>
51

> <Delta U+W>
1.709

> <U+W>
-50.036

> <U>
10.643

> <W>
-60.679

> <W(PB)>
-62.882

> <W(SA)>
2.203

> <Valence>
11.231

> <Coulomb>
-1.077

> <VdW>
0.489

> <VdW6>
-7.546

> <VdW12>
8.035

> <Bond>
0.159

> <Angle>
3.005

> <Pdih>
8.065

> <Idih>
0.002

> <Tether>
0.000

$$$$
VeraChem MOL file


 20 19  0  0  0  0  0  0  0  0999 V2000     
   18.3298   21.2352   23.3228 C   0  0  0  0  0  0  0  0  0  0  0  0
   17.2753   21.0596   23.1163 H   0  0  0  0  0  0  0  0  0  0  0  0
   18.6655   22.2693   23.3773 H   0  0  0  0  0  0  0  0  0  0  0  0
   19.1816   20.2219   23.5002 C   0  0  0  0  0  0  0  0  0  0  0  0
   20.2315   20.4179   23.7149 H   0  0  0  0  0  0  0  0  0  0  0  0
   18.7821   18.7625   23.4508 C   0  0  0  0  0  0  0  0  0  0  0  0
   17.8579   18.6351   24.0305 H   0  0  0  0  0  0  0  0  0  0  0  0
   19.5371   18.1442   23.9544 H   0  0  0  0  0  0  0  0  0  0  0  0
   18.5372   18.2356   22.0150 C   0  0  0  0  0  0  0  0  0  0  0  0
   17.9315   17.3222   22.0900 H   0  0  0  0  0  0  0  0  0  0  0  0
   17.9287   18.9546   21.4496 H   0  0  0  0  0  0  0  0  0  0  0  0
   19.8207   17.8842   21.2211 C   0  0  0  0  0  0  0  0  0  0  0  0
   19.5244   17.3591   20.3024 H   0  0  0  0  0  0  0  0  0  0  0  0
   20.4333   17.1760   21.7957 H   0  0  0  0  0  0  0  0  0  0  0  0
   20.6810   19.1117   20.8253 C   0  0  0  0  0  0  0  0  0  0  0  0
   20.0589   19.8684   20.3325 H   0  0  0  0  0  0  0  0  0  0  0  0
   21.1195   19.5769   21.7137 H   0  0  0  0  0  0  0  0  0  0  0  0
   21.8247   18.7515   19.8842 C   0  0  0  0  0  0  0  0  0  0  0  0
   22.8850   18.4131   20.3722 O   0  5  0  0  0  0  0  0  0  0  0  0
   21.6196   18.7989   18.6873 O   0  0  0  0  0  0  0  0  0  0  0  0
  1  2  1  0  0  0  0
  1  3  1  0  0  0  0
  1  4  2  0  0  0  0
  4  5  1  0  0  0  0
  4  6  1  0  0  0  0
  6  7  1  0  0  0  0
  6  8  1  0  0  0  0
  6  9  1  0  0  0  0
  9 10  1  0  0  0  0
  9 11  1  0  0  0  0
  9 12  1  0  0  0  0
 12 13  1  0  0  0  0
 12 14  1  0  0  0  0
 12 15  1  0  0  0  0
 15 16  1  0  0  0  0
 15 17  1  0  0  0  0
 15 18  1  0  0  0  0
 18 19  1  0  0  0  0
 18 20  2  0  0  0  0
M  END
> <VConfSearch Rank>
720

> <Conf_Id>
91

> <Delta U+W>
1.604

> <U+W>
-50.141

> <U>
10.644

> <W>
-60.786

> <W(PB)>
-62.965

> <W(SA)>
2.179

> <Valence>
11.230

> <Coulomb>
-1.075

> <VdW>
0.489

> <VdW6>
-7.547

> <VdW12>
8.036

> <Bond>
0.159

> <Angle>
3.006

> <Pdih>
8.064

> <Idih>
0.002

> <Tether>
0.000

$$$$
VeraChem MOL file


 20 19  0  0  0  0  0  0  0  0999 V2000     
   21.8302   18.5803   24.9374 C   0  0  0  0  0  0  0  0  0  0  0  0
   22.3734   19.4838   24.6649 H   0  0  0  0  0  0  0  0  0  0  0  0
   22.3115   17.8981   25.6362 H   0  0  0  0  0  0  0  0  0  0  0  0
   20.6219   18.3142   24.4346 C   0  0  0  0  0  0  0  0  0  0  0  0
   20.0954   17.4037   24.7199 H   0  0  0  0  0  0  0  0  0  0  0  0
   19.8918   19.2132   23.4618 C   0  0  0  0  0  0  0  0  0  0  0  0
   20.3620   20.2057   23.4348 H   0  0  0  0  0  0  0  0  0  0  0  0
   18.8588   19.3622   23.8034 H   0  0  0  0  0  0  0  0  0  0  0  0
   19.8854   18.6089   22.0420 C   0  0  0  0  0  0  0  0  0  0  0  0
   20.9209   18.4580   21.7068 H   0  0  0  0  0  0  0  0  0  0  0  0
   19.4110   17.6183   22.0687 H   0  0  0  0  0  0  0  0  0  0  0  0
   19.1408   19.5134   21.0358 C   0  0  0  0  0  0  0  0  0  0  0  0
   19.6150   20.5043   21.0082 H   0  0  0  0  0  0  0  0  0  0  0  0
   18.1055   19.6658   21.3711 H   0  0  0  0  0  0  0  0  0  0  0  0
   19.1352   18.9056   19.6078 C   0  0  0  0  0  0  0  0  0  0  0  0
   20.1656   18.7569   19.2642 H   0  0  0  0  0  0  0  0  0  0  0  0
   18.6575   17.9191   19.6267 H   0  0  0  0  0  0  0  0  0  0  0  0
   18.4165   19.7401   18.5464 C   0  0  0  0  0  0  0  0  0  0  0  0
   18.3901   19.2957   17.4160 O   0  5  0  0  0  0  0  0  0  0  0  0
   17.9046   20.7986   18.8564 O   0  0  0  0  0  0  0  0  0  0  0  0
  1  2  1  0  0  0  0
  1  3  1  0  0  0  0
  1  4  2  0  0  0  0
  4  5  1  0  0  0  0
  4  6  1  0  0  0  0
  6  7  1  0  0  0  0
  6  8  1  0  0  0  0
  6  9  1  0  0  0  0
  9 10  1  0  0  0  0
  9 11  1  0  0  0  0
  9 12  1  0  0  0  0
 12 13  1  0  0  0  0
 12 14  1  0  0  0  0
 12 15  1  0  0  0  0
 15 16  1  0  0  0  0
 15 17  1  0  0  0  0
 15 18  1  0  0  0  0
 18 19  1  0  0  0  0
 18 20  2  0  0  0  0
M  END
> <VConfSearch Rank>
721

> <Conf_Id>
33

> <Delta U+W>
0.000

> <U+W>
-51.745

> <U>
7.593

> <W>
-59.338

> <W(PB)>
-61.574

> <W(SA)>
2.236

> <Valence>
9.570

> <Coulomb>
-3.091

> <VdW>
1.114

> <VdW6>
-6.064

> <VdW12>
7.178

> <Bond>
0.117

> <Angle>
2.692

> <Pdih>
6.761

> <Idih>
0.000

> <Tether>
0.000

$$$$
VeraChem MOL file


 20 19  0  0  0  0  0  0  0  0999 V2000     
   21.5905   16.2651   20.5144 C   0  0  0  0  0  0  0  0  0  0  0  0
   22.4437   16.9281   20.3804 H   0  0  0  0  0  0  0  0  0  0  0  0
   21.6457   15.2789   20.0565 H   0  0  0  0  0  0  0  0  0  0  0  0
   20.5153   16.6436   21.2102 C   0  0  0  0  0  0  0  0  0  0  0  0
   19.6713   15.9650   21.3318 H   0  0  0  0  0  0  0  0  0  0  0  0
   20.3674   17.9946   21.8741 C   0  0  0  0  0  0  0  0  0  0  0  0
   21.3404   18.5022   21.9229 H   0  0  0  0  0  0  0  0  0  0  0  0
   20.0315   17.8522   22.9090 H   0  0  0  0  0  0  0  0  0  0  0  0
   19.3618   18.8825   21.1073 C   0  0  0  0  0  0  0  0  0  0  0  0
   19.6727   18.9410   20.0551 H   0  0  0  0  0  0  0  0  0  0  0  0
   18.3711   18.4076   21.1118 H   0  0  0  0  0  0  0  0  0  0  0  0
   19.2528   20.3196   21.6703 C   0  0  0  0  0  0  0  0  0  0  0  0
   18.6092   20.9109   21.0043 H   0  0  0  0  0  0  0  0  0  0  0  0
   20.2406   20.8007   21.6540 H   0  0  0  0  0  0  0  0  0  0  0  0
   18.6713   20.3793   23.1067 C   0  0  0  0  0  0  0  0  0  0  0  0
   17.7039   19.8645   23.1452 H   0  0  0  0  0  0  0  0  0  0  0  0
   19.3376   19.8740   23.8149 H   0  0  0  0  0  0  0  0  0  0  0  0
   18.4671   21.8069   23.6006 C   0  0  0  0  0  0  0  0  0  0  0  0
   19.3895   22.3539   24.1722 O   0  5  0  0  0  0  0  0  0  0  0  0
   17.3977   22.3416   23.3833 O   0  0  0  0  0  0  0  0  0  0  0  0
  1  2  1  0  0  0  0
  1  3  1  0  0  0  0
  1  4  2  0  0  0  0
  4  5  1  0  0  0  0
  4  6  1  0  0  0  0
  6  7  1  0  0  0  0
  6  8  1  0  0  0  0
  6  9  1  0  0  0  0
  9 10  1  0  0  0  0
  9 11  1  0  0  0  0
  9 12  1  0  0  0  0
 12 13  1  0  0  0  0
 12 14  1  0  0  0  0
 12 15  1  0  0  0  0
 15 16  1  0  0  0  0
 15 17  1  0  0  0  0
 15 18  1  0  0  0  0
 18 19  1  0  0  0  0
 18 20  2  0  0  0  0
M  END
> <VConfSearch Rank>
722

> <Conf_Id>
37

> <Delta U+W>
-0.384

> <U+W>
-52.130

> <U>
7.491

> <W>
-59.621

> <W(PB)>
-61.853

> <W(SA)>
2.232

> <Valence>
9.604

> <Coulomb>
-2.799

> <VdW>
0.686

> <VdW6>
-6.435

> <VdW12>
7.121

> <Bond>
0.124

> <Angle>
2.493

> <Pdih>
6.986

> <Idih>
0.001

> <Tether>
0.000

$$$$
VeraChem MOL file


 20 19  0  0  0  0  0  0  0  0999 V2000     
   19.4112   18.6371   18.5945 C   0  0  0  0  0  0  0  0  0  0  0  0
   19.2716   18.5090   17.5225 H   0  0  0  0  0  0  0  0  0  0  0  0
   20.3910   18.9753   18.9249 H   0  0  0  0  0  0  0  0  0  0  0  0
   18.4127   18.3849   19.4485 C   0  0  0  0  0  0  0  0  0  0  0  0
   17.4530   18.0482   19.0570 H   0  0  0  0  0  0  0  0  0  0  0  0
   18.4564   18.5165   20.9617 C   0  0  0  0  0  0  0  0  0  0  0  0
   18.1962   17.5473   21.4078 H   0  0  0  0  0  0  0  0  0  0  0  0
   17.6658   19.2099   21.2785 H   0  0  0  0  0  0  0  0  0  0  0  0
   19.8100   18.9932   21.5383 C   0  0  0  0  0  0  0  0  0  0  0  0
   20.6023   18.2920   21.2423 H   0  0  0  0  0  0  0  0  0  0  0  0
   20.0662   19.9727   21.1115 H   0  0  0  0  0  0  0  0  0  0  0  0
   19.7701   19.1003   23.0784 C   0  0  0  0  0  0  0  0  0  0  0  0
   19.5142   18.1233   23.5115 H   0  0  0  0  0  0  0  0  0  0  0  0
   18.9792   19.8005   23.3811 H   0  0  0  0  0  0  0  0  0  0  0  0
   21.1245   19.5774   23.6582 C   0  0  0  0  0  0  0  0  0  0  0  0
   21.9236   18.8814   23.3762 H   0  0  0  0  0  0  0  0  0  0  0  0
   21.3885   20.5586   23.2456 H   0  0  0  0  0  0  0  0  0  0  0  0
   21.1103   19.6913   25.1783 C   0  0  0  0  0  0  0  0  0  0  0  0
   21.4200   18.7132   25.8296 O   0  5  0  0  0  0  0  0  0  0  0  0
   20.7710   20.7489   25.6712 O   0  0  0  0  0  0  0  0  0  0  0  0
  1  2  1  0  0  0  0
  1  3  1  0  0  0  0
  1  4  2  0  0  0  0
  4  5  1  0  0  0  0
  4  6  1  0  0  0  0
  6  7  1  0  0  0  0
  6  8  1  0  0  0  0
  6  9  1  0  0  0  0
  9 10  1  0  0  0  0
  9 11  1  0  0  0  0
  9 12  1  0  0  0  0
 12 13  1  0  0  0  0
 12 14  1  0  0  0  0
 12 15  1  0  0  0  0
 15 16  1  0  0  0  0
 15 17  1  0  0  0  0
 15 18  1  0  0  0  0
 18 19  1  0  0  0  0
 18 20  2  0  0  0  0
M  END
> <VConfSearch Rank>
723

> <Conf_Id>
44

> <Delta U+W>
-1.440

> <U+W>
-53.185

> <U>
6.572

> <W>
-59.757

> <W(PB)>
-62.007

> <W(SA)>
2.249

> <Valence>
7.989

> <Coulomb>
-2.697

> <VdW>
1.281

> <VdW6>
-6.467

> <VdW12>
7.748

> <Bond>
0.136

> <Angle>
2.854

> <Pdih>
4.997

> <Idih>
0.001

> <Tether>
0.000

$$$$
VeraChem MOL file


 20 19  0  0  0  0  0  0  0  0999 V2000     
   19.3886   17.1730   24.7979 C   0  0  0  0  0  0  0  0  0  0  0  0
   18.5235   17.8267   24.8968 H   0  0  0  0  0  0  0  0  0  0  0  0
   19.6797   16.5917   25.6713 H   0  0  0  0  0  0  0  0  0  0  0  0
   20.0705   17.0864   23.6528 C   0  0  0  0  0  0  0  0  0  0  0  0
   20.9340   16.4262   23.5751 H   0  0  0  0  0  0  0  0  0  0  0  0
   19.7254   17.8605   22.4000 C   0  0  0  0  0  0  0  0  0  0  0  0
   18.7119   18.2731   22.4841 H   0  0  0  0  0  0  0  0  0  0  0  0
   19.7204   17.1799   21.5382 H   0  0  0  0  0  0  0  0  0  0  0  0
   20.7398   19.0001   22.1546 C   0  0  0  0  0  0  0  0  0  0  0  0
   20.7047   19.7101   22.9923 H   0  0  0  0  0  0  0  0  0  0  0  0
   21.7541   18.5780   22.1485 H   0  0  0  0  0  0  0  0  0  0  0  0
   20.5118   19.7538   20.8226 C   0  0  0  0  0  0  0  0  0  0  0  0
   20.5562   19.0464   19.9830 H   0  0  0  0  0  0  0  0  0  0  0  0
   21.3375   20.4635   20.6739 H   0  0  0  0  0  0  0  0  0  0  0  0
   19.1715   20.5325   20.7734 C   0  0  0  0  0  0  0  0  0  0  0  0
   18.3215   19.8432   20.8273 H   0  0  0  0  0  0  0  0  0  0  0  0
   19.0961   21.2108   21.6317 H   0  0  0  0  0  0  0  0  0  0  0  0
   19.0172   21.3597   19.5022 C   0  0  0  0  0  0  0  0  0  0  0  0
   19.4263   22.5039   19.5091 O   0  5  0  0  0  0  0  0  0  0  0  0
   18.5100   20.8318   18.5322 O   0  0  0  0  0  0  0  0  0  0  0  0
  1  2  1  0  0  0  0
  1  3  1  0  0  0  0
  1  4  2  0  0  0  0
  4  5  1  0  0  0  0
  4  6  1  0  0  0  0
  6  7  1  0  0  0  0
  6  8  1  0  0  0  0
  6  9  1  0  0  0  0
  9 10  1  0  0  0  0
  9 11  1  0  0  0  0
  9 12  1  0  0  0  0
 12 13  1  0  0  0  0
 12 14  1  0  0  0  0
 12 15  1  0  0  0  0
 15 16  1  0  0  0  0
 15 17  1  0  0  0  0
 15 18  1  0  0  0  0
 18 19  1  0  0  0  0
 18 20  2  0  0  0  0
M  END
> <VConfSearch Rank>
724

> <Conf_Id>
38

> <Delta U+W>
-0.381

> <U+W>
-52.126

> <U>
7.601

> <W>
-59.727

> <W(PB)>
-61.964

> <W(SA)>
2.236

> <Valence>
9.602

> <Coulomb>
-2.686

> <VdW>
0.685

> <VdW6>
-6.453

> <VdW12>
7.139

> <Bond>
0.125

> <Angle>
2.485

> <Pdih>
6.991

> <Idih>
0.001

> <Tether>
0.000

$$$$
VeraChem MOL file


 20 19  0  0  0  0  0  0  0  0999 V2000     
   21.5565   19.9365   19.0680 C   0  0  0  0  0  0  0  0  0  0  0  0
   22.3778   20.3932   19.6180 H   0  0  0  0  0  0  0  0  0  0  0  0
   21.7686   19.5677   18.0659 H   0  0  0  0  0  0  0  0  0  0  0  0
   20.3358   19.8287   19.5990 C   0  0  0  0  0  0  0  0  0  0  0  0
   19.5277   19.3672   19.0319 H   0  0  0  0  0  0  0  0  0  0  0  0
   19.9666   20.3175   20.9819 C   0  0  0  0  0  0  0  0  0  0  0  0
   19.0444   20.9113   20.9276 H   0  0  0  0  0  0  0  0  0  0  0  0
   20.7489   20.9832   21.3713 H   0  0  0  0  0  0  0  0  0  0  0  0
   19.7646   19.1368   21.9546 C   0  0  0  0  0  0  0  0  0  0  0  0
   18.9802   18.4739   21.5640 H   0  0  0  0  0  0  0  0  0  0  0  0
   20.6875   18.5425   22.0026 H   0  0  0  0  0  0  0  0  0  0  0  0
   19.3837   19.6191   23.3726 C   0  0  0  0  0  0  0  0  0  0  0  0
   18.4550   20.2051   23.3297 H   0  0  0  0  0  0  0  0  0  0  0  0
   20.1656   20.2929   23.7482 H   0  0  0  0  0  0  0  0  0  0  0  0
   19.2059   18.4476   24.3731 C   0  0  0  0  0  0  0  0  0  0  0  0
   20.1158   17.8363   24.4064 H   0  0  0  0  0  0  0  0  0  0  0  0
   19.0550   18.8476   25.3827 H   0  0  0  0  0  0  0  0  0  0  0  0
   18.0200   17.5395   24.0601 C   0  0  0  0  0  0  0  0  0  0  0  0
   18.2429   16.4476   23.5753 O   0  5  0  0  0  0  0  0  0  0  0  0
   16.9043   17.9451   24.3204 O   0  0  0  0  0  0  0  0  0  0  0  0
  1  2  1  0  0  0  0
  1  3  1  0  0  0  0
  1  4  2  0  0  0  0
  4  5  1  0  0  0  0
  4  6  1  0  0  0  0
  6  7  1  0  0  0  0
  6  8  1  0  0  0  0
  6  9  1  0  0  0  0
  9 10  1  0  0  0  0
  9 11  1  0  0  0  0
  9 12  1  0  0  0  0
 12 13  1  0  0  0  0
 12 14  1  0  0  0  0
 12 15  1  0  0  0  0
 15 16  1  0  0  0  0
 15 17  1  0  0  0  0
 15 18  1  0  0  0  0
 18 19  1  0  0  0  0
 18 20  2  0  0  0  0
M  END
> <VConfSearch Rank>
725

> <Conf_Id>
58

> <Delta U+W>
0.019

> <U+W>
-51.727

> <U>
8.963

> <W>
-60.690

> <W(PB)>
-62.934

> <W(SA)>
2.244

> <Valence>
9.327

> <Coulomb>
-0.780

> <VdW>
0.417

> <VdW6>
-6.635

> <VdW12>
7.052

> <Bond>
0.105

> <Angle>
2.399

> <Pdih>
6.822

> <Idih>
0.000

> <Tether>
0.000

$$$$
VeraChem MOL file


 20 19  0  0  0  0  0  0  0  0999 V2000     
   16.4904   18.1537   23.0043 C   0  0  0  0  0  0  0  0  0  0  0  0
   16.8633   17.6242   23.8796 H   0  0  0  0  0  0  0  0  0  0  0  0
   15.5209   17.8518   22.6115 H   0  0  0  0  0  0  0  0  0  0  0  0
   17.1926   19.1341   22.4303 C   0  0  0  0  0  0  0  0  0  0  0  0
   16.8017   19.6509   21.5541 H   0  0  0  0  0  0  0  0  0  0  0  0
   18.5433   19.6077   22.9191 C   0  0  0  0  0  0  0  0  0  0  0  0
   18.7381   19.2236   23.9297 H   0  0  0  0  0  0  0  0  0  0  0  0
   18.5440   20.7035   22.9919 H   0  0  0  0  0  0  0  0  0  0  0  0
   19.6707   19.1520   21.9693 C   0  0  0  0  0  0  0  0  0  0  0  0
   19.6638   18.0557   21.8954 H   0  0  0  0  0  0  0  0  0  0  0  0
   19.4747   19.5394   20.9599 H   0  0  0  0  0  0  0  0  0  0  0  0
   21.0583   19.6306   22.4530 C   0  0  0  0  0  0  0  0  0  0  0  0
   21.2385   19.2517   23.4681 H   0  0  0  0  0  0  0  0  0  0  0  0
   21.0720   20.7276   22.5178 H   0  0  0  0  0  0  0  0  0  0  0  0
   22.2086   19.1564   21.5273 C   0  0  0  0  0  0  0  0  0  0  0  0
   23.1732   19.4197   21.9771 H   0  0  0  0  0  0  0  0  0  0  0  0
   22.1910   18.0641   21.4302 H   0  0  0  0  0  0  0  0  0  0  0  0
   22.1737   19.7704   20.1307 C   0  0  0  0  0  0  0  0  0  0  0  0
   22.5331   20.9244   20.0037 O   0  5  0  0  0  0  0  0  0  0  0  0
   21.7993   19.0766   19.2057 O   0  0  0  0  0  0  0  0  0  0  0  0
  1  2  1  0  0  0  0
  1  3  1  0  0  0  0
  1  4  2  0  0  0  0
  4  5  1  0  0  0  0
  4  6  1  0  0  0  0
  6  7  1  0  0  0  0
  6  8  1  0  0  0  0
  6  9  1  0  0  0  0
  9 10  1  0  0  0  0
  9 11  1  0  0  0  0
  9 12  1  0  0  0  0
 12 13  1  0  0  0  0
 12 14  1  0  0  0  0
 12 15  1  0  0  0  0
 15 16  1  0  0  0  0
 15 17  1  0  0  0  0
 15 18  1  0  0  0  0
 18 19  1  0  0  0  0
 18 20  2  0  0  0  0
M  END
> <VConfSearch Rank>
726

> <Conf_Id>
54

> <Delta U+W>
-0.048

> <U+W>
-51.793

> <U>
8.964

> <W>
-60.756

> <W(PB)>
-63.007

> <W(SA)>
2.251

> <Valence>
9.327

> <Coulomb>
-0.780

> <VdW>
0.417

> <VdW6>
-6.635

> <VdW12>
7.052

> <Bond>
0.105

> <Angle>
2.399

> <Pdih>
6.822

> <Idih>
0.000

> <Tether>
0.000

$$$$
VeraChem MOL file


 20 19  0  0  0  0  0  0  0  0999 V2000     
   16.6345   17.8671   21.7687 C   0  0  0  0  0  0  0  0  0  0  0  0
   16.1706   16.9346   22.0855 H   0  0  0  0  0  0  0  0  0  0  0  0
   16.0429   18.7768   21.8575 H   0  0  0  0  0  0  0  0  0  0  0  0
   17.8822   17.8905   21.2929 C   0  0  0  0  0  0  0  0  0  0  0  0
   18.4557   16.9678   21.2090 H   0  0  0  0  0  0  0  0  0  0  0  0
   18.5884   19.1463   20.8278 C   0  0  0  0  0  0  0  0  0  0  0  0
   17.8478   19.9265   20.6059 H   0  0  0  0  0  0  0  0  0  0  0  0
   19.1195   18.9505   19.8867 H   0  0  0  0  0  0  0  0  0  0  0  0
   19.5789   19.6901   21.8820 C   0  0  0  0  0  0  0  0  0  0  0  0
   19.9500   20.6674   21.5441 H   0  0  0  0  0  0  0  0  0  0  0  0
   19.0463   19.8674   22.8265 H   0  0  0  0  0  0  0  0  0  0  0  0
   20.7779   18.7431   22.1263 C   0  0  0  0  0  0  0  0  0  0  0  0
   21.3020   18.5538   21.1793 H   0  0  0  0  0  0  0  0  0  0  0  0
   20.4111   17.7721   22.4844 H   0  0  0  0  0  0  0  0  0  0  0  0
   21.7814   19.3084   23.1648 C   0  0  0  0  0  0  0  0  0  0  0  0
   21.2655   19.5342   24.1059 H   0  0  0  0  0  0  0  0  0  0  0  0
   22.5394   18.5497   23.3924 H   0  0  0  0  0  0  0  0  0  0  0  0
   22.5168   20.5619   22.6991 C   0  0  0  0  0  0  0  0  0  0  0  0
   22.1795   21.6334   23.1631 O   0  5  0  0  0  0  0  0  0  0  0  0
   23.4157   20.4315   21.8916 O   0  0  0  0  0  0  0  0  0  0  0  0
  1  2  1  0  0  0  0
  1  3  1  0  0  0  0
  1  4  2  0  0  0  0
  4  5  1  0  0  0  0
  4  6  1  0  0  0  0
  6  7  1  0  0  0  0
  6  8  1  0  0  0  0
  6  9  1  0  0  0  0
  9 10  1  0  0  0  0
  9 11  1  0  0  0  0
  9 12  1  0  0  0  0
 12 13  1  0  0  0  0
 12 14  1  0  0  0  0
 12 15  1  0  0  0  0
 15 16  1  0  0  0  0
 15 17  1  0  0  0  0
 15 18  1  0  0  0  0
 18 19  1  0  0  0  0
 18 20  2  0  0  0  0
M  END
> <VConfSearch Rank>
727

> <Conf_Id>
27

> <Delta U+W>
0.478

> <U+W>
-51.267

> <U>
9.192

> <W>
-60.459

> <W(PB)>
-62.649

> <W(SA)>
2.190

> <Valence>
9.572

> <Coulomb>
-0.884

> <VdW>
0.504

> <VdW6>
-7.168

> <VdW12>
7.672

> <Bond>
0.127

> <Angle>
2.504

> <Pdih>
6.941

> <Idih>
0.001

> <Tether>
0.000

$$$$
VeraChem MOL file


 20 19  0  0  0  0  0  0  0  0999 V2000     
   20.1272   16.2240   24.0161 C   0  0  0  0  0  0  0  0  0  0  0  0
   21.1814   15.9564   23.9650 H   0  0  0  0  0  0  0  0  0  0  0  0
   19.4196   15.4307   24.2509 H   0  0  0  0  0  0  0  0  0  0  0  0
   19.7138   17.4749   23.7968 C   0  0  0  0  0  0  0  0  0  0  0  0
   18.6541   17.7217   23.8560 H   0  0  0  0  0  0  0  0  0  0  0  0
   20.6387   18.6286   23.4723 C   0  0  0  0  0  0  0  0  0  0  0  0
   21.6632   18.3798   23.7806 H   0  0  0  0  0  0  0  0  0  0  0  0
   20.3497   19.5146   24.0532 H   0  0  0  0  0  0  0  0  0  0  0  0
   20.6447   18.9718   21.9656 C   0  0  0  0  0  0  0  0  0  0  0  0
   21.4265   19.7201   21.7765 H   0  0  0  0  0  0  0  0  0  0  0  0
   20.9191   18.0777   21.3889 H   0  0  0  0  0  0  0  0  0  0  0  0
   19.2872   19.5196   21.4685 C   0  0  0  0  0  0  0  0  0  0  0  0
   19.0018   20.3983   22.0633 H   0  0  0  0  0  0  0  0  0  0  0  0
   18.5019   18.7657   21.6155 H   0  0  0  0  0  0  0  0  0  0  0  0
   19.3382   19.9105   19.9709 C   0  0  0  0  0  0  0  0  0  0  0  0
   20.1058   20.6758   19.8047 H   0  0  0  0  0  0  0  0  0  0  0  0
   19.6104   19.0402   19.3618 H   0  0  0  0  0  0  0  0  0  0  0  0
   18.0100   20.4529   19.4554 C   0  0  0  0  0  0  0  0  0  0  0  0
   17.2092   19.6648   18.9925 O   0  5  0  0  0  0  0  0  0  0  0  0
   17.8040   21.6471   19.5466 O   0  0  0  0  0  0  0  0  0  0  0  0
  1  2  1  0  0  0  0
  1  3  1  0  0  0  0
  1  4  2  0  0  0  0
  4  5  1  0  0  0  0
  4  6  1  0  0  0  0
  6  7  1  0  0  0  0
  6  8  1  0  0  0  0
  6  9  1  0  0  0  0
  9 10  1  0  0  0  0
  9 11  1  0  0  0  0
  9 12  1  0  0  0  0
 12 13  1  0  0  0  0
 12 14  1  0  0  0  0
 12 15  1  0  0  0  0
 15 16  1  0  0  0  0
 15 17  1  0  0  0  0
 15 18  1  0  0  0  0
 18 19  1  0  0  0  0
 18 20  2  0  0  0  0
M  END
> <VConfSearch Rank>
728

> <Conf_Id>
41

> <Delta U+W>
-0.634

> <U+W>
-52.379

> <U>
7.828

> <W>
-60.207

> <W(PB)>
-62.449

> <W(SA)>
2.242

> <Valence>
9.300

> <Coulomb>
-2.080

> <VdW>
0.608

> <VdW6>
-6.341

> <VdW12>
6.949

> <Bond>
0.103

> <Angle>
2.334

> <Pdih>
6.862

> <Idih>
0.001

> <Tether>
0.000

$$$$
VeraChem MOL file


 20 19  0  0  0  0  0  0  0  0999 V2000     
   17.3525   20.8433   23.3002 C   0  0  0  0  0  0  0  0  0  0  0  0
   16.6142   21.0036   24.0840 H   0  0  0  0  0  0  0  0  0  0  0  0
   17.5839   21.6855   22.6500 H   0  0  0  0  0  0  0  0  0  0  0  0
   17.9502   19.6588   23.1470 C   0  0  0  0  0  0  0  0  0  0  0  0
   17.7050   18.8284   23.8088 H   0  0  0  0  0  0  0  0  0  0  0  0
   18.9827   19.3612   22.0825 C   0  0  0  0  0  0  0  0  0  0  0  0
   18.9781   20.1492   21.3174 H   0  0  0  0  0  0  0  0  0  0  0  0
   18.7178   18.4236   21.5769 H   0  0  0  0  0  0  0  0  0  0  0  0
   20.3957   19.2465   22.6969 C   0  0  0  0  0  0  0  0  0  0  0  0
   20.6026   20.1532   23.2820 H   0  0  0  0  0  0  0  0  0  0  0  0
   20.4203   18.4089   23.4075 H   0  0  0  0  0  0  0  0  0  0  0  0
   21.5167   19.0739   21.6426 C   0  0  0  0  0  0  0  0  0  0  0  0
   22.4884   19.0789   22.1556 H   0  0  0  0  0  0  0  0  0  0  0  0
   21.5191   19.9434   20.9714 H   0  0  0  0  0  0  0  0  0  0  0  0
   21.4073   17.7769   20.7951 C   0  0  0  0  0  0  0  0  0  0  0  0
   20.4805   17.7736   20.2101 H   0  0  0  0  0  0  0  0  0  0  0  0
   22.2304   17.7457   20.0718 H   0  0  0  0  0  0  0  0  0  0  0  0
   21.4733   16.4906   21.6135 C   0  0  0  0  0  0  0  0  0  0  0  0
   22.5444   16.1700   22.0904 O   0  5  0  0  0  0  0  0  0  0  0  0
   20.4581   15.8341   21.7377 O   0  0  0  0  0  0  0  0  0  0  0  0
  1  2  1  0  0  0  0
  1  3  1  0  0  0  0
  1  4  2  0  0  0  0
  4  5  1  0  0  0  0
  4  6  1  0  0  0  0
  6  7  1  0  0  0  0
  6  8  1  0  0  0  0
  6  9  1  0  0  0  0
  9 10  1  0  0  0  0
  9 11  1  0  0  0  0
  9 12  1  0  0  0  0
 12 13  1  0  0  0  0
 12 14  1  0  0  0  0
 12 15  1  0  0  0  0
 15 16  1  0  0  0  0
 15 17  1  0  0  0  0
 15 18  1  0  0  0  0
 18 19  1  0  0  0  0
 18 20  2  0  0  0  0
M  END
> <VConfSearch Rank>
729

> <Conf_Id>
84

> <Delta U+W>
0.942

> <U+W>
-50.803

> <U>
10.196

> <W>
-60.999

> <W(PB)>
-63.182

> <W(SA)>
2.182

> <Valence>
9.837

> <Coulomb>
0.032

> <VdW>
0.328

> <VdW6>
-7.642

> <VdW12>
7.969

> <Bond>
0.151

> <Angle>
2.748

> <Pdih>
6.937

> <Idih>
0.001

> <Tether>
0.000

$$$$
VeraChem MOL file


 20 19  0  0  0  0  0  0  0  0999 V2000     
   20.6237   15.9330   21.6355 C   0  0  0  0  0  0  0  0  0  0  0  0
   20.9896   15.1886   20.9303 H   0  0  0  0  0  0  0  0  0  0  0  0
   21.1222   15.9956   22.6015 H   0  0  0  0  0  0  0  0  0  0  0  0
   19.6045   16.7375   21.3230 C   0  0  0  0  0  0  0  0  0  0  0  0
   19.1197   16.6591   20.3501 H   0  0  0  0  0  0  0  0  0  0  0  0
   19.0422   17.7925   22.2496 C   0  0  0  0  0  0  0  0  0  0  0  0
   19.4051   17.6315   23.2738 H   0  0  0  0  0  0  0  0  0  0  0  0
   17.9480   17.7051   22.2844 H   0  0  0  0  0  0  0  0  0  0  0  0
   19.4340   19.2102   21.7830 C   0  0  0  0  0  0  0  0  0  0  0  0
   20.5294   19.2885   21.7443 H   0  0  0  0  0  0  0  0  0  0  0  0
   19.0678   19.3734   20.7601 H   0  0  0  0  0  0  0  0  0  0  0  0
   18.8639   20.3007   22.7179 C   0  0  0  0  0  0  0  0  0  0  0  0
   19.2395   20.1488   23.7394 H   0  0  0  0  0  0  0  0  0  0  0  0
   17.7709   20.2023   22.7651 H   0  0  0  0  0  0  0  0  0  0  0  0
   19.2201   21.7350   22.2479 C   0  0  0  0  0  0  0  0  0  0  0  0
   18.8752   21.8932   21.2189 H   0  0  0  0  0  0  0  0  0  0  0  0
   18.6962   22.4666   22.8743 H   0  0  0  0  0  0  0  0  0  0  0  0
   20.7098   22.0585   22.3176 C   0  0  0  0  0  0  0  0  0  0  0  0
   21.3412   22.0910   21.2797 O   0  5  0  0  0  0  0  0  0  0  0  0
   21.1964   22.2823   23.4086 O   0  0  0  0  0  0  0  0  0  0  0  0
  1  2  1  0  0  0  0
  1  3  1  0  0  0  0
  1  4  2  0  0  0  0
  4  5  1  0  0  0  0
  4  6  1  0  0  0  0
  6  7  1  0  0  0  0
  6  8  1  0  0  0  0
  6  9  1  0  0  0  0
  9 10  1  0  0  0  0
  9 11  1  0  0  0  0
  9 12  1  0  0  0  0
 12 13  1  0  0  0  0
 12 14  1  0  0  0  0
 12 15  1  0  0  0  0
 15 16  1  0  0  0  0
 15 17  1  0  0  0  0
 15 18  1  0  0  0  0
 18 19  1  0  0  0  0
 18 20  2  0  0  0  0
M  END
> <VConfSearch Rank>
730

> <Conf_Id>
81

> <Delta U+W>
-0.051

> <U+W>
-51.796

> <U>
9.412

> <W>
-61.209

> <W(PB)>
-63.452

> <W(SA)>
2.243

> <Valence>
9.329

> <Coulomb>
-0.323

> <VdW>
0.406

> <VdW6>
-6.640

> <VdW12>
7.046

> <Bond>
0.105

> <Angle>
2.401

> <Pdih>
6.823

> <Idih>
0.000

> <Tether>
0.000

$$$$
VeraChem MOL file


 20 19  0  0  0  0  0  0  0  0999 V2000     
   21.3962   20.6938   19.8309 C   0  0  0  0  0  0  0  0  0  0  0  0
   22.4385   20.4140   19.9747 H   0  0  0  0  0  0  0  0  0  0  0  0
   21.1339   21.1867   18.8963 H   0  0  0  0  0  0  0  0  0  0  0  0
   20.4717   20.4413   20.7611 C   0  0  0  0  0  0  0  0  0  0  0  0
   19.4342   20.7318   20.5984 H   0  0  0  0  0  0  0  0  0  0  0  0
   20.7623   19.7658   22.0843 C   0  0  0  0  0  0  0  0  0  0  0  0
   20.2580   20.3011   22.8992 H   0  0  0  0  0  0  0  0  0  0  0  0
   21.8364   19.8294   22.3044 H   0  0  0  0  0  0  0  0  0  0  0  0
   20.3474   18.2750   22.0906 C   0  0  0  0  0  0  0  0  0  0  0  0
   20.9284   17.7430   21.3250 H   0  0  0  0  0  0  0  0  0  0  0  0
   20.6336   17.8300   23.0535 H   0  0  0  0  0  0  0  0  0  0  0  0
   18.8387   18.0209   21.8386 C   0  0  0  0  0  0  0  0  0  0  0  0
   18.6600   16.9368   21.8369 H   0  0  0  0  0  0  0  0  0  0  0  0
   18.5705   18.3741   20.8341 H   0  0  0  0  0  0  0  0  0  0  0  0
   17.8932   18.6796   22.8799 C   0  0  0  0  0  0  0  0  0  0  0  0
   17.9913   19.7708   22.8547 H   0  0  0  0  0  0  0  0  0  0  0  0
   16.8526   18.4557   22.6181 H   0  0  0  0  0  0  0  0  0  0  0  0
   18.1145   18.2016   24.3121 C   0  0  0  0  0  0  0  0  0  0  0  0
   18.6244   18.9699   25.1038 O   0  5  0  0  0  0  0  0  0  0  0  0
   17.7542   17.0776   24.6024 O   0  0  0  0  0  0  0  0  0  0  0  0
  1  2  1  0  0  0  0
  1  3  1  0  0  0  0
  1  4  2  0  0  0  0
  4  5  1  0  0  0  0
  4  6  1  0  0  0  0
  6  7  1  0  0  0  0
  6  8  1  0  0  0  0
  6  9  1  0  0  0  0
  9 10  1  0  0  0  0
  9 11  1  0  0  0  0
  9 12  1  0  0  0  0
 12 13  1  0  0  0  0
 12 14  1  0  0  0  0
 12 15  1  0  0  0  0
 15 16  1  0  0  0  0
 15 17  1  0  0  0  0
 15 18  1  0  0  0  0
 18 19  1  0  0  0  0
 18 20  2  0  0  0  0
M  END
> <VConfSearch Rank>
731

> <Conf_Id>
86

> <Delta U+W>
1.248

> <U+W>
-50.498

> <U>
10.404

> <W>
-60.901

> <W(PB)>
-63.061

> <W(SA)>
2.159

> <Valence>
10.021

> <Coulomb>
0.094

> <VdW>
0.289

> <VdW6>
-8.409

> <VdW12>
8.698

> <Bond>
0.179

> <Angle>
2.939

> <Pdih>
6.902

> <Idih>
0.001

> <Tether>
0.000

$$$$
VeraChem MOL file


 20 19  0  0  0  0  0  0  0  0999 V2000     
   17.7472   17.8761   19.9868 C   0  0  0  0  0  0  0  0  0  0  0  0
   17.6849   17.6544   18.9228 H   0  0  0  0  0  0  0  0  0  0  0  0
   17.5878   17.0524   20.6806 H   0  0  0  0  0  0  0  0  0  0  0  0
   18.0125   19.1114   20.4201 C   0  0  0  0  0  0  0  0  0  0  0  0
   18.1709   19.9216   19.7088 H   0  0  0  0  0  0  0  0  0  0  0  0
   18.1151   19.4954   21.8809 C   0  0  0  0  0  0  0  0  0  0  0  0
   17.7472   18.6825   22.5215 H   0  0  0  0  0  0  0  0  0  0  0  0
   17.4635   20.3586   22.0713 H   0  0  0  0  0  0  0  0  0  0  0  0
   19.5593   19.8617   22.2911 C   0  0  0  0  0  0  0  0  0  0  0  0
   19.9293   20.6721   21.6483 H   0  0  0  0  0  0  0  0  0  0  0  0
   19.5450   20.2572   23.3160 H   0  0  0  0  0  0  0  0  0  0  0  0
   20.5243   18.6545   22.2203 C   0  0  0  0  0  0  0  0  0  0  0  0
   20.5447   18.2624   21.1947 H   0  0  0  0  0  0  0  0  0  0  0  0
   20.1518   17.8428   22.8604 H   0  0  0  0  0  0  0  0  0  0  0  0
   21.9704   19.0212   22.6435 C   0  0  0  0  0  0  0  0  0  0  0  0
   22.6335   18.1679   22.4586 H   0  0  0  0  0  0  0  0  0  0  0  0
   22.3444   19.8522   22.0333 H   0  0  0  0  0  0  0  0  0  0  0  0
   22.1099   19.3964   24.1161 C   0  0  0  0  0  0  0  0  0  0  0  0
   22.0945   18.5020   24.9388 O   0  5  0  0  0  0  0  0  0  0  0  0
   22.2416   20.5705   24.4013 O   0  0  0  0  0  0  0  0  0  0  0  0
  1  2  1  0  0  0  0
  1  3  1  0  0  0  0
  1  4  2  0  0  0  0
  4  5  1  0  0  0  0
  4  6  1  0  0  0  0
  6  7  1  0  0  0  0
  6  8  1  0  0  0  0
  6  9  1  0  0  0  0
  9 10  1  0  0  0  0
  9 11  1  0  0  0  0
  9 12  1  0  0  0  0
 12 13  1  0  0  0  0
 12 14  1  0  0  0  0
 12 15  1  0  0  0  0
 15 16  1  0  0  0  0
 15 17  1  0  0  0  0
 15 18  1  0  0  0  0
 18 19  1  0  0  0  0
 18 20  2  0  0  0  0
M  END
> <VConfSearch Rank>
732

> <Conf_Id>
28

> <Delta U+W>
0.446

> <U+W>
-51.299

> <U>
9.295

> <W>
-60.594

> <W(PB)>
-62.806

> <W(SA)>
2.212

> <Valence>
9.495

> <Coulomb>
-0.610

> <VdW>
0.409

> <VdW6>
-7.332

> <VdW12>
7.741

> <Bond>
0.126

> <Angle>
2.497

> <Pdih>
6.872

> <Idih>
0.000

> <Tether>
0.000

$$$$
VeraChem MOL file


 20 19  0  0  0  0  0  0  0  0999 V2000     
   19.0887   17.3548   24.5430 C   0  0  0  0  0  0  0  0  0  0  0  0
   19.5396   16.7443   23.7635 H   0  0  0  0  0  0  0  0  0  0  0  0
   18.9046   16.8714   25.5008 H   0  0  0  0  0  0  0  0  0  0  0  0
   18.7718   18.6410   24.3546 C   0  0  0  0  0  0  0  0  0  0  0  0
   18.3244   19.2019   25.1748 H   0  0  0  0  0  0  0  0  0  0  0  0
   18.9659   19.4480   23.0817 C   0  0  0  0  0  0  0  0  0  0  0  0
   19.6532   20.2759   23.2981 H   0  0  0  0  0  0  0  0  0  0  0  0
   18.0092   19.9153   22.8130 H   0  0  0  0  0  0  0  0  0  0  0  0
   19.4895   18.6394   21.8690 C   0  0  0  0  0  0  0  0  0  0  0  0
   20.4879   18.2404   22.0948 H   0  0  0  0  0  0  0  0  0  0  0  0
   18.8338   17.7732   21.7066 H   0  0  0  0  0  0  0  0  0  0  0  0
   19.5415   19.4595   20.5560 C   0  0  0  0  0  0  0  0  0  0  0  0
   18.5312   19.8131   20.3099 H   0  0  0  0  0  0  0  0  0  0  0  0
   19.8420   18.7932   19.7355 H   0  0  0  0  0  0  0  0  0  0  0  0
   20.5109   20.6727   20.5918 C   0  0  0  0  0  0  0  0  0  0  0  0
   20.4724   21.1957   19.6292 H   0  0  0  0  0  0  0  0  0  0  0  0
   20.1963   21.3978   21.3508 H   0  0  0  0  0  0  0  0  0  0  0  0
   21.9686   20.2994   20.8462 C   0  0  0  0  0  0  0  0  0  0  0  0
   22.5750   19.7248   19.9632 O   0  5  0  0  0  0  0  0  0  0  0  0
   22.4654   20.6109   21.9106 O   0  0  0  0  0  0  0  0  0  0  0  0
  1  2  1  0  0  0  0
  1  3  1  0  0  0  0
  1  4  2  0  0  0  0
  4  5  1  0  0  0  0
  4  6  1  0  0  0  0
  6  7  1  0  0  0  0
  6  8  1  0  0  0  0
  6  9  1  0  0  0  0
  9 10  1  0  0  0  0
  9 11  1  0  0  0  0
  9 12  1  0  0  0  0
 12 13  1  0  0  0  0
 12 14  1  0  0  0  0
 12 15  1  0  0  0  0
 15 16  1  0  0  0  0
 15 17  1  0  0  0  0
 15 18  1  0  0  0  0
 18 19  1  0  0  0  0
 18 20  2  0  0  0  0
M  END
> <VConfSearch Rank>
733

> <Conf_Id>
53

> <Delta U+W>
0.549

> <U+W>
-51.197

> <U>
10.870

> <W>
-62.067

> <W(PB)>
-64.228

> <W(SA)>
2.161

> <Valence>
8.803

> <Coulomb>
1.020

> <VdW>
1.048

> <VdW6>
-8.312

> <VdW12>
9.360

> <Bond>
0.212

> <Angle>
3.379

> <Pdih>
5.211

> <Idih>
0.001

> <Tether>
0.000

$$$$
VeraChem MOL file


 20 19  0  0  0  0  0  0  0  0999 V2000     
   21.1617   17.7594   24.1759 C   0  0  0  0  0  0  0  0  0  0  0  0
   20.9200   16.8599   23.6139 H   0  0  0  0  0  0  0  0  0  0  0  0
   21.3007   17.6487   25.2498 H   0  0  0  0  0  0  0  0  0  0  0  0
   21.2920   18.9532   23.5873 C   0  0  0  0  0  0  0  0  0  0  0  0
   21.5381   19.8226   24.1963 H   0  0  0  0  0  0  0  0  0  0  0  0
   21.1209   19.2525   22.1070 C   0  0  0  0  0  0  0  0  0  0  0  0
   22.1133   19.2909   21.6389 H   0  0  0  0  0  0  0  0  0  0  0  0
   20.7187   20.2671   21.9920 H   0  0  0  0  0  0  0  0  0  0  0  0
   20.2219   18.2665   21.3162 C   0  0  0  0  0  0  0  0  0  0  0  0
   20.2414   18.5502   20.2551 H   0  0  0  0  0  0  0  0  0  0  0  0
   20.6578   17.2598   21.3599 H   0  0  0  0  0  0  0  0  0  0  0  0
   18.7465   18.2073   21.7923 C   0  0  0  0  0  0  0  0  0  0  0  0
   18.7073   17.8542   22.8307 H   0  0  0  0  0  0  0  0  0  0  0  0
   18.2142   17.4547   21.1946 H   0  0  0  0  0  0  0  0  0  0  0  0
   17.9818   19.5553   21.6895 C   0  0  0  0  0  0  0  0  0  0  0  0
   16.9557   19.4182   22.0499 H   0  0  0  0  0  0  0  0  0  0  0  0
   18.4399   20.3091   22.3397 H   0  0  0  0  0  0  0  0  0  0  0  0
   17.8946   20.1171   20.2734 C   0  0  0  0  0  0  0  0  0  0  0  0
   18.5560   21.0998   20.0014 O   0  5  0  0  0  0  0  0  0  0  0  0
   17.1522   19.5666   19.4839 O   0  0  0  0  0  0  0  0  0  0  0  0
  1  2  1  0  0  0  0
  1  3  1  0  0  0  0
  1  4  2  0  0  0  0
  4  5  1  0  0  0  0
  4  6  1  0  0  0  0
  6  7  1  0  0  0  0
  6  8  1  0  0  0  0
  6  9  1  0  0  0  0
  9 10  1  0  0  0  0
  9 11  1  0  0  0  0
  9 12  1  0  0  0  0
 12 13  1  0  0  0  0
 12 14  1  0  0  0  0
 12 15  1  0  0  0  0
 15 16  1  0  0  0  0
 15 17  1  0  0  0  0
 15 18  1  0  0  0  0
 18 19  1  0  0  0  0
 18 20  2  0  0  0  0
M  END
> <VConfSearch Rank>
734

> <Conf_Id>
66

> <Delta U+W>
1.737

> <U+W>
-50.008

> <U>
11.091

> <W>
-61.099

> <W(PB)>
-63.213

> <W(SA)>
2.114

> <Valence>
9.664

> <Coulomb>
0.658

> <VdW>
0.769

> <VdW6>
-9.171

> <VdW12>
9.940

> <Bond>
0.244

> <Angle>
3.658

> <Pdih>
5.762

> <Idih>
0.001

> <Tether>
0.000

$$$$
VeraChem MOL file


 20 19  0  0  0  0  0  0  0  0999 V2000     
   22.0112   17.8758   22.0344 C   0  0  0  0  0  0  0  0  0  0  0  0
   22.1487   18.7055   22.7242 H   0  0  0  0  0  0  0  0  0  0  0  0
   22.5394   16.9517   22.2621 H   0  0  0  0  0  0  0  0  0  0  0  0
   21.2364   17.9722   20.9484 C   0  0  0  0  0  0  0  0  0  0  0  0
   21.1361   17.1101   20.2895 H   0  0  0  0  0  0  0  0  0  0  0  0
   20.4395   19.1905   20.5109 C   0  0  0  0  0  0  0  0  0  0  0  0
   19.5102   18.8545   20.0344 H   0  0  0  0  0  0  0  0  0  0  0  0
   20.9937   19.7034   19.7138 H   0  0  0  0  0  0  0  0  0  0  0  0
   20.0930   20.2108   21.6267 C   0  0  0  0  0  0  0  0  0  0  0  0
   21.0210   20.5957   22.0697 H   0  0  0  0  0  0  0  0  0  0  0  0
   19.6013   21.0797   21.1684 H   0  0  0  0  0  0  0  0  0  0  0  0
   19.1782   19.6577   22.7491 C   0  0  0  0  0  0  0  0  0  0  0  0
   19.0681   20.4300   23.5229 H   0  0  0  0  0  0  0  0  0  0  0  0
   19.6550   18.7984   23.2389 H   0  0  0  0  0  0  0  0  0  0  0  0
   17.7675   19.2472   22.2530 C   0  0  0  0  0  0  0  0  0  0  0  0
   17.2969   20.0796   21.7166 H   0  0  0  0  0  0  0  0  0  0  0  0
   17.8353   18.4051   21.5550 H   0  0  0  0  0  0  0  0  0  0  0  0
   16.8397   18.8341   23.3900 C   0  0  0  0  0  0  0  0  0  0  0  0
   16.8006   17.6605   23.7029 O   0  5  0  0  0  0  0  0  0  0  0  0
   16.1902   19.6998   23.9430 O   0  0  0  0  0  0  0  0  0  0  0  0
  1  2  1  0  0  0  0
  1  3  1  0  0  0  0
  1  4  2  0  0  0  0
  4  5  1  0  0  0  0
  4  6  1  0  0  0  0
  6  7  1  0  0  0  0
  6  8  1  0  0  0  0
  6  9  1  0  0  0  0
  9 10  1  0  0  0  0
  9 11  1  0  0  0  0
  9 12  1  0  0  0  0
 12 13  1  0  0  0  0
 12 14  1  0  0  0  0
 12 15  1  0  0  0  0
 15 16  1  0  0  0  0
 15 17  1  0  0  0  0
 15 18  1  0  0  0  0
 18 19  1  0  0  0  0
 18 20  2  0  0  0  0
M  END
> <VConfSearch Rank>
735

> <Conf_Id>
64

> <Delta U+W>
0.366

> <U+W>
-51.379

> <U>
10.000

> <W>
-61.379

> <W(PB)>
-63.541

> <W(SA)>
2.162

> <Valence>
9.398

> <Coulomb>
-0.504

> <VdW>
1.105

> <VdW6>
-7.975

> <VdW12>
9.080

> <Bond>
0.216

> <Angle>
3.417

> <Pdih>
5.765

> <Idih>
0.001

> <Tether>
0.000

$$$$
VeraChem MOL file


 20 19  0  0  0  0  0  0  0  0999 V2000     
   22.7720   18.2443   22.3334 C   0  0  0  0  0  0  0  0  0  0  0  0
   22.5273   17.9592   23.3553 H   0  0  0  0  0  0  0  0  0  0  0  0
   23.7336   18.7259   22.1641 H   0  0  0  0  0  0  0  0  0  0  0  0
   21.9265   18.0175   21.3246 C   0  0  0  0  0  0  0  0  0  0  0  0
   22.1897   18.3129   20.3093 H   0  0  0  0  0  0  0  0  0  0  0  0
   20.5745   17.3548   21.4822 C   0  0  0  0  0  0  0  0  0  0  0  0
   20.4758   16.9105   22.4820 H   0  0  0  0  0  0  0  0  0  0  0  0
   20.4955   16.5262   20.7660 H   0  0  0  0  0  0  0  0  0  0  0  0
   19.4079   18.3382   21.2374 C   0  0  0  0  0  0  0  0  0  0  0  0
   19.5070   18.7831   20.2377 H   0  0  0  0  0  0  0  0  0  0  0  0
   18.4639   17.7763   21.2395 H   0  0  0  0  0  0  0  0  0  0  0  0
   19.3363   19.4557   22.3032 C   0  0  0  0  0  0  0  0  0  0  0  0
   20.2651   20.0426   22.2928 H   0  0  0  0  0  0  0  0  0  0  0  0
   19.2544   19.0083   23.3034 H   0  0  0  0  0  0  0  0  0  0  0  0
   18.1343   20.4026   22.0654 C   0  0  0  0  0  0  0  0  0  0  0  0
   18.2087   20.8669   21.0747 H   0  0  0  0  0  0  0  0  0  0  0  0
   17.1954   19.8366   22.0890 H   0  0  0  0  0  0  0  0  0  0  0  0
   18.0423   21.5144   23.1044 C   0  0  0  0  0  0  0  0  0  0  0  0
   17.4186   21.2961   24.1243 O   0  5  0  0  0  0  0  0  0  0  0  0
   18.6083   22.5646   22.8730 O   0  0  0  0  0  0  0  0  0  0  0  0
  1  2  1  0  0  0  0
  1  3  1  0  0  0  0
  1  4  2  0  0  0  0
  4  5  1  0  0  0  0
  4  6  1  0  0  0  0
  6  7  1  0  0  0  0
  6  8  1  0  0  0  0
  6  9  1  0  0  0  0
  9 10  1  0  0  0  0
  9 11  1  0  0  0  0
  9 12  1  0  0  0  0
 12 13  1  0  0  0  0
 12 14  1  0  0  0  0
 12 15  1  0  0  0  0
 15 16  1  0  0  0  0
 15 17  1  0  0  0  0
 15 18  1  0  0  0  0
 18 19  1  0  0  0  0
 18 20  2  0  0  0  0
M  END
> <VConfSearch Rank>
736

> <Conf_Id>
42

> <Delta U+W>
-0.601

> <U+W>
-52.347

> <U>
8.428

> <W>
-60.774

> <W(PB)>
-62.982

> <W(SA)>
2.208

> <Valence>
9.231

> <Coulomb>
-1.304

> <VdW>
0.501

> <VdW6>
-6.515

> <VdW12>
7.016

> <Bond>
0.103

> <Angle>
2.328

> <Pdih>
6.799

> <Idih>
0.000

> <Tether>
0.000

$$$$
VeraChem MOL file


 20 19  0  0  0  0  0  0  0  0999 V2000     
   19.4799   19.5613   19.0743 C   0  0  0  0  0  0  0  0  0  0  0  0
   20.1020   18.6931   18.8628 H   0  0  0  0  0  0  0  0  0  0  0  0
   19.5878   20.4261   18.4220 H   0  0  0  0  0  0  0  0  0  0  0  0
   18.6196   19.5704   20.0960 C   0  0  0  0  0  0  0  0  0  0  0  0
   18.0081   20.4507   20.2924 H   0  0  0  0  0  0  0  0  0  0  0  0
   18.4157   18.4088   21.0451 C   0  0  0  0  0  0  0  0  0  0  0  0
   18.9155   17.5071   20.6659 H   0  0  0  0  0  0  0  0  0  0  0  0
   17.3449   18.1709   21.0964 H   0  0  0  0  0  0  0  0  0  0  0  0
   18.9252   18.7209   22.4702 C   0  0  0  0  0  0  0  0  0  0  0  0
   18.4190   19.6191   22.8501 H   0  0  0  0  0  0  0  0  0  0  0  0
   18.6415   17.8960   23.1378 H   0  0  0  0  0  0  0  0  0  0  0  0
   20.4589   18.9158   22.5262 C   0  0  0  0  0  0  0  0  0  0  0  0
   20.7526   19.7657   21.8947 H   0  0  0  0  0  0  0  0  0  0  0  0
   20.9519   18.0278   22.1085 H   0  0  0  0  0  0  0  0  0  0  0  0
   20.9777   19.1490   23.9689 C   0  0  0  0  0  0  0  0  0  0  0  0
   20.6731   18.3208   24.6201 H   0  0  0  0  0  0  0  0  0  0  0  0
   22.0739   19.1639   23.9659 H   0  0  0  0  0  0  0  0  0  0  0  0
   20.5045   20.4586   24.5934 C   0  0  0  0  0  0  0  0  0  0  0  0
   19.6087   20.4147   25.4137 O   0  5  0  0  0  0  0  0  0  0  0  0
   21.0576   21.4867   24.2557 O   0  0  0  0  0  0  0  0  0  0  0  0
  1  2  1  0  0  0  0
  1  3  1  0  0  0  0
  1  4  2  0  0  0  0
  4  5  1  0  0  0  0
  4  6  1  0  0  0  0
  6  7  1  0  0  0  0
  6  8  1  0  0  0  0
  6  9  1  0  0  0  0
  9 10  1  0  0  0  0
  9 11  1  0  0  0  0
  9 12  1  0  0  0  0
 12 13  1  0  0  0  0
 12 14  1  0  0  0  0
 12 15  1  0  0  0  0
 15 16  1  0  0  0  0
 15 17  1  0  0  0  0
 15 18  1  0  0  0  0
 18 19  1  0  0  0  0
 18 20  2  0  0  0  0
M  END
> <VConfSearch Rank>
737

> <Conf_Id>
68

> <Delta U+W>
0.492

> <U+W>
-51.253

> <U>
10.179

> <W>
-61.432

> <W(PB)>
-63.627

> <W(SA)>
2.195

> <Valence>
9.483

> <Coulomb>
0.361

> <VdW>
0.335

> <VdW6>
-7.385

> <VdW12>
7.720

> <Bond>
0.125

> <Angle>
2.487

> <Pdih>
6.870

> <Idih>
0.001

> <Tether>
0.000

$$$$
VeraChem MOL file


 20 19  0  0  0  0  0  0  0  0999 V2000     
   16.8526   18.1978   23.1980 C   0  0  0  0  0  0  0  0  0  0  0  0
   16.1468   18.5903   22.4678 H   0  0  0  0  0  0  0  0  0  0  0  0
   16.5076   18.0994   24.2258 H   0  0  0  0  0  0  0  0  0  0  0  0
   18.0953   17.8526   22.8511 C   0  0  0  0  0  0  0  0  0  0  0  0
   18.7848   17.4592   23.5974 H   0  0  0  0  0  0  0  0  0  0  0  0
   18.6420   17.9561   21.4432 C   0  0  0  0  0  0  0  0  0  0  0  0
   17.8115   18.0194   20.7270 H   0  0  0  0  0  0  0  0  0  0  0  0
   19.1976   17.0434   21.1896 H   0  0  0  0  0  0  0  0  0  0  0  0
   19.5526   19.1904   21.2552 C   0  0  0  0  0  0  0  0  0  0  0  0
   19.8094   19.2825   20.1911 H   0  0  0  0  0  0  0  0  0  0  0  0
   18.9937   20.0983   21.5218 H   0  0  0  0  0  0  0  0  0  0  0  0
   20.8551   19.1091   22.0864 C   0  0  0  0  0  0  0  0  0  0  0  0
   21.3797   18.1742   21.8473 H   0  0  0  0  0  0  0  0  0  0  0  0
   20.6161   19.0733   23.1580 H   0  0  0  0  0  0  0  0  0  0  0  0
   21.8074   20.3033   21.8182 C   0  0  0  0  0  0  0  0  0  0  0  0
   22.7578   20.1381   22.3392 H   0  0  0  0  0  0  0  0  0  0  0  0
   22.0394   20.3707   20.7484 H   0  0  0  0  0  0  0  0  0  0  0  0
   21.2593   21.6494   22.2831 C   0  0  0  0  0  0  0  0  0  0  0  0
   21.3041   21.9064   23.4702 O   0  5  0  0  0  0  0  0  0  0  0  0
   20.8204   22.4129   21.4455 O   0  0  0  0  0  0  0  0  0  0  0  0
  1  2  1  0  0  0  0
  1  3  1  0  0  0  0
  1  4  2  0  0  0  0
  4  5  1  0  0  0  0
  4  6  1  0  0  0  0
  6  7  1  0  0  0  0
  6  8  1  0  0  0  0
  6  9  1  0  0  0  0
  9 10  1  0  0  0  0
  9 11  1  0  0  0  0
  9 12  1  0  0  0  0
 12 13  1  0  0  0  0
 12 14  1  0  0  0  0
 12 15  1  0  0  0  0
 15 16  1  0  0  0  0
 15 17  1  0  0  0  0
 15 18  1  0  0  0  0
 18 19  1  0  0  0  0
 18 20  2  0  0  0  0
M  END
> <VConfSearch Rank>
738

> <Conf_Id>
87

> <Delta U+W>
0.339

> <U+W>
-51.407

> <U>
10.461

> <W>
-61.867

> <W(PB)>
-64.045

> <W(SA)>
2.178

> <Valence>
9.555

> <Coulomb>
0.483

> <VdW>
0.423

> <VdW6>
-7.223

> <VdW12>
7.646

> <Bond>
0.126

> <Angle>
2.492

> <Pdih>
6.936

> <Idih>
0.001

> <Tether>
0.000

$$$$
VeraChem MOL file


 20 19  0  0  0  0  0  0  0  0999 V2000     
   21.7413   17.2027   22.5878 C   0  0  0  0  0  0  0  0  0  0  0  0
   22.5641   17.6166   22.0073 H   0  0  0  0  0  0  0  0  0  0  0  0
   21.9763   16.7858   23.5656 H   0  0  0  0  0  0  0  0  0  0  0  0
   20.4899   17.2073   22.1211 C   0  0  0  0  0  0  0  0  0  0  0  0
   19.6813   16.7801   22.7131 H   0  0  0  0  0  0  0  0  0  0  0  0
   20.0939   17.7578   20.7677 C   0  0  0  0  0  0  0  0  0  0  0  0
   19.1210   17.3510   20.4613 H   0  0  0  0  0  0  0  0  0  0  0  0
   20.8153   17.3984   20.0215 H   0  0  0  0  0  0  0  0  0  0  0  0
   20.0622   19.3055   20.7137 C   0  0  0  0  0  0  0  0  0  0  0  0
   20.9608   19.7167   21.1936 H   0  0  0  0  0  0  0  0  0  0  0  0
   20.1195   19.6071   19.6590 H   0  0  0  0  0  0  0  0  0  0  0  0
   18.7916   19.9536   21.3192 C   0  0  0  0  0  0  0  0  0  0  0  0
   17.8948   19.5299   20.8467 H   0  0  0  0  0  0  0  0  0  0  0  0
   18.7963   21.0228   21.0658 H   0  0  0  0  0  0  0  0  0  0  0  0
   18.6794   19.8179   22.8594 C   0  0  0  0  0  0  0  0  0  0  0  0
   18.5224   18.7725   23.1432 H   0  0  0  0  0  0  0  0  0  0  0  0
   19.6075   20.1516   23.3386 H   0  0  0  0  0  0  0  0  0  0  0  0
   17.5271   20.6290   23.4406 C   0  0  0  0  0  0  0  0  0  0  0  0
   16.4335   20.1037   23.5114 O   0  5  0  0  0  0  0  0  0  0  0  0
   17.7481   21.7723   23.7883 O   0  0  0  0  0  0  0  0  0  0  0  0
  1  2  1  0  0  0  0
  1  3  1  0  0  0  0
  1  4  2  0  0  0  0
  4  5  1  0  0  0  0
  4  6  1  0  0  0  0
  6  7  1  0  0  0  0
  6  8  1  0  0  0  0
  6  9  1  0  0  0  0
  9 10  1  0  0  0  0
  9 11  1  0  0  0  0
  9 12  1  0  0  0  0
 12 13  1  0  0  0  0
 12 14  1  0  0  0  0
 12 15  1  0  0  0  0
 15 16  1  0  0  0  0
 15 17  1  0  0  0  0
 15 18  1  0  0  0  0
 18 19  1  0  0  0  0
 18 20  2  0  0  0  0
M  END
> <VConfSearch Rank>
739

> <Conf_Id>
51

> <Delta U+W>
1.709

> <U+W>
-50.036

> <U>
10.643

> <W>
-60.679

> <W(PB)>
-62.882

> <W(SA)>
2.203

> <Valence>
11.231

> <Coulomb>
-1.077

> <VdW>
0.489

> <VdW6>
-7.546

> <VdW12>
8.035

> <Bond>
0.159

> <Angle>
3.005

> <Pdih>
8.065

> <Idih>
0.002

> <Tether>
0.000

$$$$
VeraChem MOL file


 20 19  0  0  0  0  0  0  0  0999 V2000     
   19.6402   21.3063   20.1698 C   0  0  0  0  0  0  0  0  0  0  0  0
   18.8934   21.0290   19.4277 H   0  0  0  0  0  0  0  0  0  0  0  0
   20.5167   21.8498   19.8214 H   0  0  0  0  0  0  0  0  0  0  0  0
   19.4901   20.9904   21.4587 C   0  0  0  0  0  0  0  0  0  0  0  0
   20.2442   21.2846   22.1879 H   0  0  0  0  0  0  0  0  0  0  0  0
   18.2931   20.2485   22.0140 C   0  0  0  0  0  0  0  0  0  0  0  0
   17.3822   20.6872   21.5847 H   0  0  0  0  0  0  0  0  0  0  0  0
   18.2171   20.4062   23.0981 H   0  0  0  0  0  0  0  0  0  0  0  0
   18.3031   18.7321   21.6983 C   0  0  0  0  0  0  0  0  0  0  0  0
   17.2773   18.3568   21.8151 H   0  0  0  0  0  0  0  0  0  0  0  0
   18.5649   18.5695   20.6438 H   0  0  0  0  0  0  0  0  0  0  0  0
   19.2213   17.8815   22.6118 C   0  0  0  0  0  0  0  0  0  0  0  0
   19.0122   16.8203   22.4179 H   0  0  0  0  0  0  0  0  0  0  0  0
   18.9660   18.0573   23.6658 H   0  0  0  0  0  0  0  0  0  0  0  0
   20.7369   18.1268   22.3976 C   0  0  0  0  0  0  0  0  0  0  0  0
   20.9879   18.0460   21.3332 H   0  0  0  0  0  0  0  0  0  0  0  0
   21.0134   19.1346   22.7231 H   0  0  0  0  0  0  0  0  0  0  0  0
   21.6086   17.1410   23.1669 C   0  0  0  0  0  0  0  0  0  0  0  0
   21.9246   17.4216   24.3063 O   0  5  0  0  0  0  0  0  0  0  0  0
   21.9321   16.1083   22.6139 O   0  0  0  0  0  0  0  0  0  0  0  0
  1  2  1  0  0  0  0
  1  3  1  0  0  0  0
  1  4  2  0  0  0  0
  4  5  1  0  0  0  0
  4  6  1  0  0  0  0
  6  7  1  0  0  0  0
  6  8  1  0  0  0  0
  6  9  1  0  0  0  0
  9 10  1  0  0  0  0
  9 11  1  0  0  0  0
  9 12  1  0  0  0  0
 12 13  1  0  0  0  0
 12 14  1  0  0  0  0
 12 15  1  0  0  0  0
 15 16  1  0  0  0  0
 15 17  1  0  0  0  0
 15 18  1  0  0  0  0
 18 19  1  0  0  0  0
 18 20  2  0  0  0  0
M  END
> <VConfSearch Rank>
740

> <Conf_Id>
91

> <Delta U+W>
1.604

> <U+W>
-50.141

> <U>
10.644

> <W>
-60.786

> <W(PB)>
-62.965

> <W(SA)>
2.179

> <Valence>
11.230

> <Coulomb>
-1.075

> <VdW>
0.489

> <VdW6>
-7.547

> <VdW12>
8.036

> <Bond>
0.159

> <Angle>
3.006

> <Pdih>
8.064

> <Idih>
0.002

> <Tether>
0.000

$$$$
VeraChem MOL file


 20 19  0  0  0  0  0  0  0  0999 V2000     
   23.2076   20.3033   21.2676 C   0  0  0  0  0  0  0  0  0  0  0  0
   22.7767   21.0043   20.5545 H   0  0  0  0  0  0  0  0  0  0  0  0
   24.2724   20.0931   21.1825 H   0  0  0  0  0  0  0  0  0  0  0  0
   22.4622   19.7199   22.2097 C   0  0  0  0  0  0  0  0  0  0  0  0
   22.9129   19.0203   22.9134 H   0  0  0  0  0  0  0  0  0  0  0  0
   20.9802   19.9630   22.3894 C   0  0  0  0  0  0  0  0  0  0  0  0
   20.6701   20.8544   21.8272 H   0  0  0  0  0  0  0  0  0  0  0  0
   20.7668   20.1668   23.4473 H   0  0  0  0  0  0  0  0  0  0  0  0
   20.1551   18.7466   21.9199 C   0  0  0  0  0  0  0  0  0  0  0  0
   20.3753   18.5446   20.8626 H   0  0  0  0  0  0  0  0  0  0  0  0
   20.4623   17.8563   22.4857 H   0  0  0  0  0  0  0  0  0  0  0  0
   18.6385   18.9771   22.0993 C   0  0  0  0  0  0  0  0  0  0  0  0
   18.3304   19.8671   21.5333 H   0  0  0  0  0  0  0  0  0  0  0  0
   18.4178   19.1805   23.1564 H   0  0  0  0  0  0  0  0  0  0  0  0
   17.8090   17.7537   21.6263 C   0  0  0  0  0  0  0  0  0  0  0  0
   18.0196   17.5490   20.5701 H   0  0  0  0  0  0  0  0  0  0  0  0
   18.1069   16.8629   22.1916 H   0  0  0  0  0  0  0  0  0  0  0  0
   16.2931   17.8987   21.7692 C   0  0  0  0  0  0  0  0  0  0  0  0
   15.6101   16.9602   21.4104 O   0  5  0  0  0  0  0  0  0  0  0  0
   15.8260   18.9240   22.2267 O   0  0  0  0  0  0  0  0  0  0  0  0
  1  2  1  0  0  0  0
  1  3  1  0  0  0  0
  1  4  2  0  0  0  0
  4  5  1  0  0  0  0
  4  6  1  0  0  0  0
  6  7  1  0  0  0  0
  6  8  1  0  0  0  0
  6  9  1  0  0  0  0
  9 10  1  0  0  0  0
  9 11  1  0  0  0  0
  9 12  1  0  0  0  0
 12 13  1  0  0  0  0
 12 14  1  0  0  0  0
 12 15  1  0  0  0  0
 15 16  1  0  0  0  0
 15 17  1  0  0  0  0
 15 18  1  0  0  0  0
 18 19  1  0  0  0  0
 18 20  2  0  0  0  0
M  END
> <VConfSearch Rank>
741

> <Conf_Id>
33

> <Delta U+W>
0.000

> <U+W>
-51.745

> <U>
7.593

> <W>
-59.338

> <W(PB)>
-61.574

> <W(SA)>
2.236

> <Valence>
9.570

> <Coulomb>
-3.091

> <VdW>
1.114

> <VdW6>
-6.064

> <VdW12>
7.178

> <Bond>
0.117

> <Angle>
2.692

> <Pdih>
6.761

> <Idih>
0.000

> <Tether>
0.000

$$$$
VeraChem MOL file


 20 19  0  0  0  0  0  0  0  0999 V2000     
   19.5061   16.2956   24.2698 C   0  0  0  0  0  0  0  0  0  0  0  0
   20.5623   16.4284   24.4985 H   0  0  0  0  0  0  0  0  0  0  0  0
   19.0145   15.4100   24.6690 H   0  0  0  0  0  0  0  0  0  0  0  0
   18.8366   17.1807   23.5267 C   0  0  0  0  0  0  0  0  0  0  0  0
   17.7797   17.0286   23.3086 H   0  0  0  0  0  0  0  0  0  0  0  0
   19.4509   18.4320   22.9398 C   0  0  0  0  0  0  0  0  0  0  0  0
   20.4212   18.6361   23.4123 H   0  0  0  0  0  0  0  0  0  0  0  0
   18.8029   19.2893   23.1620 H   0  0  0  0  0  0  0  0  0  0  0  0
   19.6414   18.2927   21.4126 C   0  0  0  0  0  0  0  0  0  0  0  0
   20.2211   17.3815   21.2105 H   0  0  0  0  0  0  0  0  0  0  0  0
   18.6647   18.1523   20.9296 H   0  0  0  0  0  0  0  0  0  0  0  0
   20.3723   19.4953   20.7695 C   0  0  0  0  0  0  0  0  0  0  0  0
   20.5658   19.2656   19.7125 H   0  0  0  0  0  0  0  0  0  0  0  0
   21.3550   19.6288   21.2426 H   0  0  0  0  0  0  0  0  0  0  0  0
   19.5731   20.8218   20.8525 C   0  0  0  0  0  0  0  0  0  0  0  0
   18.5736   20.6892   20.4214 H   0  0  0  0  0  0  0  0  0  0  0  0
   19.4398   21.1283   21.8961 H   0  0  0  0  0  0  0  0  0  0  0  0
   20.2570   21.9684   20.1167 C   0  0  0  0  0  0  0  0  0  0  0  0
   21.0543   22.6497   20.7305 O   0  5  0  0  0  0  0  0  0  0  0  0
   19.9891   22.1379   18.9435 O   0  0  0  0  0  0  0  0  0  0  0  0
  1  2  1  0  0  0  0
  1  3  1  0  0  0  0
  1  4  2  0  0  0  0
  4  5  1  0  0  0  0
  4  6  1  0  0  0  0
  6  7  1  0  0  0  0
  6  8  1  0  0  0  0
  6  9  1  0  0  0  0
  9 10  1  0  0  0  0
  9 11  1  0  0  0  0
  9 12  1  0  0  0  0
 12 13  1  0  0  0  0
 12 14  1  0  0  0  0
 12 15  1  0  0  0  0
 15 16  1  0  0  0  0
 15 17  1  0  0  0  0
 15 18  1  0  0  0  0
 18 19  1  0  0  0  0
 18 20  2  0  0  0  0
M  END
> <VConfSearch Rank>
742

> <Conf_Id>
37

> <Delta U+W>
-0.384

> <U+W>
-52.130

> <U>
7.491

> <W>
-59.621

> <W(PB)>
-61.853

> <W(SA)>
2.232

> <Valence>
9.604

> <Coulomb>
-2.799

> <VdW>
0.686

> <VdW6>
-6.435

> <VdW12>
7.121

> <Bond>
0.124

> <Angle>
2.493

> <Pdih>
6.986

> <Idih>
0.001

> <Tether>
0.000

$$$$
VeraChem MOL file


 20 19  0  0  0  0  0  0  0  0999 V2000     
   16.8455   18.1877   23.2723 C   0  0  0  0  0  0  0  0  0  0  0  0
   15.8972   17.9197   23.7350 H   0  0  0  0  0  0  0  0  0  0  0  0
   16.8562   18.2715   22.1877 H   0  0  0  0  0  0  0  0  0  0  0  0
   17.9346   18.3997   24.0199 C   0  0  0  0  0  0  0  0  0  0  0  0
   17.8616   18.3006   25.1027 H   0  0  0  0  0  0  0  0  0  0  0  0
   19.3194   18.7777   23.5212 C   0  0  0  0  0  0  0  0  0  0  0  0
   20.0382   18.0249   23.8715 H   0  0  0  0  0  0  0  0  0  0  0  0
   19.6212   19.7197   23.9983 H   0  0  0  0  0  0  0  0  0  0  0  0
   19.4450   18.9235   21.9866 C   0  0  0  0  0  0  0  0  0  0  0  0
   19.1643   17.9773   21.5039 H   0  0  0  0  0  0  0  0  0  0  0  0
   18.7428   19.6905   21.6321 H   0  0  0  0  0  0  0  0  0  0  0  0
   20.8797   19.3081   21.5638 C   0  0  0  0  0  0  0  0  0  0  0  0
   21.5873   18.5445   21.9157 H   0  0  0  0  0  0  0  0  0  0  0  0
   21.1666   20.2542   22.0437 H   0  0  0  0  0  0  0  0  0  0  0  0
   21.0081   19.4547   20.0276 C   0  0  0  0  0  0  0  0  0  0  0  0
   20.7379   18.5138   19.5334 H   0  0  0  0  0  0  0  0  0  0  0  0
   20.3171   20.2235   19.6614 H   0  0  0  0  0  0  0  0  0  0  0  0
   22.4166   19.8345   19.5849 C   0  0  0  0  0  0  0  0  0  0  0  0
   23.2049   18.9399   19.3505 O   0  5  0  0  0  0  0  0  0  0  0  0
   22.6941   21.0149   19.5054 O   0  0  0  0  0  0  0  0  0  0  0  0
  1  2  1  0  0  0  0
  1  3  1  0  0  0  0
  1  4  2  0  0  0  0
  4  5  1  0  0  0  0
  4  6  1  0  0  0  0
  6  7  1  0  0  0  0
  6  8  1  0  0  0  0
  6  9  1  0  0  0  0
  9 10  1  0  0  0  0
  9 11  1  0  0  0  0
  9 12  1  0  0  0  0
 12 13  1  0  0  0  0
 12 14  1  0  0  0  0
 12 15  1  0  0  0  0
 15 16  1  0  0  0  0
 15 17  1  0  0  0  0
 15 18  1  0  0  0  0
 18 19  1  0  0  0  0
 18 20  2  0  0  0  0
M  END
> <VConfSearch Rank>
743

> <Conf_Id>
44

> <Delta U+W>
-1.440

> <U+W>
-53.185

> <U>
6.572

> <W>
-59.757

> <W(PB)>
-62.007

> <W(SA)>
2.249

> <Valence>
7.989

> <Coulomb>
-2.697

> <VdW>
1.281

> <VdW6>
-6.467

> <VdW12>
7.748

> <Bond>
0.136

> <Angle>
2.854

> <Pdih>
4.997

> <Idih>
0.001

> <Tether>
0.000

$$$$
VeraChem MOL file


 20 19  0  0  0  0  0  0  0  0999 V2000     
   22.4607   21.2426   22.2636 C   0  0  0  0  0  0  0  0  0  0  0  0
   21.7074   21.9432   21.9068 H   0  0  0  0  0  0  0  0  0  0  0  0
   23.4973   21.5752   22.2569 H   0  0  0  0  0  0  0  0  0  0  0  0
   22.1305   20.0211   22.6909 C   0  0  0  0  0  0  0  0  0  0  0  0
   22.9001   19.3348   23.0436 H   0  0  0  0  0  0  0  0  0  0  0  0
   20.7146   19.4906   22.7305 C   0  0  0  0  0  0  0  0  0  0  0  0
   20.0030   20.3193   22.6232 H   0  0  0  0  0  0  0  0  0  0  0  0
   20.5222   19.0318   23.7095 H   0  0  0  0  0  0  0  0  0  0  0  0
   20.4813   18.4475   21.6145 C   0  0  0  0  0  0  0  0  0  0  0  0
   20.6207   18.9217   20.6332 H   0  0  0  0  0  0  0  0  0  0  0  0
   21.2490   17.6656   21.6925 H   0  0  0  0  0  0  0  0  0  0  0  0
   19.0877   17.7778   21.6765 C   0  0  0  0  0  0  0  0  0  0  0  0
   18.9507   17.2948   22.6539 H   0  0  0  0  0  0  0  0  0  0  0  0
   19.0490   16.9758   20.9263 H   0  0  0  0  0  0  0  0  0  0  0  0
   17.9165   18.7602   21.4154 C   0  0  0  0  0  0  0  0  0  0  0  0
   17.8698   19.5237   22.2001 H   0  0  0  0  0  0  0  0  0  0  0  0
   18.0649   19.2813   20.4621 H   0  0  0  0  0  0  0  0  0  0  0  0
   16.5620   18.0624   21.3670 C   0  0  0  0  0  0  0  0  0  0  0  0
   16.1657   17.6531   20.2936 O   0  5  0  0  0  0  0  0  0  0  0  0
   15.9479   17.9287   22.4070 O   0  0  0  0  0  0  0  0  0  0  0  0
  1  2  1  0  0  0  0
  1  3  1  0  0  0  0
  1  4  2  0  0  0  0
  4  5  1  0  0  0  0
  4  6  1  0  0  0  0
  6  7  1  0  0  0  0
  6  8  1  0  0  0  0
  6  9  1  0  0  0  0
  9 10  1  0  0  0  0
  9 11  1  0  0  0  0
  9 12  1  0  0  0  0
 12 13  1  0  0  0  0
 12 14  1  0  0  0  0
 12 15  1  0  0  0  0
 15 16  1  0  0  0  0
 15 17  1  0  0  0  0
 15 18  1  0  0  0  0
 18 19  1  0  0  0  0
 18 20  2  0  0  0  0
M  END
> <VConfSearch Rank>
744

> <Conf_Id>
38

> <Delta U+W>
-0.381

> <U+W>
-52.126

> <U>
7.601

> <W>
-59.727

> <W(PB)>
-61.964

> <W(SA)>
2.236

> <Valence>
9.602

> <Coulomb>
-2.686

> <VdW>
0.685

> <VdW6>
-6.453

> <VdW12>
7.139

> <Bond>
0.125

> <Angle>
2.485

> <Pdih>
6.991

> <Idih>
0.001

> <Tether>
0.000

$$$$
VeraChem MOL file


 20 19  0  0  0  0  0  0  0  0999 V2000     
   22.4287   21.4546   22.6720 C   0  0  0  0  0  0  0  0  0  0  0  0
   21.7714   22.2445   23.0319 H   0  0  0  0  0  0  0  0  0  0  0  0
   23.4716   21.4906   22.9823 H   0  0  0  0  0  0  0  0  0  0  0  0
   21.9770   20.4766   21.8826 C   0  0  0  0  0  0  0  0  0  0  0  0
   22.6514   19.6948   21.5341 H   0  0  0  0  0  0  0  0  0  0  0  0
   20.5446   20.3614   21.4108 C   0  0  0  0  0  0  0  0  0  0  0  0
   20.5278   20.1882   20.3264 H   0  0  0  0  0  0  0  0  0  0  0  0
   20.0086   21.3036   21.5889 H   0  0  0  0  0  0  0  0  0  0  0  0
   19.8122   19.2090   22.1297 C   0  0  0  0  0  0  0  0  0  0  0  0
   20.3489   18.2676   21.9481 H   0  0  0  0  0  0  0  0  0  0  0  0
   19.8353   19.3834   23.2143 H   0  0  0  0  0  0  0  0  0  0  0  0
   18.3470   19.0755   21.6566 C   0  0  0  0  0  0  0  0  0  0  0  0
   18.3208   18.8905   20.5737 H   0  0  0  0  0  0  0  0  0  0  0  0
   17.8232   20.0257   21.8278 H   0  0  0  0  0  0  0  0  0  0  0  0
   17.5847   17.9415   22.3900 C   0  0  0  0  0  0  0  0  0  0  0  0
   17.6259   18.0971   23.4748 H   0  0  0  0  0  0  0  0  0  0  0  0
   16.5263   17.9677   22.1053 H   0  0  0  0  0  0  0  0  0  0  0  0
   18.1064   16.5415   22.0786 C   0  0  0  0  0  0  0  0  0  0  0  0
   18.7723   15.9742   22.9221 O   0  5  0  0  0  0  0  0  0  0  0  0
   17.8227   16.0512   21.0033 O   0  0  0  0  0  0  0  0  0  0  0  0
  1  2  1  0  0  0  0
  1  3  1  0  0  0  0
  1  4  2  0  0  0  0
  4  5  1  0  0  0  0
  4  6  1  0  0  0  0
  6  7  1  0  0  0  0
  6  8  1  0  0  0  0
  6  9  1  0  0  0  0
  9 10  1  0  0  0  0
  9 11  1  0  0  0  0
  9 12  1  0  0  0  0
 12 13  1  0  0  0  0
 12 14  1  0  0  0  0
 12 15  1  0  0  0  0
 15 16  1  0  0  0  0
 15 17  1  0  0  0  0
 15 18  1  0  0  0  0
 18 19  1  0  0  0  0
 18 20  2  0  0  0  0
M  END
> <VConfSearch Rank>
745

> <Conf_Id>
58

> <Delta U+W>
0.019

> <U+W>
-51.727

> <U>
8.963

> <W>
-60.690

> <W(PB)>
-62.934

> <W(SA)>
2.244

> <Valence>
9.327

> <Coulomb>
-0.780

> <VdW>
0.417

> <VdW6>
-6.635

> <VdW12>
7.052

> <Bond>
0.105

> <Angle>
2.399

> <Pdih>
6.822

> <Idih>
0.000

> <Tether>
0.000

$$$$
VeraChem MOL file


 20 19  0  0  0  0  0  0  0  0999 V2000     
   19.5092   16.7286   19.5208 C   0  0  0  0  0  0  0  0  0  0  0  0
   19.9125   17.3848   18.7511 H   0  0  0  0  0  0  0  0  0  0  0  0
   18.9170   15.8762   19.1924 H   0  0  0  0  0  0  0  0  0  0  0  0
   19.7279   16.9583   20.8181 C   0  0  0  0  0  0  0  0  0  0  0  0
   19.3144   16.2896   21.5728 H   0  0  0  0  0  0  0  0  0  0  0  0
   20.5394   18.1192   21.3486 C   0  0  0  0  0  0  0  0  0  0  0  0
   21.1193   18.5799   20.5373 H   0  0  0  0  0  0  0  0  0  0  0  0
   21.2648   17.7531   22.0874 H   0  0  0  0  0  0  0  0  0  0  0  0
   19.6306   19.1828   21.9996 C   0  0  0  0  0  0  0  0  0  0  0  0
   18.9034   19.5431   21.2590 H   0  0  0  0  0  0  0  0  0  0  0  0
   19.0534   18.7200   22.8121 H   0  0  0  0  0  0  0  0  0  0  0  0
   20.4449   20.3754   22.5500 C   0  0  0  0  0  0  0  0  0  0  0  0
   21.0301   20.8215   21.7345 H   0  0  0  0  0  0  0  0  0  0  0  0
   21.1661   20.0199   23.2990 H   0  0  0  0  0  0  0  0  0  0  0  0
   19.5462   21.4702   23.1815 C   0  0  0  0  0  0  0  0  0  0  0  0
   20.1592   22.3397   23.4464 H   0  0  0  0  0  0  0  0  0  0  0  0
   18.8020   21.8159   22.4539 H   0  0  0  0  0  0  0  0  0  0  0  0
   18.8194   21.0221   24.4464 C   0  0  0  0  0  0  0  0  0  0  0  0
   19.4601   20.9394   25.4758 O   0  5  0  0  0  0  0  0  0  0  0  0
   17.6310   20.7786   24.3721 O   0  0  0  0  0  0  0  0  0  0  0  0
  1  2  1  0  0  0  0
  1  3  1  0  0  0  0
  1  4  2  0  0  0  0
  4  5  1  0  0  0  0
  4  6  1  0  0  0  0
  6  7  1  0  0  0  0
  6  8  1  0  0  0  0
  6  9  1  0  0  0  0
  9 10  1  0  0  0  0
  9 11  1  0  0  0  0
  9 12  1  0  0  0  0
 12 13  1  0  0  0  0
 12 14  1  0  0  0  0
 12 15  1  0  0  0  0
 15 16  1  0  0  0  0
 15 17  1  0  0  0  0
 15 18  1  0  0  0  0
 18 19  1  0  0  0  0
 18 20  2  0  0  0  0
M  END
> <VConfSearch Rank>
746

> <Conf_Id>
54

> <Delta U+W>
-0.048

> <U+W>
-51.793

> <U>
8.964

> <W>
-60.756

> <W(PB)>
-63.007

> <W(SA)>
2.251

> <Valence>
9.327

> <Coulomb>
-0.780

> <VdW>
0.417

> <VdW6>
-6.635

> <VdW12>
7.052

> <Bond>
0.105

> <Angle>
2.399

> <Pdih>
6.822

> <Idih>
0.000

> <Tether>
0.000

$$$$
VeraChem MOL file


 20 19  0  0  0  0  0  0  0  0999 V2000     
   21.7846   18.7696   19.3032 C   0  0  0  0  0  0  0  0  0  0  0  0
   22.8120   18.4340   19.1729 H   0  0  0  0  0  0  0  0  0  0  0  0
   21.0668   18.4979   18.5310 H   0  0  0  0  0  0  0  0  0  0  0  0
   21.4223   19.4841   20.3718 C   0  0  0  0  0  0  0  0  0  0  0  0
   22.1576   19.7482   21.1313 H   0  0  0  0  0  0  0  0  0  0  0  0
   20.0165   19.9900   20.6160 C   0  0  0  0  0  0  0  0  0  0  0  0
   19.4579   20.0012   19.6702 H   0  0  0  0  0  0  0  0  0  0  0  0
   20.0484   21.0305   20.9660 H   0  0  0  0  0  0  0  0  0  0  0  0
   19.2460   19.1206   21.6351 C   0  0  0  0  0  0  0  0  0  0  0  0
   18.1998   19.4549   21.6619 H   0  0  0  0  0  0  0  0  0  0  0  0
   19.2322   18.0778   21.2891 H   0  0  0  0  0  0  0  0  0  0  0  0
   19.8437   19.1919   23.0605 C   0  0  0  0  0  0  0  0  0  0  0  0
   19.8711   20.2363   23.4010 H   0  0  0  0  0  0  0  0  0  0  0  0
   20.8829   18.8383   23.0404 H   0  0  0  0  0  0  0  0  0  0  0  0
   19.0487   18.3389   24.0830 C   0  0  0  0  0  0  0  0  0  0  0  0
   18.9838   17.2993   23.7396 H   0  0  0  0  0  0  0  0  0  0  0  0
   19.5820   18.3241   25.0408 H   0  0  0  0  0  0  0  0  0  0  0  0
   17.6373   18.8515   24.3551 C   0  0  0  0  0  0  0  0  0  0  0  0
   16.7019   18.2529   23.8612 O   0  5  0  0  0  0  0  0  0  0  0  0
   17.5106   19.8308   25.0636 O   0  0  0  0  0  0  0  0  0  0  0  0
  1  2  1  0  0  0  0
  1  3  1  0  0  0  0
  1  4  2  0  0  0  0
  4  5  1  0  0  0  0
  4  6  1  0  0  0  0
  6  7  1  0  0  0  0
  6  8  1  0  0  0  0
  6  9  1  0  0  0  0
  9 10  1  0  0  0  0
  9 11  1  0  0  0  0
  9 12  1  0  0  0  0
 12 13  1  0  0  0  0
 12 14  1  0  0  0  0
 12 15  1  0  0  0  0
 15 16  1  0  0  0  0
 15 17  1  0  0  0  0
 15 18  1  0  0  0  0
 18 19  1  0  0  0  0
 18 20  2  0  0  0  0
M  END
> <VConfSearch Rank>
747

> <Conf_Id>
27

> <Delta U+W>
0.478

> <U+W>
-51.267

> <U>
9.192

> <W>
-60.459

> <W(PB)>
-62.649

> <W(SA)>
2.190

> <Valence>
9.572

> <Coulomb>
-0.884

> <VdW>
0.504

> <VdW6>
-7.168

> <VdW12>
7.672

> <Bond>
0.127

> <Angle>
2.504

> <Pdih>
6.941

> <Idih>
0.001

> <Tether>
0.000

$$$$
VeraChem MOL file


 20 19  0  0  0  0  0  0  0  0999 V2000     
   16.6133   17.5033   21.5821 C   0  0  0  0  0  0  0  0  0  0  0  0
   16.2625   17.7829   20.5900 H   0  0  0  0  0  0  0  0  0  0  0  0
   15.8622   17.3577   22.3567 H   0  0  0  0  0  0  0  0  0  0  0  0
   17.9136   17.3471   21.8437 C   0  0  0  0  0  0  0  0  0  0  0  0
   18.2429   17.0639   22.8430 H   0  0  0  0  0  0  0  0  0  0  0  0
   19.0120   17.5262   20.8174 C   0  0  0  0  0  0  0  0  0  0  0  0
   18.5895   17.4524   19.8062 H   0  0  0  0  0  0  0  0  0  0  0  0
   19.7427   16.7111   20.9053 H   0  0  0  0  0  0  0  0  0  0  0  0
   19.7300   18.8876   20.9558 C   0  0  0  0  0  0  0  0  0  0  0  0
   20.4185   19.0120   20.1088 H   0  0  0  0  0  0  0  0  0  0  0  0
   18.9919   19.6983   20.8829 H   0  0  0  0  0  0  0  0  0  0  0  0
   20.5223   19.0178   22.2769 C   0  0  0  0  0  0  0  0  0  0  0  0
   21.2419   18.1916   22.3605 H   0  0  0  0  0  0  0  0  0  0  0  0
   19.8396   18.9345   23.1335 H   0  0  0  0  0  0  0  0  0  0  0  0
   21.2792   20.3660   22.3634 C   0  0  0  0  0  0  0  0  0  0  0  0
   21.9795   20.4621   21.5250 H   0  0  0  0  0  0  0  0  0  0  0  0
   20.5726   21.2017   22.2934 H   0  0  0  0  0  0  0  0  0  0  0  0
   22.0681   20.5197   23.6588 C   0  0  0  0  0  0  0  0  0  0  0  0
   21.5115   21.0264   24.6128 O   0  5  0  0  0  0  0  0  0  0  0  0
   23.2127   20.1126   23.6849 O   0  0  0  0  0  0  0  0  0  0  0  0
  1  2  1  0  0  0  0
  1  3  1  0  0  0  0
  1  4  2  0  0  0  0
  4  5  1  0  0  0  0
  4  6  1  0  0  0  0
  6  7  1  0  0  0  0
  6  8  1  0  0  0  0
  6  9  1  0  0  0  0
  9 10  1  0  0  0  0
  9 11  1  0  0  0  0
  9 12  1  0  0  0  0
 12 13  1  0  0  0  0
 12 14  1  0  0  0  0
 12 15  1  0  0  0  0
 15 16  1  0  0  0  0
 15 17  1  0  0  0  0
 15 18  1  0  0  0  0
 18 19  1  0  0  0  0
 18 20  2  0  0  0  0
M  END
> <VConfSearch Rank>
748

> <Conf_Id>
41

> <Delta U+W>
-0.634

> <U+W>
-52.379

> <U>
7.828

> <W>
-60.207

> <W(PB)>
-62.449

> <W(SA)>
2.242

> <Valence>
9.300

> <Coulomb>
-2.080

> <VdW>
0.608

> <VdW6>
-6.341

> <VdW12>
6.949

> <Bond>
0.103

> <Angle>
2.334

> <Pdih>
6.862

> <Idih>
0.001

> <Tether>
0.000

$$$$
VeraChem MOL file


 20 19  0  0  0  0  0  0  0  0999 V2000     
   22.2597   16.2698   22.0862 C   0  0  0  0  0  0  0  0  0  0  0  0
   22.6068   15.3720   21.5775 H   0  0  0  0  0  0  0  0  0  0  0  0
   22.9487   16.7518   22.7778 H   0  0  0  0  0  0  0  0  0  0  0  0
   21.0366   16.7588   21.8657 C   0  0  0  0  0  0  0  0  0  0  0  0
   20.3621   16.2617   21.1688 H   0  0  0  0  0  0  0  0  0  0  0  0
   20.4855   17.9982   22.5346 C   0  0  0  0  0  0  0  0  0  0  0  0
   21.1125   18.2786   23.3917 H   0  0  0  0  0  0  0  0  0  0  0  0
   19.4848   17.7790   22.9292 H   0  0  0  0  0  0  0  0  0  0  0  0
   20.4119   19.1789   21.5407 C   0  0  0  0  0  0  0  0  0  0  0  0
   21.4006   19.3183   21.0821 H   0  0  0  0  0  0  0  0  0  0  0  0
   19.7247   18.9270   20.7213 H   0  0  0  0  0  0  0  0  0  0  0  0
   19.9803   20.5138   22.1965 C   0  0  0  0  0  0  0  0  0  0  0  0
   20.0292   21.3106   21.4415 H   0  0  0  0  0  0  0  0  0  0  0  0
   20.7047   20.7845   22.9764 H   0  0  0  0  0  0  0  0  0  0  0  0
   18.5538   20.4960   22.8106 C   0  0  0  0  0  0  0  0  0  0  0  0
   18.4904   19.7614   23.6214 H   0  0  0  0  0  0  0  0  0  0  0  0
   18.3401   21.4727   23.2601 H   0  0  0  0  0  0  0  0  0  0  0  0
   17.4450   20.2081   21.8024 C   0  0  0  0  0  0  0  0  0  0  0  0
   17.1624   21.0755   20.9992 O   0  5  0  0  0  0  0  0  0  0  0  0
   16.8812   19.1329   21.8576 O   0  0  0  0  0  0  0  0  0  0  0  0
  1  2  1  0  0  0  0
  1  3  1  0  0  0  0
  1  4  2  0  0  0  0
  4  5  1  0  0  0  0
  4  6  1  0  0  0  0
  6  7  1  0  0  0  0
  6  8  1  0  0  0  0
  6  9  1  0  0  0  0
  9 10  1  0  0  0  0
  9 11  1  0  0  0  0
  9 12  1  0  0  0  0
 12 13  1  0  0  0  0
 12 14  1  0  0  0  0
 12 15  1  0  0  0  0
 15 16  1  0  0  0  0
 15 17  1  0  0  0  0
 15 18  1  0  0  0  0
 18 19  1  0  0  0  0
 18 20  2  0  0  0  0
M  END
> <VConfSearch Rank>
749

> <Conf_Id>
84

> <Delta U+W>
0.942

> <U+W>
-50.803

> <U>
10.196

> <W>
-60.999

> <W(PB)>
-63.182

> <W(SA)>
2.182

> <Valence>
9.837

> <Coulomb>
0.032

> <VdW>
0.328

> <VdW6>
-7.642

> <VdW12>
7.969

> <Bond>
0.151

> <Angle>
2.748

> <Pdih>
6.937

> <Idih>
0.001

> <Tether>
0.000

$$$$
VeraChem MOL file


 20 19  0  0  0  0  0  0  0  0999 V2000     
   19.1457   20.7246   18.9772 C   0  0  0  0  0  0  0  0  0  0  0  0
   19.0367   21.6632   18.4364 H   0  0  0  0  0  0  0  0  0  0  0  0
   19.8196   19.9797   18.5570 H   0  0  0  0  0  0  0  0  0  0  0  0
   18.4790   20.5008   20.1126 C   0  0  0  0  0  0  0  0  0  0  0  0
   17.8099   21.2601   20.5168 H   0  0  0  0  0  0  0  0  0  0  0  0
   18.5791   19.2237   20.9168 C   0  0  0  0  0  0  0  0  0  0  0  0
   19.0565   18.4348   20.3198 H   0  0  0  0  0  0  0  0  0  0  0  0
   17.5708   18.8661   21.1649 H   0  0  0  0  0  0  0  0  0  0  0  0
   19.3844   19.4439   22.2145 C   0  0  0  0  0  0  0  0  0  0  0  0
   20.3895   19.8076   21.9591 H   0  0  0  0  0  0  0  0  0  0  0  0
   18.9053   20.2300   22.8140 H   0  0  0  0  0  0  0  0  0  0  0  0
   19.4931   18.1484   23.0500 C   0  0  0  0  0  0  0  0  0  0  0  0
   19.9848   17.3638   22.4581 H   0  0  0  0  0  0  0  0  0  0  0  0
   18.4842   17.7824   23.2839 H   0  0  0  0  0  0  0  0  0  0  0  0
   20.2723   18.3565   24.3746 C   0  0  0  0  0  0  0  0  0  0  0  0
   19.8090   19.1562   24.9651 H   0  0  0  0  0  0  0  0  0  0  0  0
   20.2182   17.4434   24.9790 H   0  0  0  0  0  0  0  0  0  0  0  0
   21.7492   18.6878   24.1798 C   0  0  0  0  0  0  0  0  0  0  0  0
   22.1109   19.8339   24.3602 O   0  5  0  0  0  0  0  0  0  0  0  0
   22.5013   17.7864   23.8653 O   0  0  0  0  0  0  0  0  0  0  0  0
  1  2  1  0  0  0  0
  1  3  1  0  0  0  0
  1  4  2  0  0  0  0
  4  5  1  0  0  0  0
  4  6  1  0  0  0  0
  6  7  1  0  0  0  0
  6  8  1  0  0  0  0
  6  9  1  0  0  0  0
  9 10  1  0  0  0  0
  9 11  1  0  0  0  0
  9 12  1  0  0  0  0
 12 13  1  0  0  0  0
 12 14  1  0  0  0  0
 12 15  1  0  0  0  0
 15 16  1  0  0  0  0
 15 17  1  0  0  0  0
 15 18  1  0  0  0  0
 18 19  1  0  0  0  0
 18 20  2  0  0  0  0
M  END
> <VConfSearch Rank>
750

> <Conf_Id>
81

> <Delta U+W>
-0.051

> <U+W>
-51.796

> <U>
9.412

> <W>
-61.209

> <W(PB)>
-63.452

> <W(SA)>
2.243

> <Valence>
9.329

> <Coulomb>
-0.323

> <VdW>
0.406

> <VdW6>
-6.640

> <VdW12>
7.046

> <Bond>
0.105

> <Angle>
2.401

> <Pdih>
6.823

> <Idih>
0.000

> <Tether>
0.000

$$$$
VeraChem MOL file


 20 19  0  0  0  0  0  0  0  0999 V2000     
   22.7033   19.6356   22.9632 C   0  0  0  0  0  0  0  0  0  0  0  0
   23.3242   18.8607   22.5164 H   0  0  0  0  0  0  0  0  0  0  0  0
   23.2076   20.5148   23.3605 H   0  0  0  0  0  0  0  0  0  0  0  0
   21.3743   19.5172   23.0210 C   0  0  0  0  0  0  0  0  0  0  0  0
   20.7714   20.3033   23.4746 H   0  0  0  0  0  0  0  0  0  0  0  0
   20.6054   18.3238   22.4953 C   0  0  0  0  0  0  0  0  0  0  0  0
   19.8452   18.0147   23.2244 H   0  0  0  0  0  0  0  0  0  0  0  0
   21.2824   17.4658   22.3872 H   0  0  0  0  0  0  0  0  0  0  0  0
   19.9446   18.6036   21.1243 C   0  0  0  0  0  0  0  0  0  0  0  0
   20.7320   18.8256   20.3911 H   0  0  0  0  0  0  0  0  0  0  0  0
   19.4517   17.6867   20.7731 H   0  0  0  0  0  0  0  0  0  0  0  0
   18.9197   19.7670   21.1240 C   0  0  0  0  0  0  0  0  0  0  0  0
   18.5347   19.8964   20.1031 H   0  0  0  0  0  0  0  0  0  0  0  0
   19.4307   20.7055   21.3767 H   0  0  0  0  0  0  0  0  0  0  0  0
   17.7181   19.5654   22.0872 C   0  0  0  0  0  0  0  0  0  0  0  0
   18.0615   19.5081   23.1264 H   0  0  0  0  0  0  0  0  0  0  0  0
   17.0549   20.4360   22.0273 H   0  0  0  0  0  0  0  0  0  0  0  0
   16.8756   18.3303   21.7818 C   0  0  0  0  0  0  0  0  0  0  0  0
   16.9394   17.3861   22.5444 O   0  5  0  0  0  0  0  0  0  0  0  0
   16.1635   18.3524   20.7970 O   0  0  0  0  0  0  0  0  0  0  0  0
  1  2  1  0  0  0  0
  1  3  1  0  0  0  0
  1  4  2  0  0  0  0
  4  5  1  0  0  0  0
  4  6  1  0  0  0  0
  6  7  1  0  0  0  0
  6  8  1  0  0  0  0
  6  9  1  0  0  0  0
  9 10  1  0  0  0  0
  9 11  1  0  0  0  0
  9 12  1  0  0  0  0
 12 13  1  0  0  0  0
 12 14  1  0  0  0  0
 12 15  1  0  0  0  0
 15 16  1  0  0  0  0
 15 17  1  0  0  0  0
 15 18  1  0  0  0  0
 18 19  1  0  0  0  0
 18 20  2  0  0  0  0
M  END
> <VConfSearch Rank>
751

> <Conf_Id>
86

> <Delta U+W>
1.248

> <U+W>
-50.498

> <U>
10.404

> <W>
-60.901

> <W(PB)>
-63.061

> <W(SA)>
2.159

> <Valence>
10.021

> <Coulomb>
0.094

> <VdW>
0.289

> <VdW6>
-8.409

> <VdW12>
8.698

> <Bond>
0.179

> <Angle>
2.939

> <Pdih>
6.902

> <Idih>
0.001

> <Tether>
0.000

$$$$
VeraChem MOL file


 20 19  0  0  0  0  0  0  0  0999 V2000     
   22.0470   18.7744   24.1790 C   0  0  0  0  0  0  0  0  0  0  0  0
   22.1505   18.8472   25.2603 H   0  0  0  0  0  0  0  0  0  0  0  0
   22.3336   17.8345   23.7102 H   0  0  0  0  0  0  0  0  0  0  0  0
   21.5825   19.7994   23.4595 C   0  0  0  0  0  0  0  0  0  0  0  0
   21.2990   20.7310   23.9486 H   0  0  0  0  0  0  0  0  0  0  0  0
   21.4106   19.7727   21.9556 C   0  0  0  0  0  0  0  0  0  0  0  0
   21.9016   18.8892   21.5256 H   0  0  0  0  0  0  0  0  0  0  0  0
   21.9127   20.6477   21.5218 H   0  0  0  0  0  0  0  0  0  0  0  0
   19.9238   19.7922   21.5347 C   0  0  0  0  0  0  0  0  0  0  0  0
   19.4310   20.6735   21.9676 H   0  0  0  0  0  0  0  0  0  0  0  0
   19.8679   19.9070   20.4435 H   0  0  0  0  0  0  0  0  0  0  0  0
   19.1676   18.5096   21.9551 C   0  0  0  0  0  0  0  0  0  0  0  0
   19.2168   18.3972   23.0464 H   0  0  0  0  0  0  0  0  0  0  0  0
   19.6630   17.6281   21.5250 H   0  0  0  0  0  0  0  0  0  0  0  0
   17.6787   18.5258   21.5215 C   0  0  0  0  0  0  0  0  0  0  0  0
   17.1637   17.6571   21.9482 H   0  0  0  0  0  0  0  0  0  0  0  0
   17.1786   19.4178   21.9179 H   0  0  0  0  0  0  0  0  0  0  0  0
   17.4718   18.4820   20.0102 C   0  0  0  0  0  0  0  0  0  0  0  0
   17.6272   17.4191   19.4417 O   0  5  0  0  0  0  0  0  0  0  0  0
   17.1500   19.5075   19.4430 O   0  0  0  0  0  0  0  0  0  0  0  0
  1  2  1  0  0  0  0
  1  3  1  0  0  0  0
  1  4  2  0  0  0  0
  4  5  1  0  0  0  0
  4  6  1  0  0  0  0
  6  7  1  0  0  0  0
  6  8  1  0  0  0  0
  6  9  1  0  0  0  0
  9 10  1  0  0  0  0
  9 11  1  0  0  0  0
  9 12  1  0  0  0  0
 12 13  1  0  0  0  0
 12 14  1  0  0  0  0
 12 15  1  0  0  0  0
 15 16  1  0  0  0  0
 15 17  1  0  0  0  0
 15 18  1  0  0  0  0
 18 19  1  0  0  0  0
 18 20  2  0  0  0  0
M  END
> <VConfSearch Rank>
752

> <Conf_Id>
28

> <Delta U+W>
0.446

> <U+W>
-51.299

> <U>
9.295

> <W>
-60.594

> <W(PB)>
-62.806

> <W(SA)>
2.212

> <Valence>
9.495

> <Coulomb>
-0.610

> <VdW>
0.409

> <VdW6>
-7.332

> <VdW12>
7.741

> <Bond>
0.126

> <Angle>
2.497

> <Pdih>
6.872

> <Idih>
0.000

> <Tether>
0.000

$$$$
VeraChem MOL file


 20 19  0  0  0  0  0  0  0  0999 V2000     
   22.0555   17.1242   21.6601 C   0  0  0  0  0  0  0  0  0  0  0  0
   21.4717   17.2028   20.7455 H   0  0  0  0  0  0  0  0  0  0  0  0
   22.9637   16.5257   21.6133 H   0  0  0  0  0  0  0  0  0  0  0  0
   21.6941   17.7297   22.7971 C   0  0  0  0  0  0  0  0  0  0  0  0
   22.3217   17.6158   23.6806 H   0  0  0  0  0  0  0  0  0  0  0  0
   20.4615   18.5912   23.0162 C   0  0  0  0  0  0  0  0  0  0  0  0
   20.7899   19.6017   23.2916 H   0  0  0  0  0  0  0  0  0  0  0  0
   19.9144   18.2063   23.8869 H   0  0  0  0  0  0  0  0  0  0  0  0
   19.4953   18.6684   21.8082 C   0  0  0  0  0  0  0  0  0  0  0  0
   20.0072   19.1350   20.9554 H   0  0  0  0  0  0  0  0  0  0  0  0
   19.2301   17.6489   21.4966 H   0  0  0  0  0  0  0  0  0  0  0  0
   18.1856   19.4370   22.1131 C   0  0  0  0  0  0  0  0  0  0  0  0
   17.6545   18.9358   22.9335 H   0  0  0  0  0  0  0  0  0  0  0  0
   17.5265   19.3730   21.2363 H   0  0  0  0  0  0  0  0  0  0  0  0
   18.3864   20.9339   22.4760 C   0  0  0  0  0  0  0  0  0  0  0  0
   17.4117   21.3899   22.6851 H   0  0  0  0  0  0  0  0  0  0  0  0
   18.9782   21.0345   23.3928 H   0  0  0  0  0  0  0  0  0  0  0  0
   19.0456   21.7599   21.3751 C   0  0  0  0  0  0  0  0  0  0  0  0
   18.4008   21.9954   20.3720 O   0  5  0  0  0  0  0  0  0  0  0  0
   20.1773   22.1636   21.5574 O   0  0  0  0  0  0  0  0  0  0  0  0
  1  2  1  0  0  0  0
  1  3  1  0  0  0  0
  1  4  2  0  0  0  0
  4  5  1  0  0  0  0
  4  6  1  0  0  0  0
  6  7  1  0  0  0  0
  6  8  1  0  0  0  0
  6  9  1  0  0  0  0
  9 10  1  0  0  0  0
  9 11  1  0  0  0  0
  9 12  1  0  0  0  0
 12 13  1  0  0  0  0
 12 14  1  0  0  0  0
 12 15  1  0  0  0  0
 15 16  1  0  0  0  0
 15 17  1  0  0  0  0
 15 18  1  0  0  0  0
 18 19  1  0  0  0  0
 18 20  2  0  0  0  0
M  END
> <VConfSearch Rank>
753

> <Conf_Id>
53

> <Delta U+W>
0.549

> <U+W>
-51.197

> <U>
10.870

> <W>
-62.067

> <W(PB)>
-64.228

> <W(SA)>
2.161

> <Valence>
8.803

> <Coulomb>
1.020

> <VdW>
1.048

> <VdW6>
-8.312

> <VdW12>
9.360

> <Bond>
0.212

> <Angle>
3.379

> <Pdih>
5.211

> <Idih>
0.001

> <Tether>
0.000

$$$$
VeraChem MOL file


 20 19  0  0  0  0  0  0  0  0999 V2000     
   22.0998   17.5240   21.5295 C   0  0  0  0  0  0  0  0  0  0  0  0
   21.5668   17.3395   20.5994 H   0  0  0  0  0  0  0  0  0  0  0  0
   22.8306   16.7780   21.8367 H   0  0  0  0  0  0  0  0  0  0  0  0
   21.8828   18.6165   22.2699 C   0  0  0  0  0  0  0  0  0  0  0  0
   22.4462   18.7545   23.1923 H   0  0  0  0  0  0  0  0  0  0  0  0
   20.8943   19.7302   21.9661 C   0  0  0  0  0  0  0  0  0  0  0  0
   21.4362   20.5648   21.5021 H   0  0  0  0  0  0  0  0  0  0  0  0
   20.5125   20.1365   22.9115 H   0  0  0  0  0  0  0  0  0  0  0  0
   19.6911   19.3414   21.0678 C   0  0  0  0  0  0  0  0  0  0  0  0
   19.0994   20.2447   20.8660 H   0  0  0  0  0  0  0  0  0  0  0  0
   20.0593   19.0060   20.0895 H   0  0  0  0  0  0  0  0  0  0  0  0
   18.7587   18.2546   21.6648 C   0  0  0  0  0  0  0  0  0  0  0  0
   19.3202   17.3219   21.8037 H   0  0  0  0  0  0  0  0  0  0  0  0
   17.9695   18.0289   20.9346 H   0  0  0  0  0  0  0  0  0  0  0  0
   18.0920   18.6466   23.0117 C   0  0  0  0  0  0  0  0  0  0  0  0
   17.4592   17.8207   23.3568 H   0  0  0  0  0  0  0  0  0  0  0  0
   18.8509   18.7997   23.7874 H   0  0  0  0  0  0  0  0  0  0  0  0
   17.2124   19.8911   22.9340 C   0  0  0  0  0  0  0  0  0  0  0  0
   17.6091   20.9113   23.4621 O   0  5  0  0  0  0  0  0  0  0  0  0
   16.1436   19.8018   22.3619 O   0  0  0  0  0  0  0  0  0  0  0  0
  1  2  1  0  0  0  0
  1  3  1  0  0  0  0
  1  4  2  0  0  0  0
  4  5  1  0  0  0  0
  4  6  1  0  0  0  0
  6  7  1  0  0  0  0
  6  8  1  0  0  0  0
  6  9  1  0  0  0  0
  9 10  1  0  0  0  0
  9 11  1  0  0  0  0
  9 12  1  0  0  0  0
 12 13  1  0  0  0  0
 12 14  1  0  0  0  0
 12 15  1  0  0  0  0
 15 16  1  0  0  0  0
 15 17  1  0  0  0  0
 15 18  1  0  0  0  0
 18 19  1  0  0  0  0
 18 20  2  0  0  0  0
M  END
> <VConfSearch Rank>
754

> <Conf_Id>
66

> <Delta U+W>
1.737

> <U+W>
-50.008

> <U>
11.091

> <W>
-61.099

> <W(PB)>
-63.213

> <W(SA)>
2.114

> <Valence>
9.664

> <Coulomb>
0.658

> <VdW>
0.769

> <VdW6>
-9.171

> <VdW12>
9.940

> <Bond>
0.244

> <Angle>
3.658

> <Pdih>
5.762

> <Idih>
0.001

> <Tether>
0.000

$$$$
VeraChem MOL file


 20 19  0  0  0  0  0  0  0  0999 V2000     
   19.2109   16.8768   20.3934 C   0  0  0  0  0  0  0  0  0  0  0  0
   18.7642   17.6633   19.7893 H   0  0  0  0  0  0  0  0  0  0  0  0
   19.7260   16.0785   19.8619 H   0  0  0  0  0  0  0  0  0  0  0  0
   19.1349   16.8728   21.7287 C   0  0  0  0  0  0  0  0  0  0  0  0
   19.5986   16.0583   22.2845 H   0  0  0  0  0  0  0  0  0  0  0  0
   18.4569   17.9183   22.5992 C   0  0  0  0  0  0  0  0  0  0  0  0
   19.0214   18.0222   23.5342 H   0  0  0  0  0  0  0  0  0  0  0  0
   17.4748   17.5349   22.9059 H   0  0  0  0  0  0  0  0  0  0  0  0
   18.2782   19.3206   21.9604 C   0  0  0  0  0  0  0  0  0  0  0  0
   17.6644   19.2328   21.0542 H   0  0  0  0  0  0  0  0  0  0  0  0
   17.6995   19.9500   22.6499 H   0  0  0  0  0  0  0  0  0  0  0  0
   19.6023   20.0491   21.6159 C   0  0  0  0  0  0  0  0  0  0  0  0
   19.3607   20.9860   21.0953 H   0  0  0  0  0  0  0  0  0  0  0  0
   20.1933   19.4498   20.9109 H   0  0  0  0  0  0  0  0  0  0  0  0
   20.4687   20.3807   22.8586 C   0  0  0  0  0  0  0  0  0  0  0  0
   19.8773   20.9365   23.5959 H   0  0  0  0  0  0  0  0  0  0  0  0
   20.8142   19.4606   23.3432 H   0  0  0  0  0  0  0  0  0  0  0  0
   21.6981   21.2142   22.5149 C   0  0  0  0  0  0  0  0  0  0  0  0
   22.7331   20.6327   22.2556 O   0  5  0  0  0  0  0  0  0  0  0  0
   21.5847   22.4241   22.5016 O   0  0  0  0  0  0  0  0  0  0  0  0
  1  2  1  0  0  0  0
  1  3  1  0  0  0  0
  1  4  2  0  0  0  0
  4  5  1  0  0  0  0
  4  6  1  0  0  0  0
  6  7  1  0  0  0  0
  6  8  1  0  0  0  0
  6  9  1  0  0  0  0
  9 10  1  0  0  0  0
  9 11  1  0  0  0  0
  9 12  1  0  0  0  0
 12 13  1  0  0  0  0
 12 14  1  0  0  0  0
 12 15  1  0  0  0  0
 15 16  1  0  0  0  0
 15 17  1  0  0  0  0
 15 18  1  0  0  0  0
 18 19  1  0  0  0  0
 18 20  2  0  0  0  0
M  END
> <VConfSearch Rank>
755

> <Conf_Id>
64

> <Delta U+W>
0.366

> <U+W>
-51.379

> <U>
10.000

> <W>
-61.379

> <W(PB)>
-63.541

> <W(SA)>
2.162

> <Valence>
9.398

> <Coulomb>
-0.504

> <VdW>
1.105

> <VdW6>
-7.975

> <VdW12>
9.080

> <Bond>
0.216

> <Angle>
3.417

> <Pdih>
5.765

> <Idih>
0.001

> <Tether>
0.000

$$$$
VeraChem MOL file


 20 19  0  0  0  0  0  0  0  0999 V2000     
   20.1554   20.4067   24.6839 C   0  0  0  0  0  0  0  0  0  0  0  0
   19.3636   19.7446   25.0304 H   0  0  0  0  0  0  0  0  0  0  0  0
   20.1324   21.4389   25.0289 H   0  0  0  0  0  0  0  0  0  0  0  0
   21.1171   19.9742   23.8640 C   0  0  0  0  0  0  0  0  0  0  0  0
   21.8992   20.6539   23.5268 H   0  0  0  0  0  0  0  0  0  0  0  0
   21.2145   18.5563   23.3424 C   0  0  0  0  0  0  0  0  0  0  0  0
   20.5213   17.8972   23.8826 H   0  0  0  0  0  0  0  0  0  0  0  0
   22.2240   18.1708   23.5378 H   0  0  0  0  0  0  0  0  0  0  0  0
   20.9327   18.4694   21.8255 C   0  0  0  0  0  0  0  0  0  0  0  0
   21.6256   19.1292   21.2855 H   0  0  0  0  0  0  0  0  0  0  0  0
   21.1418   17.4464   21.4840 H   0  0  0  0  0  0  0  0  0  0  0  0
   19.4742   18.8362   21.4679 C   0  0  0  0  0  0  0  0  0  0  0  0
   19.2605   19.8676   21.7806 H   0  0  0  0  0  0  0  0  0  0  0  0
   18.7827   18.1865   22.0221 H   0  0  0  0  0  0  0  0  0  0  0  0
   19.2010   18.6987   19.9499 C   0  0  0  0  0  0  0  0  0  0  0  0
   19.8759   19.3515   19.3834 H   0  0  0  0  0  0  0  0  0  0  0  0
   19.3931   17.6701   19.6219 H   0  0  0  0  0  0  0  0  0  0  0  0
   17.7679   19.0557   19.5718 C   0  0  0  0  0  0  0  0  0  0  0  0
   16.9301   18.1761   19.6043 O   0  5  0  0  0  0  0  0  0  0  0  0
   17.5242   20.2069   19.2682 O   0  0  0  0  0  0  0  0  0  0  0  0
  1  2  1  0  0  0  0
  1  3  1  0  0  0  0
  1  4  2  0  0  0  0
  4  5  1  0  0  0  0
  4  6  1  0  0  0  0
  6  7  1  0  0  0  0
  6  8  1  0  0  0  0
  6  9  1  0  0  0  0
  9 10  1  0  0  0  0
  9 11  1  0  0  0  0
  9 12  1  0  0  0  0
 12 13  1  0  0  0  0
 12 14  1  0  0  0  0
 12 15  1  0  0  0  0
 15 16  1  0  0  0  0
 15 17  1  0  0  0  0
 15 18  1  0  0  0  0
 18 19  1  0  0  0  0
 18 20  2  0  0  0  0
M  END
> <VConfSearch Rank>
756

> <Conf_Id>
42

> <Delta U+W>
-0.601

> <U+W>
-52.347

> <U>
8.428

> <W>
-60.774

> <W(PB)>
-62.982

> <W(SA)>
2.208

> <Valence>
9.231

> <Coulomb>
-1.304

> <VdW>
0.501

> <VdW6>
-6.515

> <VdW12>
7.016

> <Bond>
0.103

> <Angle>
2.328

> <Pdih>
6.799

> <Idih>
0.000

> <Tether>
0.000

$$$$
VeraChem MOL file


 20 19  0  0  0  0  0  0  0  0999 V2000     
   17.5001   17.1672   22.3689 C   0  0  0  0  0  0  0  0  0  0  0  0
   18.1928   16.3636   22.6134 H   0  0  0  0  0  0  0  0  0  0  0  0
   16.6374   16.9156   21.7544 H   0  0  0  0  0  0  0  0  0  0  0  0
   17.6997   18.4153   22.8006 C   0  0  0  0  0  0  0  0  0  0  0  0
   16.9957   19.2059   22.5421 H   0  0  0  0  0  0  0  0  0  0  0  0
   18.8743   18.8408   23.6556 C   0  0  0  0  0  0  0  0  0  0  0  0
   19.4187   17.9630   24.0293 H   0  0  0  0  0  0  0  0  0  0  0  0
   18.5002   19.3729   24.5403 H   0  0  0  0  0  0  0  0  0  0  0  0
   19.8487   19.7664   22.8927 C   0  0  0  0  0  0  0  0  0  0  0  0
   19.3035   20.6470   22.5257 H   0  0  0  0  0  0  0  0  0  0  0  0
   20.6080   20.1385   23.5940 H   0  0  0  0  0  0  0  0  0  0  0  0
   20.5515   19.0517   21.7144 C   0  0  0  0  0  0  0  0  0  0  0  0
   19.8054   18.7107   20.9834 H   0  0  0  0  0  0  0  0  0  0  0  0
   21.0602   18.1529   22.0880 H   0  0  0  0  0  0  0  0  0  0  0  0
   21.5879   19.9579   21.0006 C   0  0  0  0  0  0  0  0  0  0  0  0
   22.3281   20.3275   21.7204 H   0  0  0  0  0  0  0  0  0  0  0  0
   22.1361   19.3702   20.2549 H   0  0  0  0  0  0  0  0  0  0  0  0
   20.9724   21.1531   20.2783 C   0  0  0  0  0  0  0  0  0  0  0  0
   21.0582   22.2476   20.7997 O   0  5  0  0  0  0  0  0  0  0  0  0
   20.4391   20.9599   19.2034 O   0  0  0  0  0  0  0  0  0  0  0  0
  1  2  1  0  0  0  0
  1  3  1  0  0  0  0
  1  4  2  0  0  0  0
  4  5  1  0  0  0  0
  4  6  1  0  0  0  0
  6  7  1  0  0  0  0
  6  8  1  0  0  0  0
  6  9  1  0  0  0  0
  9 10  1  0  0  0  0
  9 11  1  0  0  0  0
  9 12  1  0  0  0  0
 12 13  1  0  0  0  0
 12 14  1  0  0  0  0
 12 15  1  0  0  0  0
 15 16  1  0  0  0  0
 15 17  1  0  0  0  0
 15 18  1  0  0  0  0
 18 19  1  0  0  0  0
 18 20  2  0  0  0  0
M  END
> <VConfSearch Rank>
757

> <Conf_Id>
68

> <Delta U+W>
0.492

> <U+W>
-51.253

> <U>
10.179

> <W>
-61.432

> <W(PB)>
-63.627

> <W(SA)>
2.195

> <Valence>
9.483

> <Coulomb>
0.361

> <VdW>
0.335

> <VdW6>
-7.385

> <VdW12>
7.720

> <Bond>
0.125

> <Angle>
2.487

> <Pdih>
6.870

> <Idih>
0.001

> <Tether>
0.000

$$$$
VeraChem MOL file


 20 19  0  0  0  0  0  0  0  0999 V2000     
   16.9851   18.5699   20.4842 C   0  0  0  0  0  0  0  0  0  0  0  0
   16.8853   17.4952   20.6269 H   0  0  0  0  0  0  0  0  0  0  0  0
   16.6171   18.9876   19.5486 H   0  0  0  0  0  0  0  0  0  0  0  0
   17.5399   19.3487   21.4166 C   0  0  0  0  0  0  0  0  0  0  0  0
   17.6274   20.4226   21.2545 H   0  0  0  0  0  0  0  0  0  0  0  0
   18.0673   18.8403   22.7414 C   0  0  0  0  0  0  0  0  0  0  0  0
   17.6348   17.8543   22.9586 H   0  0  0  0  0  0  0  0  0  0  0  0
   17.7417   19.5042   23.5533 H   0  0  0  0  0  0  0  0  0  0  0  0
   19.6078   18.7185   22.7533 C   0  0  0  0  0  0  0  0  0  0  0  0
   19.9171   18.2255   23.6850 H   0  0  0  0  0  0  0  0  0  0  0  0
   19.9267   18.0623   21.9315 H   0  0  0  0  0  0  0  0  0  0  0  0
   20.3203   20.0874   22.6427 C   0  0  0  0  0  0  0  0  0  0  0  0
   19.9569   20.7505   23.4393 H   0  0  0  0  0  0  0  0  0  0  0  0
   20.0651   20.5686   21.6888 H   0  0  0  0  0  0  0  0  0  0  0  0
   21.8623   19.9660   22.7535 C   0  0  0  0  0  0  0  0  0  0  0  0
   22.3072   20.9675   22.7862 H   0  0  0  0  0  0  0  0  0  0  0  0
   22.1373   19.4658   23.6899 H   0  0  0  0  0  0  0  0  0  0  0  0
   22.5098   19.2161   21.5928 C   0  0  0  0  0  0  0  0  0  0  0  0
   22.6521   19.8051   20.5392 O   0  5  0  0  0  0  0  0  0  0  0  0
   22.8723   18.0709   21.7778 O   0  0  0  0  0  0  0  0  0  0  0  0
  1  2  1  0  0  0  0
  1  3  1  0  0  0  0
  1  4  2  0  0  0  0
  4  5  1  0  0  0  0
  4  6  1  0  0  0  0
  6  7  1  0  0  0  0
  6  8  1  0  0  0  0
  6  9  1  0  0  0  0
  9 10  1  0  0  0  0
  9 11  1  0  0  0  0
  9 12  1  0  0  0  0
 12 13  1  0  0  0  0
 12 14  1  0  0  0  0
 12 15  1  0  0  0  0
 15 16  1  0  0  0  0
 15 17  1  0  0  0  0
 15 18  1  0  0  0  0
 18 19  1  0  0  0  0
 18 20  2  0  0  0  0
M  END
> <VConfSearch Rank>
758

> <Conf_Id>
87

> <Delta U+W>
0.339

> <U+W>
-51.407

> <U>
10.461

> <W>
-61.867

> <W(PB)>
-64.045

> <W(SA)>
2.178

> <Valence>
9.555

> <Coulomb>
0.483

> <VdW>
0.423

> <VdW6>
-7.223

> <VdW12>
7.646

> <Bond>
0.126

> <Angle>
2.492

> <Pdih>
6.936

> <Idih>
0.001

> <Tether>
0.000

$$$$
VeraChem MOL file


 20 19  0  0  0  0  0  0  0  0999 V2000     
   16.7606   18.9306   22.2228 C   0  0  0  0  0  0  0  0  0  0  0  0
   16.4547   18.0736   21.6250 H   0  0  0  0  0  0  0  0  0  0  0  0
   16.1934   19.1396   23.1281 H   0  0  0  0  0  0  0  0  0  0  0  0
   17.7938   19.6963   21.8624 C   0  0  0  0  0  0  0  0  0  0  0  0
   18.0791   20.5550   22.4690 H   0  0  0  0  0  0  0  0  0  0  0  0
   18.6174   19.4719   20.6122 C   0  0  0  0  0  0  0  0  0  0  0  0
   19.1595   20.3885   20.3441 H   0  0  0  0  0  0  0  0  0  0  0  0
   17.9332   19.2751   19.7758 H   0  0  0  0  0  0  0  0  0  0  0  0
   19.6064   18.2853   20.7266 C   0  0  0  0  0  0  0  0  0  0  0  0
   19.1020   17.4175   21.1732 H   0  0  0  0  0  0  0  0  0  0  0  0
   19.8858   17.9802   19.7090 H   0  0  0  0  0  0  0  0  0  0  0  0
   20.9130   18.5971   21.4991 C   0  0  0  0  0  0  0  0  0  0  0  0
   21.4073   19.4737   21.0584 H   0  0  0  0  0  0  0  0  0  0  0  0
   21.6037   17.7536   21.3619 H   0  0  0  0  0  0  0  0  0  0  0  0
   20.7155   18.8232   23.0199 C   0  0  0  0  0  0  0  0  0  0  0  0
   20.1535   19.7447   23.2022 H   0  0  0  0  0  0  0  0  0  0  0  0
   20.1404   17.9973   23.4551 H   0  0  0  0  0  0  0  0  0  0  0  0
   22.0344   18.9332   23.7761 C   0  0  0  0  0  0  0  0  0  0  0  0
   22.5477   20.0300   23.8789 O   0  5  0  0  0  0  0  0  0  0  0  0
   22.5252   17.9160   24.2248 O   0  0  0  0  0  0  0  0  0  0  0  0
  1  2  1  0  0  0  0
  1  3  1  0  0  0  0
  1  4  2  0  0  0  0
  4  5  1  0  0  0  0
  4  6  1  0  0  0  0
  6  7  1  0  0  0  0
  6  8  1  0  0  0  0
  6  9  1  0  0  0  0
  9 10  1  0  0  0  0
  9 11  1  0  0  0  0
  9 12  1  0  0  0  0
 12 13  1  0  0  0  0
 12 14  1  0  0  0  0
 12 15  1  0  0  0  0
 15 16  1  0  0  0  0
 15 17  1  0  0  0  0
 15 18  1  0  0  0  0
 18 19  1  0  0  0  0
 18 20  2  0  0  0  0
M  END
> <VConfSearch Rank>
759

> <Conf_Id>
51

> <Delta U+W>
1.709

> <U+W>
-50.036

> <U>
10.643

> <W>
-60.679

> <W(PB)>
-62.882

> <W(SA)>
2.203

> <Valence>
11.231

> <Coulomb>
-1.077

> <VdW>
0.489

> <VdW6>
-7.546

> <VdW12>
8.035

> <Bond>
0.159

> <Angle>
3.005

> <Pdih>
8.065

> <Idih>
0.002

> <Tether>
0.000

$$$$
VeraChem MOL file


 20 19  0  0  0  0  0  0  0  0999 V2000     
   20.8539   21.6273   22.3324 C   0  0  0  0  0  0  0  0  0  0  0  0
   21.1875   21.5851   23.3679 H   0  0  0  0  0  0  0  0  0  0  0  0
   20.5050   22.5873   21.9559 H   0  0  0  0  0  0  0  0  0  0  0  0
   20.8688   20.5432   21.5525 C   0  0  0  0  0  0  0  0  0  0  0  0
   20.5395   20.6075   20.5161 H   0  0  0  0  0  0  0  0  0  0  0  0
   21.3519   19.1819   22.0055 C   0  0  0  0  0  0  0  0  0  0  0  0
   22.2943   19.3123   22.5543 H   0  0  0  0  0  0  0  0  0  0  0  0
   21.5973   18.5568   21.1367 H   0  0  0  0  0  0  0  0  0  0  0  0
   20.3476   18.4423   22.9240 C   0  0  0  0  0  0  0  0  0  0  0  0
   20.8998   17.6661   23.4711 H   0  0  0  0  0  0  0  0  0  0  0  0
   19.9595   19.1304   23.6875 H   0  0  0  0  0  0  0  0  0  0  0  0
   19.1742   17.7511   22.1847 C   0  0  0  0  0  0  0  0  0  0  0  0
   18.6386   17.1177   22.9054 H   0  0  0  0  0  0  0  0  0  0  0  0
   19.5657   17.0746   21.4127 H   0  0  0  0  0  0  0  0  0  0  0  0
   18.1569   18.7318   21.5472 C   0  0  0  0  0  0  0  0  0  0  0  0
   17.8286   19.4721   22.2864 H   0  0  0  0  0  0  0  0  0  0  0  0
   18.6173   19.2791   20.7186 H   0  0  0  0  0  0  0  0  0  0  0  0
   16.9208   18.0268   21.0006 C   0  0  0  0  0  0  0  0  0  0  0  0
   16.9501   17.6220   19.8551 O   0  5  0  0  0  0  0  0  0  0  0  0
   15.9681   17.8823   21.7412 O   0  0  0  0  0  0  0  0  0  0  0  0
  1  2  1  0  0  0  0
  1  3  1  0  0  0  0
  1  4  2  0  0  0  0
  4  5  1  0  0  0  0
  4  6  1  0  0  0  0
  6  7  1  0  0  0  0
  6  8  1  0  0  0  0
  6  9  1  0  0  0  0
  9 10  1  0  0  0  0
  9 11  1  0  0  0  0
  9 12  1  0  0  0  0
 12 13  1  0  0  0  0
 12 14  1  0  0  0  0
 12 15  1  0  0  0  0
 15 16  1  0  0  0  0
 15 17  1  0  0  0  0
 15 18  1  0  0  0  0
 18 19  1  0  0  0  0
 18 20  2  0  0  0  0
M  END
> <VConfSearch Rank>
760

> <Conf_Id>
91

> <Delta U+W>
1.604

> <U+W>
-50.141

> <U>
10.644

> <W>
-60.786

> <W(PB)>
-62.965

> <W(SA)>
2.179

> <Valence>
11.230

> <Coulomb>
-1.075

> <VdW>
0.489

> <VdW6>
-7.547

> <VdW12>
8.036

> <Bond>
0.159

> <Angle>
3.006

> <Pdih>
8.064

> <Idih>
0.002

> <Tether>
0.000

$$$$
VeraChem MOL file


 20 19  0  0  0  0  0  0  0  0999 V2000     
   19.3299   22.4593   20.6506 C   0  0  0  0  0  0  0  0  0  0  0  0
   20.2854   22.7175   21.1044 H   0  0  0  0  0  0  0  0  0  0  0  0
   18.6418   23.2747   20.4336 H   0  0  0  0  0  0  0  0  0  0  0  0
   19.0093   21.1932   20.3717 C   0  0  0  0  0  0  0  0  0  0  0  0
   18.0472   20.9561   19.9180 H   0  0  0  0  0  0  0  0  0  0  0  0
   19.9123   20.0106   20.6432 C   0  0  0  0  0  0  0  0  0  0  0  0
   20.9359   20.3528   20.8483 H   0  0  0  0  0  0  0  0  0  0  0  0
   19.9649   19.3754   19.7489 H   0  0  0  0  0  0  0  0  0  0  0  0
   19.3990   19.1804   21.8383 C   0  0  0  0  0  0  0  0  0  0  0  0
   19.3442   19.8214   22.7291 H   0  0  0  0  0  0  0  0  0  0  0  0
   18.3770   18.8345   21.6308 H   0  0  0  0  0  0  0  0  0  0  0  0
   20.3085   17.9663   22.1277 C   0  0  0  0  0  0  0  0  0  0  0  0
   21.3308   18.3115   22.3358 H   0  0  0  0  0  0  0  0  0  0  0  0
   20.3646   17.3255   21.2368 H   0  0  0  0  0  0  0  0  0  0  0  0
   19.7922   17.1321   23.3301 C   0  0  0  0  0  0  0  0  0  0  0  0
   19.7398   17.7640   24.2245 H   0  0  0  0  0  0  0  0  0  0  0  0
   18.7745   16.7788   23.1266 H   0  0  0  0  0  0  0  0  0  0  0  0
   20.6373   15.9078   23.6856 C   0  0  0  0  0  0  0  0  0  0  0  0
   20.2636   15.2288   24.6213 O   0  5  0  0  0  0  0  0  0  0  0  0
   21.6348   15.6551   23.0378 O   0  0  0  0  0  0  0  0  0  0  0  0
  1  2  1  0  0  0  0
  1  3  1  0  0  0  0
  1  4  2  0  0  0  0
  4  5  1  0  0  0  0
  4  6  1  0  0  0  0
  6  7  1  0  0  0  0
  6  8  1  0  0  0  0
  6  9  1  0  0  0  0
  9 10  1  0  0  0  0
  9 11  1  0  0  0  0
  9 12  1  0  0  0  0
 12 13  1  0  0  0  0
 12 14  1  0  0  0  0
 12 15  1  0  0  0  0
 15 16  1  0  0  0  0
 15 17  1  0  0  0  0
 15 18  1  0  0  0  0
 18 19  1  0  0  0  0
 18 20  2  0  0  0  0
M  END
> <VConfSearch Rank>
761

> <Conf_Id>
33

> <Delta U+W>
0.000

> <U+W>
-51.745

> <U>
7.593

> <W>
-59.338

> <W(PB)>
-61.574

> <W(SA)>
2.236

> <Valence>
9.570

> <Coulomb>
-3.091

> <VdW>
1.114

> <VdW6>
-6.064

> <VdW12>
7.178

> <Bond>
0.117

> <Angle>
2.692

> <Pdih>
6.761

> <Idih>
0.000

> <Tether>
0.000

$$$$
VeraChem MOL file


 20 19  0  0  0  0  0  0  0  0999 V2000     
   18.3321   17.9760   25.0768 C   0  0  0  0  0  0  0  0  0  0  0  0
   19.1852   18.4245   25.5833 H   0  0  0  0  0  0  0  0  0  0  0  0
   17.6664   17.3535   25.6724 H   0  0  0  0  0  0  0  0  0  0  0  0
   18.1086   18.1769   23.7755 C   0  0  0  0  0  0  0  0  0  0  0  0
   17.2492   17.7179   23.2873 H   0  0  0  0  0  0  0  0  0  0  0  0
   18.9873   19.0278   22.8858 C   0  0  0  0  0  0  0  0  0  0  0  0
   19.6602   19.6456   23.4959 H   0  0  0  0  0  0  0  0  0  0  0  0
   18.3567   19.7177   22.3111 H   0  0  0  0  0  0  0  0  0  0  0  0
   19.8227   18.1493   21.9276 C   0  0  0  0  0  0  0  0  0  0  0  0
   20.3805   17.4112   22.5205 H   0  0  0  0  0  0  0  0  0  0  0  0
   19.1524   17.5773   21.2715 H   0  0  0  0  0  0  0  0  0  0  0  0
   20.8279   18.9547   21.0702 C   0  0  0  0  0  0  0  0  0  0  0  0
   21.4540   18.2494   20.5062 H   0  0  0  0  0  0  0  0  0  0  0  0
   21.5077   19.5170   21.7252 H   0  0  0  0  0  0  0  0  0  0  0  0
   20.1492   19.9271   20.0709 C   0  0  0  0  0  0  0  0  0  0  0  0
   19.4360   19.3841   19.4394 H   0  0  0  0  0  0  0  0  0  0  0  0
   19.5873   20.7011   20.6057 H   0  0  0  0  0  0  0  0  0  0  0  0
   21.1499   20.6278   19.1590 C   0  0  0  0  0  0  0  0  0  0  0  0
   21.6322   21.6777   19.5357 O   0  5  0  0  0  0  0  0  0  0  0  0
   21.4359   20.0953   18.1048 O   0  0  0  0  0  0  0  0  0  0  0  0
  1  2  1  0  0  0  0
  1  3  1  0  0  0  0
  1  4  2  0  0  0  0
  4  5  1  0  0  0  0
  4  6  1  0  0  0  0
  6  7  1  0  0  0  0
  6  8  1  0  0  0  0
  6  9  1  0  0  0  0
  9 10  1  0  0  0  0
  9 11  1  0  0  0  0
  9 12  1  0  0  0  0
 12 13  1  0  0  0  0
 12 14  1  0  0  0  0
 12 15  1  0  0  0  0
 15 16  1  0  0  0  0
 15 17  1  0  0  0  0
 15 18  1  0  0  0  0
 18 19  1  0  0  0  0
 18 20  2  0  0  0  0
M  END
> <VConfSearch Rank>
762

> <Conf_Id>
37

> <Delta U+W>
-0.384

> <U+W>
-52.130

> <U>
7.491

> <W>
-59.621

> <W(PB)>
-61.853

> <W(SA)>
2.232

> <Valence>
9.604

> <Coulomb>
-2.799

> <VdW>
0.686

> <VdW6>
-6.435

> <VdW12>
7.121

> <Bond>
0.124

> <Angle>
2.493

> <Pdih>
6.986

> <Idih>
0.001

> <Tether>
0.000

$$$$
VeraChem MOL file


 20 19  0  0  0  0  0  0  0  0999 V2000     
   22.6428   19.2072   23.6393 C   0  0  0  0  0  0  0  0  0  0  0  0
   23.5613   19.2709   24.2201 H   0  0  0  0  0  0  0  0  0  0  0  0
   22.7493   19.1304   22.5593 H   0  0  0  0  0  0  0  0  0  0  0  0
   21.4495   19.2241   24.2440 C   0  0  0  0  0  0  0  0  0  0  0  0
   21.4069   19.3028   25.3301 H   0  0  0  0  0  0  0  0  0  0  0  0
   20.0891   19.1435   23.5718 C   0  0  0  0  0  0  0  0  0  0  0  0
   19.5030   20.0283   23.8542 H   0  0  0  0  0  0  0  0  0  0  0  0
   19.5432   18.2835   23.9821 H   0  0  0  0  0  0  0  0  0  0  0  0
   20.1269   19.0313   22.0297 C   0  0  0  0  0  0  0  0  0  0  0  0
   20.6538   19.8999   21.6113 H   0  0  0  0  0  0  0  0  0  0  0  0
   20.6944   18.1361   21.7406 H   0  0  0  0  0  0  0  0  0  0  0  0
   18.7072   18.9545   21.4266 C   0  0  0  0  0  0  0  0  0  0  0  0
   18.1341   19.8475   21.7123 H   0  0  0  0  0  0  0  0  0  0  0  0
   18.1746   18.0873   21.8413 H   0  0  0  0  0  0  0  0  0  0  0  0
   18.7423   18.8421   19.8825 C   0  0  0  0  0  0  0  0  0  0  0  0
   19.2595   19.7077   19.4513 H   0  0  0  0  0  0  0  0  0  0  0  0
   19.3001   17.9475   19.5804 H   0  0  0  0  0  0  0  0  0  0  0  0
   17.3516   18.7646   19.2629 C   0  0  0  0  0  0  0  0  0  0  0  0
   16.7995   19.8041   18.9608 O   0  5  0  0  0  0  0  0  0  0  0  0
   16.8490   17.6679   19.1171 O   0  0  0  0  0  0  0  0  0  0  0  0
  1  2  1  0  0  0  0
  1  3  1  0  0  0  0
  1  4  2  0  0  0  0
  4  5  1  0  0  0  0
  4  6  1  0  0  0  0
  6  7  1  0  0  0  0
  6  8  1  0  0  0  0
  6  9  1  0  0  0  0
  9 10  1  0  0  0  0
  9 11  1  0  0  0  0
  9 12  1  0  0  0  0
 12 13  1  0  0  0  0
 12 14  1  0  0  0  0
 12 15  1  0  0  0  0
 15 16  1  0  0  0  0
 15 17  1  0  0  0  0
 15 18  1  0  0  0  0
 18 19  1  0  0  0  0
 18 20  2  0  0  0  0
M  END
> <VConfSearch Rank>
763

> <Conf_Id>
44

> <Delta U+W>
-1.440

> <U+W>
-53.185

> <U>
6.572

> <W>
-59.757

> <W(PB)>
-62.007

> <W(SA)>
2.249

> <Valence>
7.989

> <Coulomb>
-2.697

> <VdW>
1.281

> <VdW6>
-6.467

> <VdW12>
7.748

> <Bond>
0.136

> <Angle>
2.854

> <Pdih>
4.997

> <Idih>
0.001

> <Tether>
0.000

$$$$
VeraChem MOL file


 20 19  0  0  0  0  0  0  0  0999 V2000     
   22.5141   20.1210   23.7876 C   0  0  0  0  0  0  0  0  0  0  0  0
   21.7662   20.8183   24.1617 H   0  0  0  0  0  0  0  0  0  0  0  0
   23.5569   20.3349   24.0158 H   0  0  0  0  0  0  0  0  0  0  0  0
   22.1703   19.0457   23.0740 C   0  0  0  0  0  0  0  0  0  0  0  0
   22.9348   18.3605   22.7084 H   0  0  0  0  0  0  0  0  0  0  0  0
   20.7452   18.6835   22.7194 C   0  0  0  0  0  0  0  0  0  0  0  0
   20.0484   19.2575   23.3437 H   0  0  0  0  0  0  0  0  0  0  0  0
   20.5704   17.6225   22.9420 H   0  0  0  0  0  0  0  0  0  0  0  0
   20.4593   18.9537   21.2250 C   0  0  0  0  0  0  0  0  0  0  0  0
   20.5814   20.0253   21.0153 H   0  0  0  0  0  0  0  0  0  0  0  0
   21.2123   18.4316   20.6190 H   0  0  0  0  0  0  0  0  0  0  0  0
   19.0542   18.4907   20.7714 C   0  0  0  0  0  0  0  0  0  0  0  0
   18.9341   17.4170   20.9717 H   0  0  0  0  0  0  0  0  0  0  0  0
   18.9779   18.6132   19.6821 H   0  0  0  0  0  0  0  0  0  0  0  0
   17.8971   19.2754   21.4426 C   0  0  0  0  0  0  0  0  0  0  0  0
   17.8881   19.1014   22.5244 H   0  0  0  0  0  0  0  0  0  0  0  0
   18.0300   20.3527   21.2868 H   0  0  0  0  0  0  0  0  0  0  0  0
   16.5274   18.8846   20.8992 C   0  0  0  0  0  0  0  0  0  0  0  0
   16.0931   19.4973   19.9439 O   0  5  0  0  0  0  0  0  0  0  0  0
   15.9396   17.9646   21.4329 O   0  0  0  0  0  0  0  0  0  0  0  0
  1  2  1  0  0  0  0
  1  3  1  0  0  0  0
  1  4  2  0  0  0  0
  4  5  1  0  0  0  0
  4  6  1  0  0  0  0
  6  7  1  0  0  0  0
  6  8  1  0  0  0  0
  6  9  1  0  0  0  0
  9 10  1  0  0  0  0
  9 11  1  0  0  0  0
  9 12  1  0  0  0  0
 12 13  1  0  0  0  0
 12 14  1  0  0  0  0
 12 15  1  0  0  0  0
 15 16  1  0  0  0  0
 15 17  1  0  0  0  0
 15 18  1  0  0  0  0
 18 19  1  0  0  0  0
 18 20  2  0  0  0  0
M  END
> <VConfSearch Rank>
764

> <Conf_Id>
38

> <Delta U+W>
-0.381

> <U+W>
-52.126

> <U>
7.601

> <W>
-59.727

> <W(PB)>
-61.964

> <W(SA)>
2.236

> <Valence>
9.602

> <Coulomb>
-2.686

> <VdW>
0.685

> <VdW6>
-6.453

> <VdW12>
7.139

> <Bond>
0.125

> <Angle>
2.485

> <Pdih>
6.991

> <Idih>
0.001

> <Tether>
0.000

$$$$
VeraChem MOL file


 20 19  0  0  0  0  0  0  0  0999 V2000     
   21.6557   16.3329   22.7694 C   0  0  0  0  0  0  0  0  0  0  0  0
   22.5963   16.8411   22.5628 H   0  0  0  0  0  0  0  0  0  0  0  0
   21.6936   15.4455   23.3990 H   0  0  0  0  0  0  0  0  0  0  0  0
   20.4984   16.7785   22.2738 C   0  0  0  0  0  0  0  0  0  0  0  0
   19.5678   16.2556   22.4934 H   0  0  0  0  0  0  0  0  0  0  0  0
   20.3679   18.0012   21.3931 C   0  0  0  0  0  0  0  0  0  0  0  0
   19.7581   17.7567   20.5131 H   0  0  0  0  0  0  0  0  0  0  0  0
   21.3544   18.3074   21.0190 H   0  0  0  0  0  0  0  0  0  0  0  0
   19.7218   19.1739   22.1600 C   0  0  0  0  0  0  0  0  0  0  0  0
   18.7344   18.8659   22.5310 H   0  0  0  0  0  0  0  0  0  0  0  0
   20.3320   19.4124   23.0421 H   0  0  0  0  0  0  0  0  0  0  0  0
   19.5784   20.4313   21.2730 C   0  0  0  0  0  0  0  0  0  0  0  0
   18.9596   20.1989   20.3950 H   0  0  0  0  0  0  0  0  0  0  0  0
   20.5676   20.7223   20.8945 H   0  0  0  0  0  0  0  0  0  0  0  0
   18.9584   21.6311   22.0351 C   0  0  0  0  0  0  0  0  0  0  0  0
   19.5497   21.8577   22.9305 H   0  0  0  0  0  0  0  0  0  0  0  0
   18.9891   22.5242   21.3999 H   0  0  0  0  0  0  0  0  0  0  0  0
   17.5059   21.4173   22.4517 C   0  0  0  0  0  0  0  0  0  0  0  0
   17.2707   21.1820   23.6206 O   0  5  0  0  0  0  0  0  0  0  0  0
   16.6467   21.5031   21.5965 O   0  0  0  0  0  0  0  0  0  0  0  0
  1  2  1  0  0  0  0
  1  3  1  0  0  0  0
  1  4  2  0  0  0  0
  4  5  1  0  0  0  0
  4  6  1  0  0  0  0
  6  7  1  0  0  0  0
  6  8  1  0  0  0  0
  6  9  1  0  0  0  0
  9 10  1  0  0  0  0
  9 11  1  0  0  0  0
  9 12  1  0  0  0  0
 12 13  1  0  0  0  0
 12 14  1  0  0  0  0
 12 15  1  0  0  0  0
 15 16  1  0  0  0  0
 15 17  1  0  0  0  0
 15 18  1  0  0  0  0
 18 19  1  0  0  0  0
 18 20  2  0  0  0  0
M  END
> <VConfSearch Rank>
765

> <Conf_Id>
58

> <Delta U+W>
0.019

> <U+W>
-51.727

> <U>
8.963

> <W>
-60.690

> <W(PB)>
-62.934

> <W(SA)>
2.244

> <Valence>
9.327

> <Coulomb>
-0.780

> <VdW>
0.417

> <VdW6>
-6.635

> <VdW12>
7.052

> <Bond>
0.105

> <Angle>
2.399

> <Pdih>
6.822

> <Idih>
0.000

> <Tether>
0.000

$$$$
VeraChem MOL file


 20 19  0  0  0  0  0  0  0  0999 V2000     
   16.7259   19.1974   20.1527 C   0  0  0  0  0  0  0  0  0  0  0  0
   17.1684   19.7543   19.3283 H   0  0  0  0  0  0  0  0  0  0  0  0
   15.6411   19.2135   20.2429 H   0  0  0  0  0  0  0  0  0  0  0  0
   17.4809   18.5218   21.0229 C   0  0  0  0  0  0  0  0  0  0  0  0
   17.0181   17.9714   21.8418 H   0  0  0  0  0  0  0  0  0  0  0  0
   18.9905   18.4531   20.9611 C   0  0  0  0  0  0  0  0  0  0  0  0
   19.3476   18.8081   19.9848 H   0  0  0  0  0  0  0  0  0  0  0  0
   19.3149   17.4081   21.0555 H   0  0  0  0  0  0  0  0  0  0  0  0
   19.6330   19.2971   22.0818 C   0  0  0  0  0  0  0  0  0  0  0  0
   19.3025   20.3406   21.9868 H   0  0  0  0  0  0  0  0  0  0  0  0
   19.2760   18.9385   23.0572 H   0  0  0  0  0  0  0  0  0  0  0  0
   21.1765   19.2353   22.0347 C   0  0  0  0  0  0  0  0  0  0  0  0
   21.5230   19.5805   21.0512 H   0  0  0  0  0  0  0  0  0  0  0  0
   21.5109   18.1938   22.1402 H   0  0  0  0  0  0  0  0  0  0  0  0
   21.8417   20.1021   23.1352 C   0  0  0  0  0  0  0  0  0  0  0  0
   22.9274   20.1173   22.9834 H   0  0  0  0  0  0  0  0  0  0  0  0
   21.4960   21.1403   23.0605 H   0  0  0  0  0  0  0  0  0  0  0  0
   21.5864   19.6047   24.5551 C   0  0  0  0  0  0  0  0  0  0  0  0
   22.2002   18.6282   24.9385 O   0  5  0  0  0  0  0  0  0  0  0  0
   20.7901   20.2119   25.2437 O   0  0  0  0  0  0  0  0  0  0  0  0
  1  2  1  0  0  0  0
  1  3  1  0  0  0  0
  1  4  2  0  0  0  0
  4  5  1  0  0  0  0
  4  6  1  0  0  0  0
  6  7  1  0  0  0  0
  6  8  1  0  0  0  0
  6  9  1  0  0  0  0
  9 10  1  0  0  0  0
  9 11  1  0  0  0  0
  9 12  1  0  0  0  0
 12 13  1  0  0  0  0
 12 14  1  0  0  0  0
 12 15  1  0  0  0  0
 15 16  1  0  0  0  0
 15 17  1  0  0  0  0
 15 18  1  0  0  0  0
 18 19  1  0  0  0  0
 18 20  2  0  0  0  0
M  END
> <VConfSearch Rank>
766

> <Conf_Id>
54

> <Delta U+W>
-0.048

> <U+W>
-51.793

> <U>
8.964

> <W>
-60.756

> <W(PB)>
-63.007

> <W(SA)>
2.251

> <Valence>
9.327

> <Coulomb>
-0.780

> <VdW>
0.417

> <VdW6>
-6.635

> <VdW12>
7.052

> <Bond>
0.105

> <Angle>
2.399

> <Pdih>
6.822

> <Idih>
0.000

> <Tether>
0.000

$$$$
VeraChem MOL file


 20 19  0  0  0  0  0  0  0  0999 V2000     
   19.0886   20.5812   24.9511 C   0  0  0  0  0  0  0  0  0  0  0  0
   19.6677   20.7434   25.8586 H   0  0  0  0  0  0  0  0  0  0  0  0
   18.4140   21.3765   24.6381 H   0  0  0  0  0  0  0  0  0  0  0  0
   19.2064   19.4505   24.2500 C   0  0  0  0  0  0  0  0  0  0  0  0
   19.8850   18.6658   24.5830 H   0  0  0  0  0  0  0  0  0  0  0  0
   18.4298   19.1530   22.9850 C   0  0  0  0  0  0  0  0  0  0  0  0
   17.5436   19.8000   22.9342 H   0  0  0  0  0  0  0  0  0  0  0  0
   18.0555   18.1209   23.0094 H   0  0  0  0  0  0  0  0  0  0  0  0
   19.2750   19.3711   21.7098 C   0  0  0  0  0  0  0  0  0  0  0  0
   18.6197   19.2743   20.8333 H   0  0  0  0  0  0  0  0  0  0  0  0
   19.6616   20.3995   21.6991 H   0  0  0  0  0  0  0  0  0  0  0  0
   20.4476   18.3691   21.5862 C   0  0  0  0  0  0  0  0  0  0  0  0
   20.0625   17.3403   21.6116 H   0  0  0  0  0  0  0  0  0  0  0  0
   21.1157   18.4783   22.4505 H   0  0  0  0  0  0  0  0  0  0  0  0
   21.2741   18.5765   20.2904 C   0  0  0  0  0  0  0  0  0  0  0  0
   21.6374   19.6098   20.2343 H   0  0  0  0  0  0  0  0  0  0  0  0
   22.1590   17.9297   20.3130 H   0  0  0  0  0  0  0  0  0  0  0  0
   20.5095   18.2582   19.0086 C   0  0  0  0  0  0  0  0  0  0  0  0
   20.1159   19.1847   18.3276 O   0  5  0  0  0  0  0  0  0  0  0  0
   20.3374   17.0903   18.7198 O   0  0  0  0  0  0  0  0  0  0  0  0
  1  2  1  0  0  0  0
  1  3  1  0  0  0  0
  1  4  2  0  0  0  0
  4  5  1  0  0  0  0
  4  6  1  0  0  0  0
  6  7  1  0  0  0  0
  6  8  1  0  0  0  0
  6  9  1  0  0  0  0
  9 10  1  0  0  0  0
  9 11  1  0  0  0  0
  9 12  1  0  0  0  0
 12 13  1  0  0  0  0
 12 14  1  0  0  0  0
 12 15  1  0  0  0  0
 15 16  1  0  0  0  0
 15 17  1  0  0  0  0
 15 18  1  0  0  0  0
 18 19  1  0  0  0  0
 18 20  2  0  0  0  0
M  END
> <VConfSearch Rank>
767

> <Conf_Id>
27

> <Delta U+W>
0.478

> <U+W>
-51.267

> <U>
9.192

> <W>
-60.459

> <W(PB)>
-62.649

> <W(SA)>
2.190

> <Valence>
9.572

> <Coulomb>
-0.884

> <VdW>
0.504

> <VdW6>
-7.168

> <VdW12>
7.672

> <Bond>
0.127

> <Angle>
2.504

> <Pdih>
6.941

> <Idih>
0.001

> <Tether>
0.000

$$$$
VeraChem MOL file


 20 19  0  0  0  0  0  0  0  0999 V2000     
   22.6184   19.0566   23.5233 C   0  0  0  0  0  0  0  0  0  0  0  0
   22.8997   18.0487   23.8242 H   0  0  0  0  0  0  0  0  0  0  0  0
   22.9709   19.8807   24.1411 H   0  0  0  0  0  0  0  0  0  0  0  0
   21.8677   19.2773   22.4410 C   0  0  0  0  0  0  0  0  0  0  0  0
   21.6002   20.2944   22.1559 H   0  0  0  0  0  0  0  0  0  0  0  0
   21.3478   18.1834   21.5327 C   0  0  0  0  0  0  0  0  0  0  0  0
   21.9404   17.2699   21.6766 H   0  0  0  0  0  0  0  0  0  0  0  0
   21.4820   18.4742   20.4822 H   0  0  0  0  0  0  0  0  0  0  0  0
   19.8610   17.8560   21.7976 C   0  0  0  0  0  0  0  0  0  0  0  0
   19.5825   16.9732   21.2061 H   0  0  0  0  0  0  0  0  0  0  0  0
   19.7305   17.5812   22.8534 H   0  0  0  0  0  0  0  0  0  0  0  0
   18.9150   19.0253   21.4398 C   0  0  0  0  0  0  0  0  0  0  0  0
   19.0653   19.3160   20.3908 H   0  0  0  0  0  0  0  0  0  0  0  0
   19.1568   19.9043   22.0526 H   0  0  0  0  0  0  0  0  0  0  0  0
   17.4286   18.6503   21.6586 C   0  0  0  0  0  0  0  0  0  0  0  0
   17.1615   17.7836   21.0422 H   0  0  0  0  0  0  0  0  0  0  0  0
   17.2595   18.3689   22.7050 H   0  0  0  0  0  0  0  0  0  0  0  0
   16.4744   19.7881   21.3139 C   0  0  0  0  0  0  0  0  0  0  0  0
   16.1744   20.5717   22.1930 O   0  5  0  0  0  0  0  0  0  0  0  0
   16.0700   19.8711   20.1710 O   0  0  0  0  0  0  0  0  0  0  0  0
  1  2  1  0  0  0  0
  1  3  1  0  0  0  0
  1  4  2  0  0  0  0
  4  5  1  0  0  0  0
  4  6  1  0  0  0  0
  6  7  1  0  0  0  0
  6  8  1  0  0  0  0
  6  9  1  0  0  0  0
  9 10  1  0  0  0  0
  9 11  1  0  0  0  0
  9 12  1  0  0  0  0
 12 13  1  0  0  0  0
 12 14  1  0  0  0  0
 12 15  1  0  0  0  0
 15 16  1  0  0  0  0
 15 17  1  0  0  0  0
 15 18  1  0  0  0  0
 18 19  1  0  0  0  0
 18 20  2  0  0  0  0
M  END
> <VConfSearch Rank>
768

> <Conf_Id>
41

> <Delta U+W>
-0.634

> <U+W>
-52.379

> <U>
7.828

> <W>
-60.207

> <W(PB)>
-62.449

> <W(SA)>
2.242

> <Valence>
9.300

> <Coulomb>
-2.080

> <VdW>
0.608

> <VdW6>
-6.341

> <VdW12>
6.949

> <Bond>
0.103

> <Angle>
2.334

> <Pdih>
6.862

> <Idih>
0.001

> <Tether>
0.000

$$$$
VeraChem MOL file


 20 19  0  0  0  0  0  0  0  0999 V2000     
   21.4061   20.7592   19.5856 C   0  0  0  0  0  0  0  0  0  0  0  0
   21.7118   20.7941   18.5413 H   0  0  0  0  0  0  0  0  0  0  0  0
   21.2814   21.7091   20.1031 H   0  0  0  0  0  0  0  0  0  0  0  0
   21.1914   19.5948   20.2034 C   0  0  0  0  0  0  0  0  0  0  0  0
   21.3211   18.6548   19.6674 H   0  0  0  0  0  0  0  0  0  0  0  0
   20.7669   19.4675   21.6495 C   0  0  0  0  0  0  0  0  0  0  0  0
   20.9101   20.4222   22.1733 H   0  0  0  0  0  0  0  0  0  0  0  0
   21.4084   18.7299   22.1488 H   0  0  0  0  0  0  0  0  0  0  0  0
   19.2871   19.0364   21.7573 C   0  0  0  0  0  0  0  0  0  0  0  0
   18.6719   19.7304   21.1683 H   0  0  0  0  0  0  0  0  0  0  0  0
   19.1588   18.0459   21.2994 H   0  0  0  0  0  0  0  0  0  0  0  0
   18.7529   19.0163   23.2107 C   0  0  0  0  0  0  0  0  0  0  0  0
   17.6807   18.7768   23.1900 H   0  0  0  0  0  0  0  0  0  0  0  0
   18.8345   20.0239   23.6401 H   0  0  0  0  0  0  0  0  0  0  0  0
   19.4715   18.0049   24.1452 C   0  0  0  0  0  0  0  0  0  0  0  0
   20.5323   18.2595   24.2487 H   0  0  0  0  0  0  0  0  0  0  0  0
   19.0381   18.0685   25.1501 H   0  0  0  0  0  0  0  0  0  0  0  0
   19.3594   16.5515   23.6939 C   0  0  0  0  0  0  0  0  0  0  0  0
   18.2835   15.9978   23.8089 O   0  5  0  0  0  0  0  0  0  0  0  0
   20.3533   16.0059   23.2565 O   0  0  0  0  0  0  0  0  0  0  0  0
  1  2  1  0  0  0  0
  1  3  1  0  0  0  0
  1  4  2  0  0  0  0
  4  5  1  0  0  0  0
  4  6  1  0  0  0  0
  6  7  1  0  0  0  0
  6  8  1  0  0  0  0
  6  9  1  0  0  0  0
  9 10  1  0  0  0  0
  9 11  1  0  0  0  0
  9 12  1  0  0  0  0
 12 13  1  0  0  0  0
 12 14  1  0  0  0  0
 12 15  1  0  0  0  0
 15 16  1  0  0  0  0
 15 17  1  0  0  0  0
 15 18  1  0  0  0  0
 18 19  1  0  0  0  0
 18 20  2  0  0  0  0
M  END
> <VConfSearch Rank>
769

> <Conf_Id>
84

> <Delta U+W>
0.942

> <U+W>
-50.803

> <U>
10.196

> <W>
-60.999

> <W(PB)>
-63.182

> <W(SA)>
2.182

> <Valence>
9.837

> <Coulomb>
0.032

> <VdW>
0.328

> <VdW6>
-7.642

> <VdW12>
7.969

> <Bond>
0.151

> <Angle>
2.748

> <Pdih>
6.937

> <Idih>
0.001

> <Tether>
0.000

$$$$
VeraChem MOL file


 20 19  0  0  0  0  0  0  0  0999 V2000     
   22.1062   21.2790   23.4171 C   0  0  0  0  0  0  0  0  0  0  0  0
   22.9492   21.3417   24.1031 H   0  0  0  0  0  0  0  0  0  0  0  0
   22.2360   21.7054   22.4236 H   0  0  0  0  0  0  0  0  0  0  0  0
   20.9603   20.6987   23.7829 C   0  0  0  0  0  0  0  0  0  0  0  0
   20.8513   20.2772   24.7820 H   0  0  0  0  0  0  0  0  0  0  0  0
   19.7484   20.5755   22.8864 C   0  0  0  0  0  0  0  0  0  0  0  0
   19.8501   21.2382   22.0162 H   0  0  0  0  0  0  0  0  0  0  0  0
   18.8535   20.9045   23.4314 H   0  0  0  0  0  0  0  0  0  0  0  0
   19.5566   19.1220   22.4051 C   0  0  0  0  0  0  0  0  0  0  0  0
   20.4578   18.7975   21.8665 H   0  0  0  0  0  0  0  0  0  0  0  0
   19.4507   18.4592   23.2749 H   0  0  0  0  0  0  0  0  0  0  0  0
   18.3195   18.9783   21.4901 C   0  0  0  0  0  0  0  0  0  0  0  0
   18.4286   19.6297   20.6117 H   0  0  0  0  0  0  0  0  0  0  0  0
   17.4273   19.3229   22.0303 H   0  0  0  0  0  0  0  0  0  0  0  0
   18.0909   17.5179   21.0212 C   0  0  0  0  0  0  0  0  0  0  0  0
   18.0070   16.8505   21.8874 H   0  0  0  0  0  0  0  0  0  0  0  0
   17.1417   17.4522   20.4766 H   0  0  0  0  0  0  0  0  0  0  0  0
   19.1837   16.9844   20.0991 C   0  0  0  0  0  0  0  0  0  0  0  0
   19.9855   16.1927   20.5544 O   0  5  0  0  0  0  0  0  0  0  0  0
   19.1953   17.3656   18.9452 O   0  0  0  0  0  0  0  0  0  0  0  0
  1  2  1  0  0  0  0
  1  3  1  0  0  0  0
  1  4  2  0  0  0  0
  4  5  1  0  0  0  0
  4  6  1  0  0  0  0
  6  7  1  0  0  0  0
  6  8  1  0  0  0  0
  6  9  1  0  0  0  0
  9 10  1  0  0  0  0
  9 11  1  0  0  0  0
  9 12  1  0  0  0  0
 12 13  1  0  0  0  0
 12 14  1  0  0  0  0
 12 15  1  0  0  0  0
 15 16  1  0  0  0  0
 15 17  1  0  0  0  0
 15 18  1  0  0  0  0
 18 19  1  0  0  0  0
 18 20  2  0  0  0  0
M  END
> <VConfSearch Rank>
770

> <Conf_Id>
81

> <Delta U+W>
-0.051

> <U+W>
-51.796

> <U>
9.412

> <W>
-61.209

> <W(PB)>
-63.452

> <W(SA)>
2.243

> <Valence>
9.329

> <Coulomb>
-0.323

> <VdW>
0.406

> <VdW6>
-6.640

> <VdW12>
7.046

> <Bond>
0.105

> <Angle>
2.401

> <Pdih>
6.823

> <Idih>
0.000

> <Tether>
0.000

$$$$
VeraChem MOL file


 20 19  0  0  0  0  0  0  0  0999 V2000     
   19.0864   15.9662   22.7168 C   0  0  0  0  0  0  0  0  0  0  0  0
   20.0209   15.5381   23.0758 H   0  0  0  0  0  0  0  0  0  0  0  0
   18.1732   15.4033   22.9024 H   0  0  0  0  0  0  0  0  0  0  0  0
   19.0568   17.1375   22.0759 C   0  0  0  0  0  0  0  0  0  0  0  0
   18.1111   17.5473   21.7226 H   0  0  0  0  0  0  0  0  0  0  0  0
   20.2839   17.9723   21.7775 C   0  0  0  0  0  0  0  0  0  0  0  0
   20.2503   18.3345   20.7418 H   0  0  0  0  0  0  0  0  0  0  0  0
   21.1834   17.3459   21.8463 H   0  0  0  0  0  0  0  0  0  0  0  0
   20.4397   19.1638   22.7526 C   0  0  0  0  0  0  0  0  0  0  0  0
   20.5584   18.7728   23.7724 H   0  0  0  0  0  0  0  0  0  0  0  0
   21.3730   19.6945   22.5198 H   0  0  0  0  0  0  0  0  0  0  0  0
   19.2614   20.1715   22.7383 C   0  0  0  0  0  0  0  0  0  0  0  0
   19.4607   20.9563   23.4810 H   0  0  0  0  0  0  0  0  0  0  0  0
   18.3438   19.6671   23.0689 H   0  0  0  0  0  0  0  0  0  0  0  0
   19.0064   20.8427   21.3611 C   0  0  0  0  0  0  0  0  0  0  0  0
   18.7296   20.0928   20.6114 H   0  0  0  0  0  0  0  0  0  0  0  0
   18.1547   21.5279   21.4435 H   0  0  0  0  0  0  0  0  0  0  0  0
   20.1891   21.6491   20.8327 C   0  0  0  0  0  0  0  0  0  0  0  0
   20.8110   21.2077   19.8864 O   0  5  0  0  0  0  0  0  0  0  0  0
   20.4465   22.7078   21.3717 O   0  0  0  0  0  0  0  0  0  0  0  0
  1  2  1  0  0  0  0
  1  3  1  0  0  0  0
  1  4  2  0  0  0  0
  4  5  1  0  0  0  0
  4  6  1  0  0  0  0
  6  7  1  0  0  0  0
  6  8  1  0  0  0  0
  6  9  1  0  0  0  0
  9 10  1  0  0  0  0
  9 11  1  0  0  0  0
  9 12  1  0  0  0  0
 12 13  1  0  0  0  0
 12 14  1  0  0  0  0
 12 15  1  0  0  0  0
 15 16  1  0  0  0  0
 15 17  1  0  0  0  0
 15 18  1  0  0  0  0
 18 19  1  0  0  0  0
 18 20  2  0  0  0  0
M  END
> <VConfSearch Rank>
771

> <Conf_Id>
86

> <Delta U+W>
1.248

> <U+W>
-50.498

> <U>
10.404

> <W>
-60.901

> <W(PB)>
-63.061

> <W(SA)>
2.159

> <Valence>
10.021

> <Coulomb>
0.094

> <VdW>
0.289

> <VdW6>
-8.409

> <VdW12>
8.698

> <Bond>
0.179

> <Angle>
2.939

> <Pdih>
6.902

> <Idih>
0.001

> <Tether>
0.000

$$$$
VeraChem MOL file


 20 19  0  0  0  0  0  0  0  0999 V2000     
   21.7217   19.5263   19.5878 C   0  0  0  0  0  0  0  0  0  0  0  0
   21.7406   19.3364   18.5160 H   0  0  0  0  0  0  0  0  0  0  0  0
   21.8327   20.5585   19.9160 H   0  0  0  0  0  0  0  0  0  0  0  0
   21.5646   18.5295   20.4629 C   0  0  0  0  0  0  0  0  0  0  0  0
   21.4528   17.5035   20.1135 H   0  0  0  0  0  0  0  0  0  0  0  0
   21.5278   18.7157   21.9649 C   0  0  0  0  0  0  0  0  0  0  0  0
   21.8462   19.7312   22.2369 H   0  0  0  0  0  0  0  0  0  0  0  0
   22.2494   18.0302   22.4288 H   0  0  0  0  0  0  0  0  0  0  0  0
   20.1271   18.4389   22.5561 C   0  0  0  0  0  0  0  0  0  0  0  0
   19.8062   17.4249   22.2812 H   0  0  0  0  0  0  0  0  0  0  0  0
   20.1971   18.4585   23.6524 H   0  0  0  0  0  0  0  0  0  0  0  0
   19.0691   19.4675   22.0912 C   0  0  0  0  0  0  0  0  0  0  0  0
   18.9931   19.4442   20.9959 H   0  0  0  0  0  0  0  0  0  0  0  0
   19.3922   20.4819   22.3629 H   0  0  0  0  0  0  0  0  0  0  0  0
   17.6667   19.1952   22.6948 C   0  0  0  0  0  0  0  0  0  0  0  0
   16.9345   19.8727   22.2401 H   0  0  0  0  0  0  0  0  0  0  0  0
   17.3444   18.1740   22.4580 H   0  0  0  0  0  0  0  0  0  0  0  0
   17.5929   19.3915   24.2063 C   0  0  0  0  0  0  0  0  0  0  0  0
   17.5581   20.5282   24.6350 O   0  5  0  0  0  0  0  0  0  0  0  0
   17.5605   18.4043   24.9145 O   0  0  0  0  0  0  0  0  0  0  0  0
  1  2  1  0  0  0  0
  1  3  1  0  0  0  0
  1  4  2  0  0  0  0
  4  5  1  0  0  0  0
  4  6  1  0  0  0  0
  6  7  1  0  0  0  0
  6  8  1  0  0  0  0
  6  9  1  0  0  0  0
  9 10  1  0  0  0  0
  9 11  1  0  0  0  0
  9 12  1  0  0  0  0
 12 13  1  0  0  0  0
 12 14  1  0  0  0  0
 12 15  1  0  0  0  0
 15 16  1  0  0  0  0
 15 17  1  0  0  0  0
 15 18  1  0  0  0  0
 18 19  1  0  0  0  0
 18 20  2  0  0  0  0
M  END
> <VConfSearch Rank>
772

> <Conf_Id>
28

> <Delta U+W>
0.446

> <U+W>
-51.299

> <U>
9.295

> <W>
-60.594

> <W(PB)>
-62.806

> <W(SA)>
2.212

> <Valence>
9.495

> <Coulomb>
-0.610

> <VdW>
0.409

> <VdW6>
-7.332

> <VdW12>
7.741

> <Bond>
0.126

> <Angle>
2.497

> <Pdih>
6.872

> <Idih>
0.000

> <Tether>
0.000

$$$$
VeraChem MOL file


 20 19  0  0  0  0  0  0  0  0999 V2000     
   20.8899   19.1193   25.0941 C   0  0  0  0  0  0  0  0  0  0  0  0
   21.4745   19.8681   24.5640 H   0  0  0  0  0  0  0  0  0  0  0  0
   21.0460   19.0446   26.1689 H   0  0  0  0  0  0  0  0  0  0  0  0
   20.0130   18.3215   24.4740 C   0  0  0  0  0  0  0  0  0  0  0  0
   19.4546   17.5916   25.0597 H   0  0  0  0  0  0  0  0  0  0  0  0
   19.6894   18.3068   22.9892 C   0  0  0  0  0  0  0  0  0  0  0  0
   18.6287   18.5595   22.8637 H   0  0  0  0  0  0  0  0  0  0  0  0
   19.7989   17.2798   22.6162 H   0  0  0  0  0  0  0  0  0  0  0  0
   20.5567   19.2526   22.1222 C   0  0  0  0  0  0  0  0  0  0  0  0
   20.3869   20.2939   22.4290 H   0  0  0  0  0  0  0  0  0  0  0  0
   21.6175   19.0382   22.3104 H   0  0  0  0  0  0  0  0  0  0  0  0
   20.2964   19.1089   20.6021 C   0  0  0  0  0  0  0  0  0  0  0  0
   20.5163   18.0781   20.2932 H   0  0  0  0  0  0  0  0  0  0  0  0
   21.0060   19.7497   20.0605 H   0  0  0  0  0  0  0  0  0  0  0  0
   18.8545   19.4771   20.1574 C   0  0  0  0  0  0  0  0  0  0  0  0
   18.7619   19.3350   19.0744 H   0  0  0  0  0  0  0  0  0  0  0  0
   18.1226   18.8062   20.6212 H   0  0  0  0  0  0  0  0  0  0  0  0
   18.4571   20.9191   20.4603 C   0  0  0  0  0  0  0  0  0  0  0  0
   18.9805   21.8052   19.8135 O   0  5  0  0  0  0  0  0  0  0  0  0
   17.6204   21.1176   21.3190 O   0  0  0  0  0  0  0  0  0  0  0  0
  1  2  1  0  0  0  0
  1  3  1  0  0  0  0
  1  4  2  0  0  0  0
  4  5  1  0  0  0  0
  4  6  1  0  0  0  0
  6  7  1  0  0  0  0
  6  8  1  0  0  0  0
  6  9  1  0  0  0  0
  9 10  1  0  0  0  0
  9 11  1  0  0  0  0
  9 12  1  0  0  0  0
 12 13  1  0  0  0  0
 12 14  1  0  0  0  0
 12 15  1  0  0  0  0
 15 16  1  0  0  0  0
 15 17  1  0  0  0  0
 15 18  1  0  0  0  0
 18 19  1  0  0  0  0
 18 20  2  0  0  0  0
M  END
> <VConfSearch Rank>
773

> <Conf_Id>
53

> <Delta U+W>
0.549

> <U+W>
-51.197

> <U>
10.870

> <W>
-62.067

> <W(PB)>
-64.228

> <W(SA)>
2.161

> <Valence>
8.803

> <Coulomb>
1.020

> <VdW>
1.048

> <VdW6>
-8.312

> <VdW12>
9.360

> <Bond>
0.212

> <Angle>
3.379

> <Pdih>
5.211

> <Idih>
0.001

> <Tether>
0.000

$$$$
VeraChem MOL file


 20 19  0  0  0  0  0  0  0  0999 V2000     
   20.3316   18.4186   19.3614 C   0  0  0  0  0  0  0  0  0  0  0  0
   19.9801   19.4465   19.3049 H   0  0  0  0  0  0  0  0  0  0  0  0
   20.2080   17.8044   18.4712 H   0  0  0  0  0  0  0  0  0  0  0  0
   20.8978   17.9194   20.4654 C   0  0  0  0  0  0  0  0  0  0  0  0
   21.2355   16.8834   20.4682 H   0  0  0  0  0  0  0  0  0  0  0  0
   21.1267   18.6572   21.7743 C   0  0  0  0  0  0  0  0  0  0  0  0
   22.1680   19.0039   21.8052 H   0  0  0  0  0  0  0  0  0  0  0  0
   21.0451   17.9445   22.6049 H   0  0  0  0  0  0  0  0  0  0  0  0
   20.1818   19.8559   22.0502 C   0  0  0  0  0  0  0  0  0  0  0  0
   20.4981   20.3426   22.9829 H   0  0  0  0  0  0  0  0  0  0  0  0
   20.3122   20.6118   21.2648 H   0  0  0  0  0  0  0  0  0  0  0  0
   18.6792   19.4867   22.1621 C   0  0  0  0  0  0  0  0  0  0  0  0
   18.3304   19.0657   21.2104 H   0  0  0  0  0  0  0  0  0  0  0  0
   18.1014   20.4082   22.3171 H   0  0  0  0  0  0  0  0  0  0  0  0
   18.3436   18.4914   23.3063 C   0  0  0  0  0  0  0  0  0  0  0  0
   17.2666   18.2873   23.3049 H   0  0  0  0  0  0  0  0  0  0  0  0
   18.8410   17.5293   23.1388 H   0  0  0  0  0  0  0  0  0  0  0  0
   18.7085   18.9958   24.6995 C   0  0  0  0  0  0  0  0  0  0  0  0
   19.6513   18.4828   25.2697 O   0  5  0  0  0  0  0  0  0  0  0  0
   18.0276   19.8777   25.1855 O   0  0  0  0  0  0  0  0  0  0  0  0
  1  2  1  0  0  0  0
  1  3  1  0  0  0  0
  1  4  2  0  0  0  0
  4  5  1  0  0  0  0
  4  6  1  0  0  0  0
  6  7  1  0  0  0  0
  6  8  1  0  0  0  0
  6  9  1  0  0  0  0
  9 10  1  0  0  0  0
  9 11  1  0  0  0  0
  9 12  1  0  0  0  0
 12 13  1  0  0  0  0
 12 14  1  0  0  0  0
 12 15  1  0  0  0  0
 15 16  1  0  0  0  0
 15 17  1  0  0  0  0
 15 18  1  0  0  0  0
 18 19  1  0  0  0  0
 18 20  2  0  0  0  0
M  END
> <VConfSearch Rank>
774

> <Conf_Id>
66

> <Delta U+W>
1.737

> <U+W>
-50.008

> <U>
11.091

> <W>
-61.099

> <W(PB)>
-63.213

> <W(SA)>
2.114

> <Valence>
9.664

> <Coulomb>
0.658

> <VdW>
0.769

> <VdW6>
-9.171

> <VdW12>
9.940

> <Bond>
0.244

> <Angle>
3.658

> <Pdih>
5.762

> <Idih>
0.001

> <Tether>
0.000

$$$$
VeraChem MOL file


 20 19  0  0  0  0  0  0  0  0999 V2000     
   22.2396   19.3608   21.6170 C   0  0  0  0  0  0  0  0  0  0  0  0
   22.1067   19.7394   22.6281 H   0  0  0  0  0  0  0  0  0  0  0  0
   23.1679   18.8330   21.4057 H   0  0  0  0  0  0  0  0  0  0  0  0
   21.3170   19.5326   20.6641 C   0  0  0  0  0  0  0  0  0  0  0  0
   21.5030   19.1344   19.6670 H   0  0  0  0  0  0  0  0  0  0  0  0
   19.9801   20.2398   20.8163 C   0  0  0  0  0  0  0  0  0  0  0  0
   19.2398   19.7409   20.1785 H   0  0  0  0  0  0  0  0  0  0  0  0
   20.0706   21.2524   20.4015 H   0  0  0  0  0  0  0  0  0  0  0  0
   19.4212   20.3303   22.2605 C   0  0  0  0  0  0  0  0  0  0  0  0
   20.1312   20.8798   22.8925 H   0  0  0  0  0  0  0  0  0  0  0  0
   18.5062   20.9379   22.2461 H   0  0  0  0  0  0  0  0  0  0  0  0
   19.0991   18.9637   22.9174 C   0  0  0  0  0  0  0  0  0  0  0  0
   18.7943   19.1393   23.9583 H   0  0  0  0  0  0  0  0  0  0  0  0
   20.0028   18.3418   22.9630 H   0  0  0  0  0  0  0  0  0  0  0  0
   17.9728   18.1792   22.1957 C   0  0  0  0  0  0  0  0  0  0  0  0
   17.0780   18.8051   22.0968 H   0  0  0  0  0  0  0  0  0  0  0  0
   18.2876   17.8969   21.1847 H   0  0  0  0  0  0  0  0  0  0  0  0
   17.5775   16.9040   22.9318 C   0  0  0  0  0  0  0  0  0  0  0  0
   18.1461   15.8709   22.6386 O   0  5  0  0  0  0  0  0  0  0  0  0
   16.7204   16.9800   23.7901 O   0  0  0  0  0  0  0  0  0  0  0  0
  1  2  1  0  0  0  0
  1  3  1  0  0  0  0
  1  4  2  0  0  0  0
  4  5  1  0  0  0  0
  4  6  1  0  0  0  0
  6  7  1  0  0  0  0
  6  8  1  0  0  0  0
  6  9  1  0  0  0  0
  9 10  1  0  0  0  0
  9 11  1  0  0  0  0
  9 12  1  0  0  0  0
 12 13  1  0  0  0  0
 12 14  1  0  0  0  0
 12 15  1  0  0  0  0
 15 16  1  0  0  0  0
 15 17  1  0  0  0  0
 15 18  1  0  0  0  0
 18 19  1  0  0  0  0
 18 20  2  0  0  0  0
M  END
> <VConfSearch Rank>
775

> <Conf_Id>
64

> <Delta U+W>
0.366

> <U+W>
-51.379

> <U>
10.000

> <W>
-61.379

> <W(PB)>
-63.541

> <W(SA)>
2.162

> <Valence>
9.398

> <Coulomb>
-0.504

> <VdW>
1.105

> <VdW6>
-7.975

> <VdW12>
9.080

> <Bond>
0.216

> <Angle>
3.417

> <Pdih>
5.765

> <Idih>
0.001

> <Tether>
0.000

$$$$
VeraChem MOL file


 20 19  0  0  0  0  0  0  0  0999 V2000     
   22.7823   19.1238   21.1286 C   0  0  0  0  0  0  0  0  0  0  0  0
   22.5513   20.0125   20.5435 H   0  0  0  0  0  0  0  0  0  0  0  0
   23.4460   18.3869   20.6798 H   0  0  0  0  0  0  0  0  0  0  0  0
   22.2700   18.9394   22.3482 C   0  0  0  0  0  0  0  0  0  0  0  0
   22.5119   18.0415   22.9164 H   0  0  0  0  0  0  0  0  0  0  0  0
   21.3413   19.9172   23.0362 C   0  0  0  0  0  0  0  0  0  0  0  0
   21.3132   20.8715   22.4929 H   0  0  0  0  0  0  0  0  0  0  0  0
   21.7343   20.1420   24.0366 H   0  0  0  0  0  0  0  0  0  0  0  0
   19.9062   19.3617   23.1778 C   0  0  0  0  0  0  0  0  0  0  0  0
   19.9345   18.4069   23.7206 H   0  0  0  0  0  0  0  0  0  0  0  0
   19.3163   20.0555   23.7921 H   0  0  0  0  0  0  0  0  0  0  0  0
   19.2045   19.1682   21.8141 C   0  0  0  0  0  0  0  0  0  0  0  0
   19.7710   18.4549   21.1997 H   0  0  0  0  0  0  0  0  0  0  0  0
   19.1925   20.1203   21.2657 H   0  0  0  0  0  0  0  0  0  0  0  0
   17.7531   18.6545   21.9805 C   0  0  0  0  0  0  0  0  0  0  0  0
   17.7497   17.6974   22.5158 H   0  0  0  0  0  0  0  0  0  0  0  0
   17.1666   19.3627   22.5780 H   0  0  0  0  0  0  0  0  0  0  0  0
   17.0394   18.4552   20.6483 C   0  0  0  0  0  0  0  0  0  0  0  0
   16.4431   19.4000   20.1702 O   0  5  0  0  0  0  0  0  0  0  0  0
   17.1101   17.3647   20.1167 O   0  0  0  0  0  0  0  0  0  0  0  0
  1  2  1  0  0  0  0
  1  3  1  0  0  0  0
  1  4  2  0  0  0  0
  4  5  1  0  0  0  0
  4  6  1  0  0  0  0
  6  7  1  0  0  0  0
  6  8  1  0  0  0  0
  6  9  1  0  0  0  0
  9 10  1  0  0  0  0
  9 11  1  0  0  0  0
  9 12  1  0  0  0  0
 12 13  1  0  0  0  0
 12 14  1  0  0  0  0
 12 15  1  0  0  0  0
 15 16  1  0  0  0  0
 15 17  1  0  0  0  0
 15 18  1  0  0  0  0
 18 19  1  0  0  0  0
 18 20  2  0  0  0  0
M  END
> <VConfSearch Rank>
776

> <Conf_Id>
42

> <Delta U+W>
-0.601

> <U+W>
-52.347

> <U>
8.428

> <W>
-60.774

> <W(PB)>
-62.982

> <W(SA)>
2.208

> <Valence>
9.231

> <Coulomb>
-1.304

> <VdW>
0.501

> <VdW6>
-6.515

> <VdW12>
7.016

> <Bond>
0.103

> <Angle>
2.328

> <Pdih>
6.799

> <Idih>
0.000

> <Tether>
0.000

$$$$
VeraChem MOL file


 20 19  0  0  0  0  0  0  0  0999 V2000     
   19.5914   18.7033   19.0990 C   0  0  0  0  0  0  0  0  0  0  0  0
   20.4787   18.0724   19.1098 H   0  0  0  0  0  0  0  0  0  0  0  0
   19.4520   19.3575   18.2402 H   0  0  0  0  0  0  0  0  0  0  0  0
   18.7079   18.6812   20.1005 C   0  0  0  0  0  0  0  0  0  0  0  0
   17.8276   19.3228   20.0717 H   0  0  0  0  0  0  0  0  0  0  0  0
   18.8345   17.8010   21.3257 C   0  0  0  0  0  0  0  0  0  0  0  0
   19.6295   17.0559   21.1862 H   0  0  0  0  0  0  0  0  0  0  0  0
   17.9018   17.2372   21.4605 H   0  0  0  0  0  0  0  0  0  0  0  0
   19.1121   18.6183   22.6075 C   0  0  0  0  0  0  0  0  0  0  0  0
   18.3122   19.3583   22.7487 H   0  0  0  0  0  0  0  0  0  0  0  0
   19.0717   17.9447   23.4743 H   0  0  0  0  0  0  0  0  0  0  0  0
   20.4871   19.3265   22.5775 C   0  0  0  0  0  0  0  0  0  0  0  0
   20.5261   20.0352   21.7387 H   0  0  0  0  0  0  0  0  0  0  0  0
   21.2738   18.5816   22.3974 H   0  0  0  0  0  0  0  0  0  0  0  0
   20.7983   20.0799   23.8968 C   0  0  0  0  0  0  0  0  0  0  0  0
   20.7405   19.3921   24.7490 H   0  0  0  0  0  0  0  0  0  0  0  0
   21.8253   20.4623   23.8666 H   0  0  0  0  0  0  0  0  0  0  0  0
   19.8764   21.2660   24.1652 C   0  0  0  0  0  0  0  0  0  0  0  0
   18.9911   21.1328   24.9871 O   0  5  0  0  0  0  0  0  0  0  0  0
   20.0802   22.2986   23.5574 O   0  0  0  0  0  0  0  0  0  0  0  0
  1  2  1  0  0  0  0
  1  3  1  0  0  0  0
  1  4  2  0  0  0  0
  4  5  1  0  0  0  0
  4  6  1  0  0  0  0
  6  7  1  0  0  0  0
  6  8  1  0  0  0  0
  6  9  1  0  0  0  0
  9 10  1  0  0  0  0
  9 11  1  0  0  0  0
  9 12  1  0  0  0  0
 12 13  1  0  0  0  0
 12 14  1  0  0  0  0
 12 15  1  0  0  0  0
 15 16  1  0  0  0  0
 15 17  1  0  0  0  0
 15 18  1  0  0  0  0
 18 19  1  0  0  0  0
 18 20  2  0  0  0  0
M  END
> <VConfSearch Rank>
777

> <Conf_Id>
68

> <Delta U+W>
0.492

> <U+W>
-51.253

> <U>
10.179

> <W>
-61.432

> <W(PB)>
-63.627

> <W(SA)>
2.195

> <Valence>
9.483

> <Coulomb>
0.361

> <VdW>
0.335

> <VdW6>
-7.385

> <VdW12>
7.720

> <Bond>
0.125

> <Angle>
2.487

> <Pdih>
6.870

> <Idih>
0.001

> <Tether>
0.000

$$$$
VeraChem MOL file


 20 19  0  0  0  0  0  0  0  0999 V2000     
   22.7203   20.1649   22.2018 C   0  0  0  0  0  0  0  0  0  0  0  0
   22.9044   20.2575   23.2709 H   0  0  0  0  0  0  0  0  0  0  0  0
   23.2639   20.8365   21.5396 H   0  0  0  0  0  0  0  0  0  0  0  0
   21.8592   19.2661   21.7178 C   0  0  0  0  0  0  0  0  0  0  0  0
   21.6918   19.1884   20.6439 H   0  0  0  0  0  0  0  0  0  0  0  0
   21.0736   18.2973   22.5757 C   0  0  0  0  0  0  0  0  0  0  0  0
   21.5478   18.2076   23.5625 H   0  0  0  0  0  0  0  0  0  0  0  0
   21.1017   17.2944   22.1291 H   0  0  0  0  0  0  0  0  0  0  0  0
   19.6061   18.7408   22.7704 C   0  0  0  0  0  0  0  0  0  0  0  0
   19.1286   18.0743   23.5015 H   0  0  0  0  0  0  0  0  0  0  0  0
   19.5861   19.7492   23.2067 H   0  0  0  0  0  0  0  0  0  0  0  0
   18.7915   18.7183   21.4552 C   0  0  0  0  0  0  0  0  0  0  0  0
   18.8598   17.7195   21.0036 H   0  0  0  0  0  0  0  0  0  0  0  0
   19.2242   19.4232   20.7323 H   0  0  0  0  0  0  0  0  0  0  0  0
   17.2972   19.0700   21.6750 C   0  0  0  0  0  0  0  0  0  0  0  0
   16.7455   18.9266   20.7385 H   0  0  0  0  0  0  0  0  0  0  0  0
   16.8522   18.3913   22.4127 H   0  0  0  0  0  0  0  0  0  0  0  0
   17.0593   20.5071   22.1301 C   0  0  0  0  0  0  0  0  0  0  0  0
   17.1234   21.3893   21.2966 O   0  5  0  0  0  0  0  0  0  0  0  0
   16.7971   20.7046   23.3003 O   0  0  0  0  0  0  0  0  0  0  0  0
  1  2  1  0  0  0  0
  1  3  1  0  0  0  0
  1  4  2  0  0  0  0
  4  5  1  0  0  0  0
  4  6  1  0  0  0  0
  6  7  1  0  0  0  0
  6  8  1  0  0  0  0
  6  9  1  0  0  0  0
  9 10  1  0  0  0  0
  9 11  1  0  0  0  0
  9 12  1  0  0  0  0
 12 13  1  0  0  0  0
 12 14  1  0  0  0  0
 12 15  1  0  0  0  0
 15 16  1  0  0  0  0
 15 17  1  0  0  0  0
 15 18  1  0  0  0  0
 18 19  1  0  0  0  0
 18 20  2  0  0  0  0
M  END
> <VConfSearch Rank>
778

> <Conf_Id>
87

> <Delta U+W>
0.339

> <U+W>
-51.407

> <U>
10.461

> <W>
-61.867

> <W(PB)>
-64.045

> <W(SA)>
2.178

> <Valence>
9.555

> <Coulomb>
0.483

> <VdW>
0.423

> <VdW6>
-7.223

> <VdW12>
7.646

> <Bond>
0.126

> <Angle>
2.492

> <Pdih>
6.936

> <Idih>
0.001

> <Tether>
0.000

$$$$
VeraChem MOL file


 20 19  0  0  0  0  0  0  0  0999 V2000     
   21.5603   17.5978   23.4899 C   0  0  0  0  0  0  0  0  0  0  0  0
   21.5016   16.5710   23.1328 H   0  0  0  0  0  0  0  0  0  0  0  0
   22.5439   17.9821   23.7545 H   0  0  0  0  0  0  0  0  0  0  0  0
   20.4688   18.3598   23.5977 C   0  0  0  0  0  0  0  0  0  0  0  0
   20.5467   19.3822   23.9656 H   0  0  0  0  0  0  0  0  0  0  0  0
   19.0707   17.8874   23.2602 C   0  0  0  0  0  0  0  0  0  0  0  0
   18.3243   18.5330   23.7419 H   0  0  0  0  0  0  0  0  0  0  0  0
   18.9264   16.8893   23.6953 H   0  0  0  0  0  0  0  0  0  0  0  0
   18.7958   17.8034   21.7381 C   0  0  0  0  0  0  0  0  0  0  0  0
   19.6400   17.3172   21.2301 H   0  0  0  0  0  0  0  0  0  0  0  0
   17.9323   17.1413   21.5877 H   0  0  0  0  0  0  0  0  0  0  0  0
   18.4736   19.1576   21.0576 C   0  0  0  0  0  0  0  0  0  0  0  0
   17.6382   19.6472   21.5767 H   0  0  0  0  0  0  0  0  0  0  0  0
   18.1238   18.9549   20.0358 H   0  0  0  0  0  0  0  0  0  0  0  0
   19.6764   20.1322   20.9768 C   0  0  0  0  0  0  0  0  0  0  0  0
   19.9609   20.4761   21.9763 H   0  0  0  0  0  0  0  0  0  0  0  0
   20.5474   19.6255   20.5445 H   0  0  0  0  0  0  0  0  0  0  0  0
   19.3794   21.3672   20.1341 C   0  0  0  0  0  0  0  0  0  0  0  0
   18.8862   22.3324   20.6837 O   0  5  0  0  0  0  0  0  0  0  0  0
   19.6296   21.3247   18.9456 O   0  0  0  0  0  0  0  0  0  0  0  0
  1  2  1  0  0  0  0
  1  3  1  0  0  0  0
  1  4  2  0  0  0  0
  4  5  1  0  0  0  0
  4  6  1  0  0  0  0
  6  7  1  0  0  0  0
  6  8  1  0  0  0  0
  6  9  1  0  0  0  0
  9 10  1  0  0  0  0
  9 11  1  0  0  0  0
  9 12  1  0  0  0  0
 12 13  1  0  0  0  0
 12 14  1  0  0  0  0
 12 15  1  0  0  0  0
 15 16  1  0  0  0  0
 15 17  1  0  0  0  0
 15 18  1  0  0  0  0
 18 19  1  0  0  0  0
 18 20  2  0  0  0  0
M  END
> <VConfSearch Rank>
779

> <Conf_Id>
51

> <Delta U+W>
1.709

> <U+W>
-50.036

> <U>
10.643

> <W>
-60.679

> <W(PB)>
-62.882

> <W(SA)>
2.203

> <Valence>
11.231

> <Coulomb>
-1.077

> <VdW>
0.489

> <VdW6>
-7.546

> <VdW12>
8.035

> <Bond>
0.159

> <Angle>
3.005

> <Pdih>
8.065

> <Idih>
0.002

> <Tether>
0.000

$$$$
VeraChem MOL file


 20 19  0  0  0  0  0  0  0  0999 V2000     
   19.0746   16.7632   20.4655 C   0  0  0  0  0  0  0  0  0  0  0  0
   18.9010   16.0153   21.2374 H   0  0  0  0  0  0  0  0  0  0  0  0
   19.5809   16.4398   19.5577 H   0  0  0  0  0  0  0  0  0  0  0  0
   18.6845   18.0305   20.6251 C   0  0  0  0  0  0  0  0  0  0  0  0
   18.8592   18.7624   19.8373 H   0  0  0  0  0  0  0  0  0  0  0  0
   17.9656   18.5459   21.8535 C   0  0  0  0  0  0  0  0  0  0  0  0
   17.1753   17.8310   22.1195 H   0  0  0  0  0  0  0  0  0  0  0  0
   17.4501   19.4883   21.6253 H   0  0  0  0  0  0  0  0  0  0  0  0
   18.8920   18.7322   23.0809 C   0  0  0  0  0  0  0  0  0  0  0  0
   18.2601   18.7584   23.9791 H   0  0  0  0  0  0  0  0  0  0  0  0
   19.5434   17.8552   23.1965 H   0  0  0  0  0  0  0  0  0  0  0  0
   19.7416   20.0280   23.0664 C   0  0  0  0  0  0  0  0  0  0  0  0
   20.2137   20.1412   24.0522 H   0  0  0  0  0  0  0  0  0  0  0  0
   19.0883   20.9017   22.9365 H   0  0  0  0  0  0  0  0  0  0  0  0
   20.8547   20.0479   21.9876 C   0  0  0  0  0  0  0  0  0  0  0  0
   21.4575   19.1339   22.0470 H   0  0  0  0  0  0  0  0  0  0  0  0
   20.4180   20.0869   20.9846 H   0  0  0  0  0  0  0  0  0  0  0  0
   21.7903   21.2432   22.1273 C   0  0  0  0  0  0  0  0  0  0  0  0
   21.4928   22.2749   21.5580 O   0  5  0  0  0  0  0  0  0  0  0  0
   22.7819   21.1181   22.8186 O   0  0  0  0  0  0  0  0  0  0  0  0
  1  2  1  0  0  0  0
  1  3  1  0  0  0  0
  1  4  2  0  0  0  0
  4  5  1  0  0  0  0
  4  6  1  0  0  0  0
  6  7  1  0  0  0  0
  6  8  1  0  0  0  0
  6  9  1  0  0  0  0
  9 10  1  0  0  0  0
  9 11  1  0  0  0  0
  9 12  1  0  0  0  0
 12 13  1  0  0  0  0
 12 14  1  0  0  0  0
 12 15  1  0  0  0  0
 15 16  1  0  0  0  0
 15 17  1  0  0  0  0
 15 18  1  0  0  0  0
 18 19  1  0  0  0  0
 18 20  2  0  0  0  0
M  END
> <VConfSearch Rank>
780

> <Conf_Id>
91

> <Delta U+W>
1.604

> <U+W>
-50.141

> <U>
10.644

> <W>
-60.786

> <W(PB)>
-62.965

> <W(SA)>
2.179

> <Valence>
11.230

> <Coulomb>
-1.075

> <VdW>
0.489

> <VdW6>
-7.547

> <VdW12>
8.036

> <Bond>
0.159

> <Angle>
3.006

> <Pdih>
8.064

> <Idih>
0.002

> <Tether>
0.000

$$$$
VeraChem MOL file


 20 19  0  0  0  0  0  0  0  0999 V2000     
   19.4032   21.3899   19.0875 C   0  0  0  0  0  0  0  0  0  0  0  0
   19.3205   20.5360   18.4169 H   0  0  0  0  0  0  0  0  0  0  0  0
   19.6704   22.3489   18.6468 H   0  0  0  0  0  0  0  0  0  0  0  0
   19.1887   21.2694   20.4002 C   0  0  0  0  0  0  0  0  0  0  0  0
   19.2774   22.1366   21.0542 H   0  0  0  0  0  0  0  0  0  0  0  0
   18.8140   19.9726   21.0824 C   0  0  0  0  0  0  0  0  0  0  0  0
   18.4950   19.2298   20.3385 H   0  0  0  0  0  0  0  0  0  0  0  0
   17.9567   20.1416   21.7477 H   0  0  0  0  0  0  0  0  0  0  0  0
   19.9976   19.4090   21.8963 C   0  0  0  0  0  0  0  0  0  0  0  0
   20.8536   19.2457   21.2270 H   0  0  0  0  0  0  0  0  0  0  0  0
   20.3133   20.1503   22.6432 H   0  0  0  0  0  0  0  0  0  0  0  0
   19.6310   18.0853   22.6024 C   0  0  0  0  0  0  0  0  0  0  0  0
   19.3155   17.3431   21.8559 H   0  0  0  0  0  0  0  0  0  0  0  0
   18.7741   18.2477   23.2709 H   0  0  0  0  0  0  0  0  0  0  0  0
   20.8219   17.5185   23.4203 C   0  0  0  0  0  0  0  0  0  0  0  0
   21.6787   17.3479   22.7579 H   0  0  0  0  0  0  0  0  0  0  0  0
   21.1379   18.2516   24.1717 H   0  0  0  0  0  0  0  0  0  0  0  0
   20.5436   16.2052   24.1532 C   0  0  0  0  0  0  0  0  0  0  0  0
   21.4522   15.7310   24.8056 O   0  5  0  0  0  0  0  0  0  0  0  0
   19.4478   15.6857   24.0644 O   0  0  0  0  0  0  0  0  0  0  0  0
  1  2  1  0  0  0  0
  1  3  1  0  0  0  0
  1  4  2  0  0  0  0
  4  5  1  0  0  0  0
  4  6  1  0  0  0  0
  6  7  1  0  0  0  0
  6  8  1  0  0  0  0
  6  9  1  0  0  0  0
  9 10  1  0  0  0  0
  9 11  1  0  0  0  0
  9 12  1  0  0  0  0
 12 13  1  0  0  0  0
 12 14  1  0  0  0  0
 12 15  1  0  0  0  0
 15 16  1  0  0  0  0
 15 17  1  0  0  0  0
 15 18  1  0  0  0  0
 18 19  1  0  0  0  0
 18 20  2  0  0  0  0
M  END
> <VConfSearch Rank>
781

> <Conf_Id>
33

> <Delta U+W>
0.000

> <U+W>
-51.745

> <U>
7.593

> <W>
-59.338

> <W(PB)>
-61.574

> <W(SA)>
2.236

> <Valence>
9.570

> <Coulomb>
-3.091

> <VdW>
1.114

> <VdW6>
-6.064

> <VdW12>
7.178

> <Bond>
0.117

> <Angle>
2.692

> <Pdih>
6.761

> <Idih>
0.000

> <Tether>
0.000

$$$$
VeraChem MOL file


 20 19  0  0  0  0  0  0  0  0999 V2000     
   16.8870   18.6040   19.6781 C   0  0  0  0  0  0  0  0  0  0  0  0
   16.3663   19.4036   20.2027 H   0  0  0  0  0  0  0  0  0  0  0  0
   16.3143   18.0206   18.9592 H   0  0  0  0  0  0  0  0  0  0  0  0
   18.1770   18.3442   19.9065 C   0  0  0  0  0  0  0  0  0  0  0  0
   18.6793   17.5387   19.3713 H   0  0  0  0  0  0  0  0  0  0  0  0
   19.0355   19.1109   20.8877 C   0  0  0  0  0  0  0  0  0  0  0  0
   18.5358   20.0442   21.1809 H   0  0  0  0  0  0  0  0  0  0  0  0
   19.9757   19.3945   20.3982 H   0  0  0  0  0  0  0  0  0  0  0  0
   19.3273   18.2657   22.1480 C   0  0  0  0  0  0  0  0  0  0  0  0
   18.3735   17.9228   22.5723 H   0  0  0  0  0  0  0  0  0  0  0  0
   19.8840   17.3615   21.8659 H   0  0  0  0  0  0  0  0  0  0  0  0
   20.1051   19.0360   23.2414 C   0  0  0  0  0  0  0  0  0  0  0  0
   20.1699   18.4047   24.1385 H   0  0  0  0  0  0  0  0  0  0  0  0
   19.5432   19.9338   23.5342 H   0  0  0  0  0  0  0  0  0  0  0  0
   21.5396   19.4400   22.8123 C   0  0  0  0  0  0  0  0  0  0  0  0
   22.0972   18.5574   22.4771 H   0  0  0  0  0  0  0  0  0  0  0  0
   21.5083   20.1438   21.9729 H   0  0  0  0  0  0  0  0  0  0  0  0
   22.3282   20.0977   23.9391 C   0  0  0  0  0  0  0  0  0  0  0  0
   22.2482   21.3034   24.0677 O   0  5  0  0  0  0  0  0  0  0  0  0
   22.9861   19.3846   24.6708 O   0  0  0  0  0  0  0  0  0  0  0  0
  1  2  1  0  0  0  0
  1  3  1  0  0  0  0
  1  4  2  0  0  0  0
  4  5  1  0  0  0  0
  4  6  1  0  0  0  0
  6  7  1  0  0  0  0
  6  8  1  0  0  0  0
  6  9  1  0  0  0  0
  9 10  1  0  0  0  0
  9 11  1  0  0  0  0
  9 12  1  0  0  0  0
 12 13  1  0  0  0  0
 12 14  1  0  0  0  0
 12 15  1  0  0  0  0
 15 16  1  0  0  0  0
 15 17  1  0  0  0  0
 15 18  1  0  0  0  0
 18 19  1  0  0  0  0
 18 20  2  0  0  0  0
M  END
> <VConfSearch Rank>
782

> <Conf_Id>
37

> <Delta U+W>
-0.384

> <U+W>
-52.130

> <U>
7.491

> <W>
-59.621

> <W(PB)>
-61.853

> <W(SA)>
2.232

> <Valence>
9.604

> <Coulomb>
-2.799

> <VdW>
0.686

> <VdW6>
-6.435

> <VdW12>
7.121

> <Bond>
0.124

> <Angle>
2.493

> <Pdih>
6.986

> <Idih>
0.001

> <Tether>
0.000

$$$$
VeraChem MOL file


 20 19  0  0  0  0  0  0  0  0999 V2000     
   19.4588   16.1209   23.5554 C   0  0  0  0  0  0  0  0  0  0  0  0
   19.3556   15.1893   24.1091 H   0  0  0  0  0  0  0  0  0  0  0  0
   19.3307   16.0673   22.4763 H   0  0  0  0  0  0  0  0  0  0  0  0
   19.7306   17.2667   24.1904 C   0  0  0  0  0  0  0  0  0  0  0  0
   19.8482   17.2570   25.2738 H   0  0  0  0  0  0  0  0  0  0  0  0
   19.9027   18.6374   23.5576 C   0  0  0  0  0  0  0  0  0  0  0  0
   20.8943   19.0270   23.8240 H   0  0  0  0  0  0  0  0  0  0  0  0
   19.1809   19.3291   24.0123 H   0  0  0  0  0  0  0  0  0  0  0  0
   19.7400   18.6734   22.0200 C   0  0  0  0  0  0  0  0  0  0  0  0
   20.4736   17.9989   21.5574 H   0  0  0  0  0  0  0  0  0  0  0  0
   18.7416   18.3042   21.7479 H   0  0  0  0  0  0  0  0  0  0  0  0
   19.9294   20.0992   21.4576 C   0  0  0  0  0  0  0  0  0  0  0  0
   20.9267   20.4744   21.7266 H   0  0  0  0  0  0  0  0  0  0  0  0
   19.1982   20.7790   21.9167 H   0  0  0  0  0  0  0  0  0  0  0  0
   19.7670   20.1378   19.9181 C   0  0  0  0  0  0  0  0  0  0  0  0
   20.4993   19.4740   19.4431 H   0  0  0  0  0  0  0  0  0  0  0  0
   18.7708   19.7785   19.6332 H   0  0  0  0  0  0  0  0  0  0  0  0
   19.9496   21.5360   19.3386 C   0  0  0  0  0  0  0  0  0  0  0  0
   21.0689   21.8809   19.0146 O   0  5  0  0  0  0  0  0  0  0  0  0
   18.9711   22.2503   19.2449 O   0  0  0  0  0  0  0  0  0  0  0  0
  1  2  1  0  0  0  0
  1  3  1  0  0  0  0
  1  4  2  0  0  0  0
  4  5  1  0  0  0  0
  4  6  1  0  0  0  0
  6  7  1  0  0  0  0
  6  8  1  0  0  0  0
  6  9  1  0  0  0  0
  9 10  1  0  0  0  0
  9 11  1  0  0  0  0
  9 12  1  0  0  0  0
 12 13  1  0  0  0  0
 12 14  1  0  0  0  0
 12 15  1  0  0  0  0
 15 16  1  0  0  0  0
 15 17  1  0  0  0  0
 15 18  1  0  0  0  0
 18 19  1  0  0  0  0
 18 20  2  0  0  0  0
M  END
> <VConfSearch Rank>
783

> <Conf_Id>
44

> <Delta U+W>
-1.440

> <U+W>
-53.185

> <U>
6.572

> <W>
-59.757

> <W(PB)>
-62.007

> <W(SA)>
2.249

> <Valence>
7.989

> <Coulomb>
-2.697

> <VdW>
1.281

> <VdW6>
-6.467

> <VdW12>
7.748

> <Bond>
0.136

> <Angle>
2.854

> <Pdih>
4.997

> <Idih>
0.001

> <Tether>
0.000

$$$$
VeraChem MOL file


 20 19  0  0  0  0  0  0  0  0999 V2000     
   21.5577   20.9721   24.2125 C   0  0  0  0  0  0  0  0  0  0  0  0
   22.1818   20.0799   24.2140 H   0  0  0  0  0  0  0  0  0  0  0  0
   21.7184   21.6972   25.0085 H   0  0  0  0  0  0  0  0  0  0  0  0
   20.6283   21.1718   23.2743 C   0  0  0  0  0  0  0  0  0  0  0  0
   20.0137   22.0716   23.2913 H   0  0  0  0  0  0  0  0  0  0  0  0
   20.3493   20.2117   22.1393 C   0  0  0  0  0  0  0  0  0  0  0  0
   21.1751   19.4948   22.0461 H   0  0  0  0  0  0  0  0  0  0  0  0
   20.3025   20.7667   21.1928 H   0  0  0  0  0  0  0  0  0  0  0  0
   19.0195   19.4576   22.3644 C   0  0  0  0  0  0  0  0  0  0  0  0
   19.0872   18.8594   23.2835 H   0  0  0  0  0  0  0  0  0  0  0  0
   18.2185   20.1911   22.5304 H   0  0  0  0  0  0  0  0  0  0  0  0
   18.6168   18.5481   21.1791 C   0  0  0  0  0  0  0  0  0  0  0  0
   18.5393   19.1467   20.2609 H   0  0  0  0  0  0  0  0  0  0  0  0
   17.6133   18.1435   21.3709 H   0  0  0  0  0  0  0  0  0  0  0  0
   19.5935   17.3662   20.9459 C   0  0  0  0  0  0  0  0  0  0  0  0
   20.5856   17.7346   20.6616 H   0  0  0  0  0  0  0  0  0  0  0  0
   19.7133   16.7864   21.8689 H   0  0  0  0  0  0  0  0  0  0  0  0
   19.1200   16.4182   19.8500 C   0  0  0  0  0  0  0  0  0  0  0  0
   18.4133   15.4819   20.1674 O   0  5  0  0  0  0  0  0  0  0  0  0
   19.4537   16.6521   18.7052 O   0  0  0  0  0  0  0  0  0  0  0  0
  1  2  1  0  0  0  0
  1  3  1  0  0  0  0
  1  4  2  0  0  0  0
  4  5  1  0  0  0  0
  4  6  1  0  0  0  0
  6  7  1  0  0  0  0
  6  8  1  0  0  0  0
  6  9  1  0  0  0  0
  9 10  1  0  0  0  0
  9 11  1  0  0  0  0
  9 12  1  0  0  0  0
 12 13  1  0  0  0  0
 12 14  1  0  0  0  0
 12 15  1  0  0  0  0
 15 16  1  0  0  0  0
 15 17  1  0  0  0  0
 15 18  1  0  0  0  0
 18 19  1  0  0  0  0
 18 20  2  0  0  0  0
M  END
> <VConfSearch Rank>
784

> <Conf_Id>
38

> <Delta U+W>
-0.381

> <U+W>
-52.126

> <U>
7.601

> <W>
-59.727

> <W(PB)>
-61.964

> <W(SA)>
2.236

> <Valence>
9.602

> <Coulomb>
-2.686

> <VdW>
0.685

> <VdW6>
-6.453

> <VdW12>
7.139

> <Bond>
0.125

> <Angle>
2.485

> <Pdih>
6.991

> <Idih>
0.001

> <Tether>
0.000

$$$$
VeraChem MOL file


 20 19  0  0  0  0  0  0  0  0999 V2000     
   20.0510   19.7905   18.5333 C   0  0  0  0  0  0  0  0  0  0  0  0
   21.1268   19.9432   18.6035 H   0  0  0  0  0  0  0  0  0  0  0  0
   19.6476   19.5063   17.5629 H   0  0  0  0  0  0  0  0  0  0  0  0
   19.2541   19.9425   19.5942 C   0  0  0  0  0  0  0  0  0  0  0  0
   18.1797   19.7839   19.5028 H   0  0  0  0  0  0  0  0  0  0  0  0
   19.7412   20.3356   20.9711 C   0  0  0  0  0  0  0  0  0  0  0  0
   19.1200   21.1530   21.3610 H   0  0  0  0  0  0  0  0  0  0  0  0
   20.7693   20.7184   20.9158 H   0  0  0  0  0  0  0  0  0  0  0  0
   19.6896   19.1383   21.9431 C   0  0  0  0  0  0  0  0  0  0  0  0
   18.6598   18.7588   21.9984 H   0  0  0  0  0  0  0  0  0  0  0  0
   20.3082   18.3210   21.5474 H   0  0  0  0  0  0  0  0  0  0  0  0
   20.1816   19.5238   23.3565 C   0  0  0  0  0  0  0  0  0  0  0  0
   19.5581   20.3341   23.7597 H   0  0  0  0  0  0  0  0  0  0  0  0
   21.2053   19.9163   23.2891 H   0  0  0  0  0  0  0  0  0  0  0  0
   20.1659   18.3256   24.3408 C   0  0  0  0  0  0  0  0  0  0  0  0
   20.7618   17.4972   23.9389 H   0  0  0  0  0  0  0  0  0  0  0  0
   20.6327   18.6226   25.2873 H   0  0  0  0  0  0  0  0  0  0  0  0
   18.7675   17.8074   24.6647 C   0  0  0  0  0  0  0  0  0  0  0  0
   18.4075   16.7643   24.1554 O   0  5  0  0  0  0  0  0  0  0  0  0
   18.0791   18.4566   25.4275 O   0  0  0  0  0  0  0  0  0  0  0  0
  1  2  1  0  0  0  0
  1  3  1  0  0  0  0
  1  4  2  0  0  0  0
  4  5  1  0  0  0  0
  4  6  1  0  0  0  0
  6  7  1  0  0  0  0
  6  8  1  0  0  0  0
  6  9  1  0  0  0  0
  9 10  1  0  0  0  0
  9 11  1  0  0  0  0
  9 12  1  0  0  0  0
 12 13  1  0  0  0  0
 12 14  1  0  0  0  0
 12 15  1  0  0  0  0
 15 16  1  0  0  0  0
 15 17  1  0  0  0  0
 15 18  1  0  0  0  0
 18 19  1  0  0  0  0
 18 20  2  0  0  0  0
M  END
> <VConfSearch Rank>
785

> <Conf_Id>
58

> <Delta U+W>
0.019

> <U+W>
-51.727

> <U>
8.963

> <W>
-60.690

> <W(PB)>
-62.934

> <W(SA)>
2.244

> <Valence>
9.327

> <Coulomb>
-0.780

> <VdW>
0.417

> <VdW6>
-6.635

> <VdW12>
7.052

> <Bond>
0.105

> <Angle>
2.399

> <Pdih>
6.822

> <Idih>
0.000

> <Tether>
0.000

$$$$
VeraChem MOL file


 20 19  0  0  0  0  0  0  0  0999 V2000     
   22.8537   19.6589   23.7392 C   0  0  0  0  0  0  0  0  0  0  0  0
   22.7464   20.7416   23.7837 H   0  0  0  0  0  0  0  0  0  0  0  0
   23.8589   19.2510   23.8319 H   0  0  0  0  0  0  0  0  0  0  0  0
   21.7968   18.8592   23.5749 C   0  0  0  0  0  0  0  0  0  0  0  0
   21.9261   17.7779   23.5320 H   0  0  0  0  0  0  0  0  0  0  0  0
   20.3734   19.3523   23.4397 C   0  0  0  0  0  0  0  0  0  0  0  0
   20.3049   20.4049   23.7464 H   0  0  0  0  0  0  0  0  0  0  0  0
   19.7216   18.7829   24.1159 H   0  0  0  0  0  0  0  0  0  0  0  0
   19.8681   19.2051   21.9892 C   0  0  0  0  0  0  0  0  0  0  0  0
   20.5253   19.7720   21.3153 H   0  0  0  0  0  0  0  0  0  0  0  0
   19.9355   18.1512   21.6857 H   0  0  0  0  0  0  0  0  0  0  0  0
   18.4130   19.7020   21.8342 C   0  0  0  0  0  0  0  0  0  0  0  0
   18.3524   20.7510   22.1545 H   0  0  0  0  0  0  0  0  0  0  0  0
   17.7512   19.1297   22.4992 H   0  0  0  0  0  0  0  0  0  0  0  0
   17.8969   19.5906   20.3761 C   0  0  0  0  0  0  0  0  0  0  0  0
   16.9106   20.0630   20.2993 H   0  0  0  0  0  0  0  0  0  0  0  0
   18.5634   20.1343   19.6956 H   0  0  0  0  0  0  0  0  0  0  0  0
   17.7557   18.1556   19.8764 C   0  0  0  0  0  0  0  0  0  0  0  0
   16.8103   17.5022   20.2720 O   0  5  0  0  0  0  0  0  0  0  0  0
   18.5869   17.7326   19.0972 O   0  0  0  0  0  0  0  0  0  0  0  0
  1  2  1  0  0  0  0
  1  3  1  0  0  0  0
  1  4  2  0  0  0  0
  4  5  1  0  0  0  0
  4  6  1  0  0  0  0
  6  7  1  0  0  0  0
  6  8  1  0  0  0  0
  6  9  1  0  0  0  0
  9 10  1  0  0  0  0
  9 11  1  0  0  0  0
  9 12  1  0  0  0  0
 12 13  1  0  0  0  0
 12 14  1  0  0  0  0
 12 15  1  0  0  0  0
 15 16  1  0  0  0  0
 15 17  1  0  0  0  0
 15 18  1  0  0  0  0
 18 19  1  0  0  0  0
 18 20  2  0  0  0  0
M  END
> <VConfSearch Rank>
786

> <Conf_Id>
54

> <Delta U+W>
-0.048

> <U+W>
-51.793

> <U>
8.964

> <W>
-60.756

> <W(PB)>
-63.007

> <W(SA)>
2.251

> <Valence>
9.327

> <Coulomb>
-0.780

> <VdW>
0.417

> <VdW6>
-6.635

> <VdW12>
7.052

> <Bond>
0.105

> <Angle>
2.399

> <Pdih>
6.822

> <Idih>
0.000

> <Tether>
0.000

$$$$
VeraChem MOL file


 20 19  0  0  0  0  0  0  0  0999 V2000     
   22.3670   19.0333   24.1653 C   0  0  0  0  0  0  0  0  0  0  0  0
   22.7905   19.7731   24.8424 H   0  0  0  0  0  0  0  0  0  0  0  0
   22.3411   17.9993   24.5054 H   0  0  0  0  0  0  0  0  0  0  0  0
   21.8959   19.3849   22.9661 C   0  0  0  0  0  0  0  0  0  0  0  0
   21.9347   20.4251   22.6439 H   0  0  0  0  0  0  0  0  0  0  0  0
   21.3006   18.4118   21.9709 C   0  0  0  0  0  0  0  0  0  0  0  0
   21.6284   17.3911   22.2101 H   0  0  0  0  0  0  0  0  0  0  0  0
   21.6798   18.6279   20.9631 H   0  0  0  0  0  0  0  0  0  0  0  0
   19.7556   18.4464   21.9651 C   0  0  0  0  0  0  0  0  0  0  0  0
   19.3884   17.6284   21.3302 H   0  0  0  0  0  0  0  0  0  0  0  0
   19.3818   18.2472   22.9789 H   0  0  0  0  0  0  0  0  0  0  0  0
   19.1856   19.7897   21.4508 C   0  0  0  0  0  0  0  0  0  0  0  0
   19.5708   19.9963   20.4426 H   0  0  0  0  0  0  0  0  0  0  0  0
   19.5339   20.6069   22.0962 H   0  0  0  0  0  0  0  0  0  0  0  0
   17.6351   19.8066   21.4217 C   0  0  0  0  0  0  0  0  0  0  0  0
   17.2351   19.5686   22.4148 H   0  0  0  0  0  0  0  0  0  0  0  0
   17.2844   20.8148   21.1716 H   0  0  0  0  0  0  0  0  0  0  0  0
   17.0225   18.8461   20.4064 C   0  0  0  0  0  0  0  0  0  0  0  0
   16.5204   17.8180   20.8162 O   0  5  0  0  0  0  0  0  0  0  0  0
   17.0546   19.1575   19.2320 O   0  0  0  0  0  0  0  0  0  0  0  0
  1  2  1  0  0  0  0
  1  3  1  0  0  0  0
  1  4  2  0  0  0  0
  4  5  1  0  0  0  0
  4  6  1  0  0  0  0
  6  7  1  0  0  0  0
  6  8  1  0  0  0  0
  6  9  1  0  0  0  0
  9 10  1  0  0  0  0
  9 11  1  0  0  0  0
  9 12  1  0  0  0  0
 12 13  1  0  0  0  0
 12 14  1  0  0  0  0
 12 15  1  0  0  0  0
 15 16  1  0  0  0  0
 15 17  1  0  0  0  0
 15 18  1  0  0  0  0
 18 19  1  0  0  0  0
 18 20  2  0  0  0  0
M  END
> <VConfSearch Rank>
787

> <Conf_Id>
27

> <Delta U+W>
0.478

> <U+W>
-51.267

> <U>
9.192

> <W>
-60.459

> <W(PB)>
-62.649

> <W(SA)>
2.190

> <Valence>
9.572

> <Coulomb>
-0.884

> <VdW>
0.504

> <VdW6>
-7.168

> <VdW12>
7.672

> <Bond>
0.127

> <Angle>
2.504

> <Pdih>
6.941

> <Idih>
0.001

> <Tether>
0.000

$$$$
VeraChem MOL file


 20 19  0  0  0  0  0  0  0  0999 V2000     
   16.8050   19.5444   23.4868 C   0  0  0  0  0  0  0  0  0  0  0  0
   16.5777   18.7051   24.1420 H   0  0  0  0  0  0  0  0  0  0  0  0
   15.9654   20.1158   23.0947 H   0  0  0  0  0  0  0  0  0  0  0  0
   18.0633   19.8621   23.1713 C   0  0  0  0  0  0  0  0  0  0  0  0
   18.2686   20.7082   22.5161 H   0  0  0  0  0  0  0  0  0  0  0  0
   19.2788   19.1186   23.6828 C   0  0  0  0  0  0  0  0  0  0  0  0
   19.0110   18.5443   24.5801 H   0  0  0  0  0  0  0  0  0  0  0  0
   20.0510   19.8342   23.9953 H   0  0  0  0  0  0  0  0  0  0  0  0
   19.8614   18.1490   22.6299 C   0  0  0  0  0  0  0  0  0  0  0  0
   20.6512   17.5483   23.1012 H   0  0  0  0  0  0  0  0  0  0  0  0
   19.0801   17.4459   22.3098 H   0  0  0  0  0  0  0  0  0  0  0  0
   20.4457   18.8790   21.3988 C   0  0  0  0  0  0  0  0  0  0  0  0
   21.2085   19.6004   21.7231 H   0  0  0  0  0  0  0  0  0  0  0  0
   19.6570   19.4534   20.8940 H   0  0  0  0  0  0  0  0  0  0  0  0
   21.0751   17.8889   20.3880 C   0  0  0  0  0  0  0  0  0  0  0  0
   21.8775   17.3160   20.8680 H   0  0  0  0  0  0  0  0  0  0  0  0
   20.3224   17.1688   20.0453 H   0  0  0  0  0  0  0  0  0  0  0  0
   21.6578   18.5845   19.1630 C   0  0  0  0  0  0  0  0  0  0  0  0
   20.9337   18.7570   18.2025 O   0  5  0  0  0  0  0  0  0  0  0  0
   22.8154   18.9512   19.2082 O   0  0  0  0  0  0  0  0  0  0  0  0
  1  2  1  0  0  0  0
  1  3  1  0  0  0  0
  1  4  2  0  0  0  0
  4  5  1  0  0  0  0
  4  6  1  0  0  0  0
  6  7  1  0  0  0  0
  6  8  1  0  0  0  0
  6  9  1  0  0  0  0
  9 10  1  0  0  0  0
  9 11  1  0  0  0  0
  9 12  1  0  0  0  0
 12 13  1  0  0  0  0
 12 14  1  0  0  0  0
 12 15  1  0  0  0  0
 15 16  1  0  0  0  0
 15 17  1  0  0  0  0
 15 18  1  0  0  0  0
 18 19  1  0  0  0  0
 18 20  2  0  0  0  0
M  END
> <VConfSearch Rank>
788

> <Conf_Id>
41

> <Delta U+W>
-0.634

> <U+W>
-52.379

> <U>
7.828

> <W>
-60.207

> <W(PB)>
-62.449

> <W(SA)>
2.242

> <Valence>
9.300

> <Coulomb>
-2.080

> <VdW>
0.608

> <VdW6>
-6.341

> <VdW12>
6.949

> <Bond>
0.103

> <Angle>
2.334

> <Pdih>
6.862

> <Idih>
0.001

> <Tether>
0.000

$$$$
VeraChem MOL file


 20 19  0  0  0  0  0  0  0  0999 V2000     
   17.4958   16.6036   21.2684 C   0  0  0  0  0  0  0  0  0  0  0  0
   16.5575   16.1282   21.5492 H   0  0  0  0  0  0  0  0  0  0  0  0
   17.7833   16.5636   20.2190 H   0  0  0  0  0  0  0  0  0  0  0  0
   18.2601   17.2130   22.1784 C   0  0  0  0  0  0  0  0  0  0  0  0
   17.9542   17.2426   23.2239 H   0  0  0  0  0  0  0  0  0  0  0  0
   19.5741   17.8930   21.8641 C   0  0  0  0  0  0  0  0  0  0  0  0
   19.9259   17.5979   20.8663 H   0  0  0  0  0  0  0  0  0  0  0  0
   20.3332   17.5576   22.5825 H   0  0  0  0  0  0  0  0  0  0  0  0
   19.4324   19.4302   21.9277 C   0  0  0  0  0  0  0  0  0  0  0  0
   18.6015   19.7368   21.2776 H   0  0  0  0  0  0  0  0  0  0  0  0
   19.1537   19.7315   22.9470 H   0  0  0  0  0  0  0  0  0  0  0  0
   20.7088   20.1881   21.4866 C   0  0  0  0  0  0  0  0  0  0  0  0
   20.4977   21.2664   21.4872 H   0  0  0  0  0  0  0  0  0  0  0  0
   20.9466   19.9220   20.4478 H   0  0  0  0  0  0  0  0  0  0  0  0
   21.9532   19.9233   22.3776 C   0  0  0  0  0  0  0  0  0  0  0  0
   22.2381   18.8657   22.3406 H   0  0  0  0  0  0  0  0  0  0  0  0
   22.8069   20.4881   21.9854 H   0  0  0  0  0  0  0  0  0  0  0  0
   21.7721   20.3300   23.8373 C   0  0  0  0  0  0  0  0  0  0  0  0
   21.7497   21.5160   24.1024 O   0  5  0  0  0  0  0  0  0  0  0  0
   21.6765   19.4521   24.6722 O   0  0  0  0  0  0  0  0  0  0  0  0
  1  2  1  0  0  0  0
  1  3  1  0  0  0  0
  1  4  2  0  0  0  0
  4  5  1  0  0  0  0
  4  6  1  0  0  0  0
  6  7  1  0  0  0  0
  6  8  1  0  0  0  0
  6  9  1  0  0  0  0
  9 10  1  0  0  0  0
  9 11  1  0  0  0  0
  9 12  1  0  0  0  0
 12 13  1  0  0  0  0
 12 14  1  0  0  0  0
 12 15  1  0  0  0  0
 15 16  1  0  0  0  0
 15 17  1  0  0  0  0
 15 18  1  0  0  0  0
 18 19  1  0  0  0  0
 18 20  2  0  0  0  0
M  END
> <VConfSearch Rank>
789

> <Conf_Id>
84

> <Delta U+W>
0.942

> <U+W>
-50.803

> <U>
10.196

> <W>
-60.999

> <W(PB)>
-63.182

> <W(SA)>
2.182

> <Valence>
9.837

> <Coulomb>
0.032

> <VdW>
0.328

> <VdW6>
-7.642

> <VdW12>
7.969

> <Bond>
0.151

> <Angle>
2.748

> <Pdih>
6.937

> <Idih>
0.001

> <Tether>
0.000

$$$$
VeraChem MOL file


 20 19  0  0  0  0  0  0  0  0999 V2000     
   22.7857   20.5770   21.4715 C   0  0  0  0  0  0  0  0  0  0  0  0
   23.8383   20.3613   21.2960 H   0  0  0  0  0  0  0  0  0  0  0  0
   22.3061   21.3000   20.8137 H   0  0  0  0  0  0  0  0  0  0  0  0
   22.1123   19.9741   22.4547 C   0  0  0  0  0  0  0  0  0  0  0  0
   22.6110   19.2526   23.1015 H   0  0  0  0  0  0  0  0  0  0  0  0
   20.6517   20.2232   22.7585 C   0  0  0  0  0  0  0  0  0  0  0  0
   20.3053   21.1296   22.2436 H   0  0  0  0  0  0  0  0  0  0  0  0
   20.5261   20.4033   23.8346 H   0  0  0  0  0  0  0  0  0  0  0  0
   19.7806   19.0241   22.3289 C   0  0  0  0  0  0  0  0  0  0  0  0
   19.9161   18.8457   21.2531 H   0  0  0  0  0  0  0  0  0  0  0  0
   20.1239   18.1179   22.8467 H   0  0  0  0  0  0  0  0  0  0  0  0
   18.2847   19.2615   22.6359 C   0  0  0  0  0  0  0  0  0  0  0  0
   17.9344   20.1595   22.1082 H   0  0  0  0  0  0  0  0  0  0  0  0
   18.1619   19.4578   23.7097 H   0  0  0  0  0  0  0  0  0  0  0  0
   17.3958   18.0539   22.2404 C   0  0  0  0  0  0  0  0  0  0  0  0
   17.7499   17.1433   22.7387 H   0  0  0  0  0  0  0  0  0  0  0  0
   16.3694   18.2259   22.5853 H   0  0  0  0  0  0  0  0  0  0  0  0
   17.3347   17.7947   20.7377 C   0  0  0  0  0  0  0  0  0  0  0  0
   17.9589   16.8530   20.2900 O   0  5  0  0  0  0  0  0  0  0  0  0
   16.6527   18.5349   20.0565 O   0  0  0  0  0  0  0  0  0  0  0  0
  1  2  1  0  0  0  0
  1  3  1  0  0  0  0
  1  4  2  0  0  0  0
  4  5  1  0  0  0  0
  4  6  1  0  0  0  0
  6  7  1  0  0  0  0
  6  8  1  0  0  0  0
  6  9  1  0  0  0  0
  9 10  1  0  0  0  0
  9 11  1  0  0  0  0
  9 12  1  0  0  0  0
 12 13  1  0  0  0  0
 12 14  1  0  0  0  0
 12 15  1  0  0  0  0
 15 16  1  0  0  0  0
 15 17  1  0  0  0  0
 15 18  1  0  0  0  0
 18 19  1  0  0  0  0
 18 20  2  0  0  0  0
M  END
> <VConfSearch Rank>
790

> <Conf_Id>
81

> <Delta U+W>
-0.051

> <U+W>
-51.796

> <U>
9.412

> <W>
-61.209

> <W(PB)>
-63.452

> <W(SA)>
2.243

> <Valence>
9.329

> <Coulomb>
-0.323

> <VdW>
0.406

> <VdW6>
-6.640

> <VdW12>
7.046

> <Bond>
0.105

> <Angle>
2.401

> <Pdih>
6.823

> <Idih>
0.000

> <Tether>
0.000

$$$$
VeraChem MOL file


 20 19  0  0  0  0  0  0  0  0999 V2000     
   20.6307   18.7051   18.9700 C   0  0  0  0  0  0  0  0  0  0  0  0
   20.0991   19.4370   18.3641 H   0  0  0  0  0  0  0  0  0  0  0  0
   21.5038   18.2280   18.5282 H   0  0  0  0  0  0  0  0  0  0  0  0
   20.2321   18.4036   20.2085 C   0  0  0  0  0  0  0  0  0  0  0  0
   20.7769   17.6663   20.7973 H   0  0  0  0  0  0  0  0  0  0  0  0
   19.0270   19.0207   20.8855 C   0  0  0  0  0  0  0  0  0  0  0  0
   18.4358   18.2423   21.3851 H   0  0  0  0  0  0  0  0  0  0  0  0
   18.3631   19.4614   20.1297 H   0  0  0  0  0  0  0  0  0  0  0  0
   19.4181   20.1235   21.8983 C   0  0  0  0  0  0  0  0  0  0  0  0
   19.9319   20.9316   21.3601 H   0  0  0  0  0  0  0  0  0  0  0  0
   18.5024   20.5678   22.3119 H   0  0  0  0  0  0  0  0  0  0  0  0
   20.3239   19.6435   23.0616 C   0  0  0  0  0  0  0  0  0  0  0  0
   20.5614   20.5049   23.7009 H   0  0  0  0  0  0  0  0  0  0  0  0
   21.2826   19.2916   22.6582 H   0  0  0  0  0  0  0  0  0  0  0  0
   19.7007   18.5266   23.9427 C   0  0  0  0  0  0  0  0  0  0  0  0
   19.5204   17.6226   23.3500 H   0  0  0  0  0  0  0  0  0  0  0  0
   20.4112   18.2455   24.7287 H   0  0  0  0  0  0  0  0  0  0  0  0
   18.3988   18.9288   24.6295 C   0  0  0  0  0  0  0  0  0  0  0  0
   17.3614   18.4351   24.2329 O   0  5  0  0  0  0  0  0  0  0  0  0
   18.4590   19.7132   25.5561 O   0  0  0  0  0  0  0  0  0  0  0  0
  1  2  1  0  0  0  0
  1  3  1  0  0  0  0
  1  4  2  0  0  0  0
  4  5  1  0  0  0  0
  4  6  1  0  0  0  0
  6  7  1  0  0  0  0
  6  8  1  0  0  0  0
  6  9  1  0  0  0  0
  9 10  1  0  0  0  0
  9 11  1  0  0  0  0
  9 12  1  0  0  0  0
 12 13  1  0  0  0  0
 12 14  1  0  0  0  0
 12 15  1  0  0  0  0
 15 16  1  0  0  0  0
 15 17  1  0  0  0  0
 15 18  1  0  0  0  0
 18 19  1  0  0  0  0
 18 20  2  0  0  0  0
M  END
> <VConfSearch Rank>
791

> <Conf_Id>
86

> <Delta U+W>
1.248

> <U+W>
-50.498

> <U>
10.404

> <W>
-60.901

> <W(PB)>
-63.061

> <W(SA)>
2.159

> <Valence>
10.021

> <Coulomb>
0.094

> <VdW>
0.289

> <VdW6>
-8.409

> <VdW12>
8.698

> <Bond>
0.179

> <Angle>
2.939

> <Pdih>
6.902

> <Idih>
0.001

> <Tether>
0.000

$$$$
VeraChem MOL file


 20 19  0  0  0  0  0  0  0  0999 V2000     
   17.6853   19.0324   24.3093 C   0  0  0  0  0  0  0  0  0  0  0  0
   17.2058   18.3106   24.9682 H   0  0  0  0  0  0  0  0  0  0  0  0
   18.2265   19.8543   24.7753 H   0  0  0  0  0  0  0  0  0  0  0  0
   17.6133   18.9091   22.9813 C   0  0  0  0  0  0  0  0  0  0  0  0
   17.0684   18.0778   22.5349 H   0  0  0  0  0  0  0  0  0  0  0  0
   18.2534   19.8709   22.0029 C   0  0  0  0  0  0  0  0  0  0  0  0
   18.6021   20.7747   22.5207 H   0  0  0  0  0  0  0  0  0  0  0  0
   17.4973   20.2015   21.2784 H   0  0  0  0  0  0  0  0  0  0  0  0
   19.4314   19.2295   21.2355 C   0  0  0  0  0  0  0  0  0  0  0  0
   19.0844   18.3233   20.7205 H   0  0  0  0  0  0  0  0  0  0  0  0
   19.7635   19.9260   20.4534 H   0  0  0  0  0  0  0  0  0  0  0  0
   20.6261   18.8842   22.1559 C   0  0  0  0  0  0  0  0  0  0  0  0
   20.2972   18.1826   22.9342 H   0  0  0  0  0  0  0  0  0  0  0  0
   20.9704   19.7901   22.6737 H   0  0  0  0  0  0  0  0  0  0  0  0
   21.8119   18.2515   21.3823 C   0  0  0  0  0  0  0  0  0  0  0  0
   22.5756   17.9158   22.0935 H   0  0  0  0  0  0  0  0  0  0  0  0
   21.4755   17.3629   20.8344 H   0  0  0  0  0  0  0  0  0  0  0  0
   22.4898   19.2022   20.3998 C   0  0  0  0  0  0  0  0  0  0  0  0
   23.2338   20.0529   20.8471 O   0  5  0  0  0  0  0  0  0  0  0  0
   22.2659   19.0607   19.2137 O   0  0  0  0  0  0  0  0  0  0  0  0
  1  2  1  0  0  0  0
  1  3  1  0  0  0  0
  1  4  2  0  0  0  0
  4  5  1  0  0  0  0
  4  6  1  0  0  0  0
  6  7  1  0  0  0  0
  6  8  1  0  0  0  0
  6  9  1  0  0  0  0
  9 10  1  0  0  0  0
  9 11  1  0  0  0  0
  9 12  1  0  0  0  0
 12 13  1  0  0  0  0
 12 14  1  0  0  0  0
 12 15  1  0  0  0  0
 15 16  1  0  0  0  0
 15 17  1  0  0  0  0
 15 18  1  0  0  0  0
 18 19  1  0  0  0  0
 18 20  2  0  0  0  0
M  END
> <VConfSearch Rank>
792

> <Conf_Id>
28

> <Delta U+W>
0.446

> <U+W>
-51.299

> <U>
9.295

> <W>
-60.594

> <W(PB)>
-62.806

> <W(SA)>
2.212

> <Valence>
9.495

> <Coulomb>
-0.610

> <VdW>
0.409

> <VdW6>
-7.332

> <VdW12>
7.741

> <Bond>
0.126

> <Angle>
2.497

> <Pdih>
6.872

> <Idih>
0.000

> <Tether>
0.000

$$$$
VeraChem MOL file


 20 19  0  0  0  0  0  0  0  0999 V2000     
   21.5265   19.1503   24.7749 C   0  0  0  0  0  0  0  0  0  0  0  0
   20.6476   19.7566   24.9832 H   0  0  0  0  0  0  0  0  0  0  0  0
   22.1621   18.8990   25.6223 H   0  0  0  0  0  0  0  0  0  0  0  0
   21.8274   18.7208   23.5440 C   0  0  0  0  0  0  0  0  0  0  0  0
   22.7209   18.1141   23.3984 H   0  0  0  0  0  0  0  0  0  0  0  0
   21.0431   18.9894   22.2704 C   0  0  0  0  0  0  0  0  0  0  0  0
   20.6991   18.0286   21.8666 H   0  0  0  0  0  0  0  0  0  0  0  0
   21.7271   19.4032   21.5176 H   0  0  0  0  0  0  0  0  0  0  0  0
   19.8373   19.9471   22.4356 C   0  0  0  0  0  0  0  0  0  0  0  0
   19.1028   19.5011   23.1202 H   0  0  0  0  0  0  0  0  0  0  0  0
   20.1816   20.8780   22.9064 H   0  0  0  0  0  0  0  0  0  0  0  0
   19.1479   20.3087   21.0965 C   0  0  0  0  0  0  0  0  0  0  0  0
   19.8754   20.7993   20.4359 H   0  0  0  0  0  0  0  0  0  0  0  0
   18.3623   21.0513   21.2933 H   0  0  0  0  0  0  0  0  0  0  0  0
   18.5158   19.1018   20.3505 C   0  0  0  0  0  0  0  0  0  0  0  0
   18.0640   19.4506   19.4146 H   0  0  0  0  0  0  0  0  0  0  0  0
   19.2850   18.3734   20.0701 H   0  0  0  0  0  0  0  0  0  0  0  0
   17.4251   18.3825   21.1391 C   0  0  0  0  0  0  0  0  0  0  0  0
   16.3647   18.9540   21.3018 O   0  5  0  0  0  0  0  0  0  0  0  0
   17.6560   17.2629   21.5515 O   0  0  0  0  0  0  0  0  0  0  0  0
  1  2  1  0  0  0  0
  1  3  1  0  0  0  0
  1  4  2  0  0  0  0
  4  5  1  0  0  0  0
  4  6  1  0  0  0  0
  6  7  1  0  0  0  0
  6  8  1  0  0  0  0
  6  9  1  0  0  0  0
  9 10  1  0  0  0  0
  9 11  1  0  0  0  0
  9 12  1  0  0  0  0
 12 13  1  0  0  0  0
 12 14  1  0  0  0  0
 12 15  1  0  0  0  0
 15 16  1  0  0  0  0
 15 17  1  0  0  0  0
 15 18  1  0  0  0  0
 18 19  1  0  0  0  0
 18 20  2  0  0  0  0
M  END
> <VConfSearch Rank>
793

> <Conf_Id>
53

> <Delta U+W>
0.549

> <U+W>
-51.197

> <U>
10.870

> <W>
-62.067

> <W(PB)>
-64.228

> <W(SA)>
2.161

> <Valence>
8.803

> <Coulomb>
1.020

> <VdW>
1.048

> <VdW6>
-8.312

> <VdW12>
9.360

> <Bond>
0.212

> <Angle>
3.379

> <Pdih>
5.211

> <Idih>
0.001

> <Tether>
0.000

$$$$
VeraChem MOL file


 20 19  0  0  0  0  0  0  0  0999 V2000     
   19.8440   20.6422   19.8807 C   0  0  0  0  0  0  0  0  0  0  0  0
   20.4523   19.8224   19.5049 H   0  0  0  0  0  0  0  0  0  0  0  0
   20.0750   21.6393   19.5100 H   0  0  0  0  0  0  0  0  0  0  0  0
   18.8497   20.4489   20.7540 C   0  0  0  0  0  0  0  0  0  0  0  0
   18.2687   21.3046   21.0967 H   0  0  0  0  0  0  0  0  0  0  0  0
   18.4235   19.1200   21.3559 C   0  0  0  0  0  0  0  0  0  0  0  0
   17.5548   18.7442   20.7996 H   0  0  0  0  0  0  0  0  0  0  0  0
   18.0501   19.2922   22.3735 H   0  0  0  0  0  0  0  0  0  0  0  0
   19.5137   18.0177   21.4042 C   0  0  0  0  0  0  0  0  0  0  0  0
   19.0601   17.0942   21.7892 H   0  0  0  0  0  0  0  0  0  0  0  0
   19.8398   17.7819   20.3827 H   0  0  0  0  0  0  0  0  0  0  0  0
   20.7527   18.3664   22.2703 C   0  0  0  0  0  0  0  0  0  0  0  0
   21.2592   19.2462   21.8532 H   0  0  0  0  0  0  0  0  0  0  0  0
   21.4731   17.5397   22.2022 H   0  0  0  0  0  0  0  0  0  0  0  0
   20.4383   18.6292   23.7684 C   0  0  0  0  0  0  0  0  0  0  0  0
   21.3678   18.8708   24.2969 H   0  0  0  0  0  0  0  0  0  0  0  0
   19.7845   19.5019   23.8779 H   0  0  0  0  0  0  0  0  0  0  0  0
   19.8004   17.4454   24.4895 C   0  0  0  0  0  0  0  0  0  0  0  0
   18.6264   17.5210   24.7951 O   0  5  0  0  0  0  0  0  0  0  0  0
   20.5005   16.4846   24.7428 O   0  0  0  0  0  0  0  0  0  0  0  0
  1  2  1  0  0  0  0
  1  3  1  0  0  0  0
  1  4  2  0  0  0  0
  4  5  1  0  0  0  0
  4  6  1  0  0  0  0
  6  7  1  0  0  0  0
  6  8  1  0  0  0  0
  6  9  1  0  0  0  0
  9 10  1  0  0  0  0
  9 11  1  0  0  0  0
  9 12  1  0  0  0  0
 12 13  1  0  0  0  0
 12 14  1  0  0  0  0
 12 15  1  0  0  0  0
 15 16  1  0  0  0  0
 15 17  1  0  0  0  0
 15 18  1  0  0  0  0
 18 19  1  0  0  0  0
 18 20  2  0  0  0  0
M  END
> <VConfSearch Rank>
794

> <Conf_Id>
66

> <Delta U+W>
1.737

> <U+W>
-50.008

> <U>
11.091

> <W>
-61.099

> <W(PB)>
-63.213

> <W(SA)>
2.114

> <Valence>
9.664

> <Coulomb>
0.658

> <VdW>
0.769

> <VdW6>
-9.171

> <VdW12>
9.940

> <Bond>
0.244

> <Angle>
3.658

> <Pdih>
5.762

> <Idih>
0.001

> <Tether>
0.000

$$$$
VeraChem MOL file


 20 19  0  0  0  0  0  0  0  0999 V2000     
   22.0386   18.5735   22.9851 C   0  0  0  0  0  0  0  0  0  0  0  0
   21.6971   19.3919   23.6151 H   0  0  0  0  0  0  0  0  0  0  0  0
   22.6687   17.8197   23.4537 H   0  0  0  0  0  0  0  0  0  0  0  0
   21.7128   18.4860   21.6909 C   0  0  0  0  0  0  0  0  0  0  0  0
   22.0848   17.6456   21.1054 H   0  0  0  0  0  0  0  0  0  0  0  0
   20.8419   19.4564   20.9096 C   0  0  0  0  0  0  0  0  0  0  0  0
   20.2691   18.8955   20.1606 H   0  0  0  0  0  0  0  0  0  0  0  0
   21.4936   20.1193   20.3254 H   0  0  0  0  0  0  0  0  0  0  0  0
   19.8634   20.3176   21.7505 C   0  0  0  0  0  0  0  0  0  0  0  0
   20.4343   20.9261   22.4642 H   0  0  0  0  0  0  0  0  0  0  0  0
   19.3638   21.0340   21.0843 H   0  0  0  0  0  0  0  0  0  0  0  0
   18.7813   19.5110   22.5128 C   0  0  0  0  0  0  0  0  0  0  0  0
   18.2026   20.2055   23.1373 H   0  0  0  0  0  0  0  0  0  0  0  0
   19.2538   18.7990   23.2024 H   0  0  0  0  0  0  0  0  0  0  0  0
   17.8040   18.7496   21.5801 C   0  0  0  0  0  0  0  0  0  0  0  0
   17.3610   19.4386   20.8513 H   0  0  0  0  0  0  0  0  0  0  0  0
   18.3354   17.9746   21.0164 H   0  0  0  0  0  0  0  0  0  0  0  0
   16.6687   18.0739   22.3410 C   0  0  0  0  0  0  0  0  0  0  0  0
   16.8246   16.9254   22.7061 O   0  5  0  0  0  0  0  0  0  0  0  0
   15.6627   18.7192   22.5613 O   0  0  0  0  0  0  0  0  0  0  0  0
  1  2  1  0  0  0  0
  1  3  1  0  0  0  0
  1  4  2  0  0  0  0
  4  5  1  0  0  0  0
  4  6  1  0  0  0  0
  6  7  1  0  0  0  0
  6  8  1  0  0  0  0
  6  9  1  0  0  0  0
  9 10  1  0  0  0  0
  9 11  1  0  0  0  0
  9 12  1  0  0  0  0
 12 13  1  0  0  0  0
 12 14  1  0  0  0  0
 12 15  1  0  0  0  0
 15 16  1  0  0  0  0
 15 17  1  0  0  0  0
 15 18  1  0  0  0  0
 18 19  1  0  0  0  0
 18 20  2  0  0  0  0
M  END
> <VConfSearch Rank>
795

> <Conf_Id>
64

> <Delta U+W>
0.366

> <U+W>
-51.379

> <U>
10.000

> <W>
-61.379

> <W(PB)>
-63.541

> <W(SA)>
2.162

> <Valence>
9.398

> <Coulomb>
-0.504

> <VdW>
1.105

> <VdW6>
-7.975

> <VdW12>
9.080

> <Bond>
0.216

> <Angle>
3.417

> <Pdih>
5.765

> <Idih>
0.001

> <Tether>
0.000

$$$$
VeraChem MOL file


 20 19  0  0  0  0  0  0  0  0999 V2000     
   20.3927   22.0218   21.6142 C   0  0  0  0  0  0  0  0  0  0  0  0
   20.9726   21.7688   20.7281 H   0  0  0  0  0  0  0  0  0  0  0  0
   20.7692   22.8233   22.2474 H   0  0  0  0  0  0  0  0  0  0  0  0
   19.2650   21.3738   21.9180 C   0  0  0  0  0  0  0  0  0  0  0  0
   18.7007   21.6410   22.8111 H   0  0  0  0  0  0  0  0  0  0  0  0
   18.6807   20.2506   21.0880 C   0  0  0  0  0  0  0  0  0  0  0  0
   19.1883   20.1836   20.1161 H   0  0  0  0  0  0  0  0  0  0  0  0
   17.6275   20.4743   20.8724 H   0  0  0  0  0  0  0  0  0  0  0  0
   18.7631   18.8858   21.8082 C   0  0  0  0  0  0  0  0  0  0  0  0
   18.2560   18.9531   22.7805 H   0  0  0  0  0  0  0  0  0  0  0  0
   18.2140   18.1396   21.2179 H   0  0  0  0  0  0  0  0  0  0  0  0
   20.2183   18.4043   22.0086 C   0  0  0  0  0  0  0  0  0  0  0  0
   20.7715   19.1298   22.6208 H   0  0  0  0  0  0  0  0  0  0  0  0
   20.7286   18.3541   21.0368 H   0  0  0  0  0  0  0  0  0  0  0  0
   20.2769   17.0151   22.6904 C   0  0  0  0  0  0  0  0  0  0  0  0
   19.7818   17.0525   23.6682 H   0  0  0  0  0  0  0  0  0  0  0  0
   19.7434   16.2728   22.0847 H   0  0  0  0  0  0  0  0  0  0  0  0
   21.7029   16.5182   22.8996 C   0  0  0  0  0  0  0  0  0  0  0  0
   22.2264   15.8846   22.0045 O   0  5  0  0  0  0  0  0  0  0  0  0
   22.2575   16.7896   23.9462 O   0  0  0  0  0  0  0  0  0  0  0  0
  1  2  1  0  0  0  0
  1  3  1  0  0  0  0
  1  4  2  0  0  0  0
  4  5  1  0  0  0  0
  4  6  1  0  0  0  0
  6  7  1  0  0  0  0
  6  8  1  0  0  0  0
  6  9  1  0  0  0  0
  9 10  1  0  0  0  0
  9 11  1  0  0  0  0
  9 12  1  0  0  0  0
 12 13  1  0  0  0  0
 12 14  1  0  0  0  0
 12 15  1  0  0  0  0
 15 16  1  0  0  0  0
 15 17  1  0  0  0  0
 15 18  1  0  0  0  0
 18 19  1  0  0  0  0
 18 20  2  0  0  0  0
M  END
> <VConfSearch Rank>
796

> <Conf_Id>
42

> <Delta U+W>
-0.601

> <U+W>
-52.347

> <U>
8.428

> <W>
-60.774

> <W(PB)>
-62.982

> <W(SA)>
2.208

> <Valence>
9.231

> <Coulomb>
-1.304

> <VdW>
0.501

> <VdW6>
-6.515

> <VdW12>
7.016

> <Bond>
0.103

> <Angle>
2.328

> <Pdih>
6.799

> <Idih>
0.000

> <Tether>
0.000

$$$$
VeraChem MOL file


 20 19  0  0  0  0  0  0  0  0999 V2000     
   18.7167   21.3346   24.0131 C   0  0  0  0  0  0  0  0  0  0  0  0
   19.6310   21.9222   23.9480 H   0  0  0  0  0  0  0  0  0  0  0  0
   18.2331   21.2662   24.9860 H   0  0  0  0  0  0  0  0  0  0  0  0
   18.2072   20.7168   22.9441 C   0  0  0  0  0  0  0  0  0  0  0  0
   17.2925   20.1311   23.0313 H   0  0  0  0  0  0  0  0  0  0  0  0
   18.8228   20.7646   21.5618 C   0  0  0  0  0  0  0  0  0  0  0  0
   19.6163   21.5229   21.5178 H   0  0  0  0  0  0  0  0  0  0  0  0
   18.0572   21.0752   20.8385 H   0  0  0  0  0  0  0  0  0  0  0  0
   19.3923   19.3954   21.1271 C   0  0  0  0  0  0  0  0  0  0  0  0
   18.5954   18.6399   21.1654 H   0  0  0  0  0  0  0  0  0  0  0  0
   19.7118   19.4602   20.0781 H   0  0  0  0  0  0  0  0  0  0  0  0
   20.5898   18.9440   21.9964 C   0  0  0  0  0  0  0  0  0  0  0  0
   20.2737   18.8345   23.0430 H   0  0  0  0  0  0  0  0  0  0  0  0
   21.3626   19.7242   21.9807 H   0  0  0  0  0  0  0  0  0  0  0  0
   21.2106   17.6093   21.5086 C   0  0  0  0  0  0  0  0  0  0  0  0
   21.5108   17.6924   20.4571 H   0  0  0  0  0  0  0  0  0  0  0  0
   22.1203   17.3971   22.0826 H   0  0  0  0  0  0  0  0  0  0  0  0
   20.2852   16.4049   21.6568 C   0  0  0  0  0  0  0  0  0  0  0  0
   19.7304   15.9793   20.6627 O   0  5  0  0  0  0  0  0  0  0  0  0
   20.1583   15.9128   22.7608 O   0  0  0  0  0  0  0  0  0  0  0  0
  1  2  1  0  0  0  0
  1  3  1  0  0  0  0
  1  4  2  0  0  0  0
  4  5  1  0  0  0  0
  4  6  1  0  0  0  0
  6  7  1  0  0  0  0
  6  8  1  0  0  0  0
  6  9  1  0  0  0  0
  9 10  1  0  0  0  0
  9 11  1  0  0  0  0
  9 12  1  0  0  0  0
 12 13  1  0  0  0  0
 12 14  1  0  0  0  0
 12 15  1  0  0  0  0
 15 16  1  0  0  0  0
 15 17  1  0  0  0  0
 15 18  1  0  0  0  0
 18 19  1  0  0  0  0
 18 20  2  0  0  0  0
M  END
> <VConfSearch Rank>
797

> <Conf_Id>
68

> <Delta U+W>
0.492

> <U+W>
-51.253

> <U>
10.179

> <W>
-61.432

> <W(PB)>
-63.627

> <W(SA)>
2.195

> <Valence>
9.483

> <Coulomb>
0.361

> <VdW>
0.335

> <VdW6>
-7.385

> <VdW12>
7.720

> <Bond>
0.125

> <Angle>
2.487

> <Pdih>
6.870

> <Idih>
0.001

> <Tether>
0.000

$$$$
VeraChem MOL file


 20 19  0  0  0  0  0  0  0  0999 V2000     
   20.4121   16.9361   24.1693 C   0  0  0  0  0  0  0  0  0  0  0  0
   20.0254   17.3249   25.1100 H   0  0  0  0  0  0  0  0  0  0  0  0
   21.3010   16.3091   24.2138 H   0  0  0  0  0  0  0  0  0  0  0  0
   19.8240   17.2179   23.0038 C   0  0  0  0  0  0  0  0  0  0  0  0
   20.2260   16.8160   22.0742 H   0  0  0  0  0  0  0  0  0  0  0  0
   18.5844   18.0759   22.8656 C   0  0  0  0  0  0  0  0  0  0  0  0
   18.0673   18.1384   23.8326 H   0  0  0  0  0  0  0  0  0  0  0  0
   17.8783   17.6036   22.1696 H   0  0  0  0  0  0  0  0  0  0  0  0
   18.9111   19.5080   22.3855 C   0  0  0  0  0  0  0  0  0  0  0  0
   17.9961   20.1141   22.4307 H   0  0  0  0  0  0  0  0  0  0  0  0
   19.6267   19.9696   23.0801 H   0  0  0  0  0  0  0  0  0  0  0  0
   19.4743   19.5457   20.9450 C   0  0  0  0  0  0  0  0  0  0  0  0
   18.7736   19.0380   20.2685 H   0  0  0  0  0  0  0  0  0  0  0  0
   20.4207   18.9900   20.8962 H   0  0  0  0  0  0  0  0  0  0  0  0
   19.7077   20.9915   20.4352 C   0  0  0  0  0  0  0  0  0  0  0  0
   19.9940   20.9652   19.3772 H   0  0  0  0  0  0  0  0  0  0  0  0
   18.7786   21.5707   20.4983 H   0  0  0  0  0  0  0  0  0  0  0  0
   20.8024   21.7442   21.1862 C   0  0  0  0  0  0  0  0  0  0  0  0
   21.9599   21.4855   20.9211 O   0  5  0  0  0  0  0  0  0  0  0  0
   20.4698   22.5822   22.0013 O   0  0  0  0  0  0  0  0  0  0  0  0
  1  2  1  0  0  0  0
  1  3  1  0  0  0  0
  1  4  2  0  0  0  0
  4  5  1  0  0  0  0
  4  6  1  0  0  0  0
  6  7  1  0  0  0  0
  6  8  1  0  0  0  0
  6  9  1  0  0  0  0
  9 10  1  0  0  0  0
  9 11  1  0  0  0  0
  9 12  1  0  0  0  0
 12 13  1  0  0  0  0
 12 14  1  0  0  0  0
 12 15  1  0  0  0  0
 15 16  1  0  0  0  0
 15 17  1  0  0  0  0
 15 18  1  0  0  0  0
 18 19  1  0  0  0  0
 18 20  2  0  0  0  0
M  END
> <VConfSearch Rank>
798

> <Conf_Id>
87

> <Delta U+W>
0.339

> <U+W>
-51.407

> <U>
10.461

> <W>
-61.867

> <W(PB)>
-64.045

> <W(SA)>
2.178

> <Valence>
9.555

> <Coulomb>
0.483

> <VdW>
0.423

> <VdW6>
-7.223

> <VdW12>
7.646

> <Bond>
0.126

> <Angle>
2.492

> <Pdih>
6.936

> <Idih>
0.001

> <Tether>
0.000

$$$$
VeraChem MOL file


 20 19  0  0  0  0  0  0  0  0999 V2000     
   21.3191   20.7515   20.6646 C   0  0  0  0  0  0  0  0  0  0  0  0
   21.6117   20.2174   19.7621 H   0  0  0  0  0  0  0  0  0  0  0  0
   21.1903   21.8299   20.5904 H   0  0  0  0  0  0  0  0  0  0  0  0
   21.1226   20.1099   21.8193 C   0  0  0  0  0  0  0  0  0  0  0  0
   20.8388   20.6631   22.7138 H   0  0  0  0  0  0  0  0  0  0  0  0
   21.2958   18.6166   21.9973 C   0  0  0  0  0  0  0  0  0  0  0  0
   21.4248   18.3726   23.0602 H   0  0  0  0  0  0  0  0  0  0  0  0
   22.2308   18.3140   21.5067 H   0  0  0  0  0  0  0  0  0  0  0  0
   20.1357   17.7828   21.3989 C   0  0  0  0  0  0  0  0  0  0  0  0
   19.8828   18.1557   20.3970 H   0  0  0  0  0  0  0  0  0  0  0  0
   20.4981   16.7557   21.2553 H   0  0  0  0  0  0  0  0  0  0  0  0
   18.8615   17.7126   22.2779 C   0  0  0  0  0  0  0  0  0  0  0  0
   19.1204   17.3526   23.2831 H   0  0  0  0  0  0  0  0  0  0  0  0
   18.1866   16.9604   21.8466 H   0  0  0  0  0  0  0  0  0  0  0  0
   18.0902   19.0527   22.3899 C   0  0  0  0  0  0  0  0  0  0  0  0
   18.6762   19.7884   22.9497 H   0  0  0  0  0  0  0  0  0  0  0  0
   17.9073   19.4700   21.3925 H   0  0  0  0  0  0  0  0  0  0  0  0
   16.7473   18.9032   23.0953 C   0  0  0  0  0  0  0  0  0  0  0  0
   16.7191   19.0119   24.3054 O   0  5  0  0  0  0  0  0  0  0  0  0
   15.7674   18.6610   22.4185 O   0  0  0  0  0  0  0  0  0  0  0  0
  1  2  1  0  0  0  0
  1  3  1  0  0  0  0
  1  4  2  0  0  0  0
  4  5  1  0  0  0  0
  4  6  1  0  0  0  0
  6  7  1  0  0  0  0
  6  8  1  0  0  0  0
  6  9  1  0  0  0  0
  9 10  1  0  0  0  0
  9 11  1  0  0  0  0
  9 12  1  0  0  0  0
 12 13  1  0  0  0  0
 12 14  1  0  0  0  0
 12 15  1  0  0  0  0
 15 16  1  0  0  0  0
 15 17  1  0  0  0  0
 15 18  1  0  0  0  0
 18 19  1  0  0  0  0
 18 20  2  0  0  0  0
M  END
> <VConfSearch Rank>
799

> <Conf_Id>
51

> <Delta U+W>
1.709

> <U+W>
-50.036

> <U>
10.643

> <W>
-60.679

> <W(PB)>
-62.882

> <W(SA)>
2.203

> <Valence>
11.231

> <Coulomb>
-1.077

> <VdW>
0.489

> <VdW6>
-7.546

> <VdW12>
8.035

> <Bond>
0.159

> <Angle>
3.005

> <Pdih>
8.065

> <Idih>
0.002

> <Tether>
0.000

$$$$
VeraChem MOL file


 20 19  0  0  0  0  0  0  0  0999 V2000     
   19.3897   17.6099   24.3501 C   0  0  0  0  0  0  0  0  0  0  0  0
   18.4939   18.0188   24.8145 H   0  0  0  0  0  0  0  0  0  0  0  0
   20.2040   17.3099   25.0074 H   0  0  0  0  0  0  0  0  0  0  0  0
   19.4892   17.4827   23.0243 C   0  0  0  0  0  0  0  0  0  0  0  0
   20.3903   17.0629   22.5788 H   0  0  0  0  0  0  0  0  0  0  0  0
   18.3934   17.8670   22.0531 C   0  0  0  0  0  0  0  0  0  0  0  0
   17.4383   17.4838   22.4370 H   0  0  0  0  0  0  0  0  0  0  0  0
   18.5482   17.3671   21.0877 H   0  0  0  0  0  0  0  0  0  0  0  0
   18.2598   19.3958   21.8431 C   0  0  0  0  0  0  0  0  0  0  0  0
   17.2612   19.5932   21.4302 H   0  0  0  0  0  0  0  0  0  0  0  0
   18.2924   19.9124   22.8122 H   0  0  0  0  0  0  0  0  0  0  0  0
   19.2992   20.0147   20.8749 C   0  0  0  0  0  0  0  0  0  0  0  0
   18.9999   21.0510   20.6649 H   0  0  0  0  0  0  0  0  0  0  0  0
   19.2736   19.4865   19.9119 H   0  0  0  0  0  0  0  0  0  0  0  0
   20.7501   20.0273   21.4209 C   0  0  0  0  0  0  0  0  0  0  0  0
   20.7744   20.4688   22.4243 H   0  0  0  0  0  0  0  0  0  0  0  0
   21.1393   19.0076   21.5028 H   0  0  0  0  0  0  0  0  0  0  0  0
   21.7076   20.8138   20.5331 C   0  0  0  0  0  0  0  0  0  0  0  0
   22.2633   20.2262   19.6260 O   0  5  0  0  0  0  0  0  0  0  0  0
   21.8574   21.9985   20.7588 O   0  0  0  0  0  0  0  0  0  0  0  0
  1  2  1  0  0  0  0
  1  3  1  0  0  0  0
  1  4  2  0  0  0  0
  4  5  1  0  0  0  0
  4  6  1  0  0  0  0
  6  7  1  0  0  0  0
  6  8  1  0  0  0  0
  6  9  1  0  0  0  0
  9 10  1  0  0  0  0
  9 11  1  0  0  0  0
  9 12  1  0  0  0  0
 12 13  1  0  0  0  0
 12 14  1  0  0  0  0
 12 15  1  0  0  0  0
 15 16  1  0  0  0  0
 15 17  1  0  0  0  0
 15 18  1  0  0  0  0
 18 19  1  0  0  0  0
 18 20  2  0  0  0  0
M  END
> <VConfSearch Rank>
800

> <Conf_Id>
91

> <Delta U+W>
1.604

> <U+W>
-50.141

> <U>
10.644

> <W>
-60.786

> <W(PB)>
-62.965

> <W(SA)>
2.179

> <Valence>
11.230

> <Coulomb>
-1.075

> <VdW>
0.489

> <VdW6>
-7.547

> <VdW12>
8.036

> <Bond>
0.159

> <Angle>
3.006

> <Pdih>
8.064

> <Idih>
0.002

> <Tether>
0.000

$$$$
VeraChem MOL file


 20 19  0  0  0  0  0  0  0  0999 V2000     
   18.0201   15.8405   21.2663 C   0  0  0  0  0  0  0  0  0  0  0  0
   18.7279   15.6367   20.4644 H   0  0  0  0  0  0  0  0  0  0  0  0
   17.0732   15.3036   21.2471 H   0  0  0  0  0  0  0  0  0  0  0  0
   18.2976   16.7158   22.2361 C   0  0  0  0  0  0  0  0  0  0  0  0
   17.5749   16.9059   23.0293 H   0  0  0  0  0  0  0  0  0  0  0  0
   19.5897   17.4966   22.3290 C   0  0  0  0  0  0  0  0  0  0  0  0
   20.3456   17.0619   21.6609 H   0  0  0  0  0  0  0  0  0  0  0  0
   19.9904   17.4241   23.3489 H   0  0  0  0  0  0  0  0  0  0  0  0
   19.3719   18.9796   21.9627 C   0  0  0  0  0  0  0  0  0  0  0  0
   18.9672   19.0464   20.9433 H   0  0  0  0  0  0  0  0  0  0  0  0
   18.6191   19.4152   22.6341 H   0  0  0  0  0  0  0  0  0  0  0  0
   20.6817   19.7928   22.0552 C   0  0  0  0  0  0  0  0  0  0  0  0
   21.4349   19.3580   21.3836 H   0  0  0  0  0  0  0  0  0  0  0  0
   21.0876   19.7254   23.0741 H   0  0  0  0  0  0  0  0  0  0  0  0
   20.4624   21.2841   21.6860 C   0  0  0  0  0  0  0  0  0  0  0  0
   20.0633   21.3590   20.6677 H   0  0  0  0  0  0  0  0  0  0  0  0
   19.7162   21.7262   22.3566 H   0  0  0  0  0  0  0  0  0  0  0  0
   21.7124   22.1630   21.7517 C   0  0  0  0  0  0  0  0  0  0  0  0
   21.5797   23.3376   21.4706 O   0  5  0  0  0  0  0  0  0  0  0  0
   22.7773   21.6735   22.0755 O   0  0  0  0  0  0  0  0  0  0  0  0
  1  2  1  0  0  0  0
  1  3  1  0  0  0  0
  1  4  2  0  0  0  0
  4  5  1  0  0  0  0
  4  6  1  0  0  0  0
  6  7  1  0  0  0  0
  6  8  1  0  0  0  0
  6  9  1  0  0  0  0
  9 10  1  0  0  0  0
  9 11  1  0  0  0  0
  9 12  1  0  0  0  0
 12 13  1  0  0  0  0
 12 14  1  0  0  0  0
 12 15  1  0  0  0  0
 15 16  1  0  0  0  0
 15 17  1  0  0  0  0
 15 18  1  0  0  0  0
 18 19  1  0  0  0  0
 18 20  2  0  0  0  0
M  END
> <VConfSearch Rank>
801

> <Conf_Id>
33

> <Delta U+W>
0.000

> <U+W>
-51.745

> <U>
7.593

> <W>
-59.338

> <W(PB)>
-61.574

> <W(SA)>
2.236

> <Valence>
9.570

> <Coulomb>
-3.091

> <VdW>
1.114

> <VdW6>
-6.064

> <VdW12>
7.178

> <Bond>
0.117

> <Angle>
2.692

> <Pdih>
6.761

> <Idih>
0.000

> <Tether>
0.000

$$$$
VeraChem MOL file


 20 19  0  0  0  0  0  0  0  0999 V2000     
   22.3298   16.5362   21.9753 C   0  0  0  0  0  0  0  0  0  0  0  0
   22.6512   16.8584   20.9861 H   0  0  0  0  0  0  0  0  0  0  0  0
   22.7727   15.6249   22.3737 H   0  0  0  0  0  0  0  0  0  0  0  0
   21.4262   17.2274   22.6748 C   0  0  0  0  0  0  0  0  0  0  0  0
   21.1174   16.8872   23.6630 H   0  0  0  0  0  0  0  0  0  0  0  0
   20.7695   18.5000   22.1879 C   0  0  0  0  0  0  0  0  0  0  0  0
   21.3148   18.9016   21.3230 H   0  0  0  0  0  0  0  0  0  0  0  0
   20.8251   19.2588   22.9785 H   0  0  0  0  0  0  0  0  0  0  0  0
   19.2960   18.2490   21.7959 C   0  0  0  0  0  0  0  0  0  0  0  0
   19.2592   17.4280   21.0665 H   0  0  0  0  0  0  0  0  0  0  0  0
   18.7326   17.9080   22.6753 H   0  0  0  0  0  0  0  0  0  0  0  0
   18.6015   19.4872   21.1805 C   0  0  0  0  0  0  0  0  0  0  0  0
   17.6031   19.1924   20.8288 H   0  0  0  0  0  0  0  0  0  0  0  0
   19.1565   19.8215   20.2931 H   0  0  0  0  0  0  0  0  0  0  0  0
   18.4509   20.6694   22.1729 C   0  0  0  0  0  0  0  0  0  0  0  0
   17.9356   20.3373   23.0820 H   0  0  0  0  0  0  0  0  0  0  0  0
   19.4337   21.0480   22.4753 H   0  0  0  0  0  0  0  0  0  0  0  0
   17.6662   21.8362   21.5841 C   0  0  0  0  0  0  0  0  0  0  0  0
   18.2793   22.6921   20.9773 O   0  5  0  0  0  0  0  0  0  0  0  0
   16.4599   21.8484   21.7308 O   0  0  0  0  0  0  0  0  0  0  0  0
  1  2  1  0  0  0  0
  1  3  1  0  0  0  0
  1  4  2  0  0  0  0
  4  5  1  0  0  0  0
  4  6  1  0  0  0  0
  6  7  1  0  0  0  0
  6  8  1  0  0  0  0
  6  9  1  0  0  0  0
  9 10  1  0  0  0  0
  9 11  1  0  0  0  0
  9 12  1  0  0  0  0
 12 13  1  0  0  0  0
 12 14  1  0  0  0  0
 12 15  1  0  0  0  0
 15 16  1  0  0  0  0
 15 17  1  0  0  0  0
 15 18  1  0  0  0  0
 18 19  1  0  0  0  0
 18 20  2  0  0  0  0
M  END
> <VConfSearch Rank>
802

> <Conf_Id>
37

> <Delta U+W>
-0.384

> <U+W>
-52.130

> <U>
7.491

> <W>
-59.621

> <W(PB)>
-61.853

> <W(SA)>
2.232

> <Valence>
9.604

> <Coulomb>
-2.799

> <VdW>
0.686

> <VdW6>
-6.435

> <VdW12>
7.121

> <Bond>
0.124

> <Angle>
2.493

> <Pdih>
6.986

> <Idih>
0.001

> <Tether>
0.000

$$$$
VeraChem MOL file


 20 19  0  0  0  0  0  0  0  0999 V2000     
   18.7868   17.0185   24.3975 C   0  0  0  0  0  0  0  0  0  0  0  0
   18.4495   16.3827   25.2143 H   0  0  0  0  0  0  0  0  0  0  0  0
   19.5810   16.6261   23.7659 H   0  0  0  0  0  0  0  0  0  0  0  0
   18.2379   18.2220   24.1969 C   0  0  0  0  0  0  0  0  0  0  0  0
   17.4452   18.5606   24.8637 H   0  0  0  0  0  0  0  0  0  0  0  0
   18.6011   19.2158   23.1063 C   0  0  0  0  0  0  0  0  0  0  0  0
   18.8952   20.1638   23.5765 H   0  0  0  0  0  0  0  0  0  0  0  0
   17.6998   19.4427   22.5213 H   0  0  0  0  0  0  0  0  0  0  0  0
   19.7246   18.7548   22.1486 C   0  0  0  0  0  0  0  0  0  0  0  0
   20.6360   18.5462   22.7256 H   0  0  0  0  0  0  0  0  0  0  0  0
   19.4277   17.8172   21.6589 H   0  0  0  0  0  0  0  0  0  0  0  0
   20.0321   19.8193   21.0728 C   0  0  0  0  0  0  0  0  0  0  0  0
   20.3299   20.7601   21.5564 H   0  0  0  0  0  0  0  0  0  0  0  0
   19.1240   20.0326   20.4920 H   0  0  0  0  0  0  0  0  0  0  0  0
   21.1569   19.3600   20.1125 C   0  0  0  0  0  0  0  0  0  0  0  0
   22.0755   19.1556   20.6754 H   0  0  0  0  0  0  0  0  0  0  0  0
   20.8696   18.4280   19.6110 H   0  0  0  0  0  0  0  0  0  0  0  0
   21.4789   20.3948   19.0404 C   0  0  0  0  0  0  0  0  0  0  0  0
   22.3247   21.2318   19.2868 O   0  5  0  0  0  0  0  0  0  0  0  0
   20.8615   20.3486   17.9948 O   0  0  0  0  0  0  0  0  0  0  0  0
  1  2  1  0  0  0  0
  1  3  1  0  0  0  0
  1  4  2  0  0  0  0
  4  5  1  0  0  0  0
  4  6  1  0  0  0  0
  6  7  1  0  0  0  0
  6  8  1  0  0  0  0
  6  9  1  0  0  0  0
  9 10  1  0  0  0  0
  9 11  1  0  0  0  0
  9 12  1  0  0  0  0
 12 13  1  0  0  0  0
 12 14  1  0  0  0  0
 12 15  1  0  0  0  0
 15 16  1  0  0  0  0
 15 17  1  0  0  0  0
 15 18  1  0  0  0  0
 18 19  1  0  0  0  0
 18 20  2  0  0  0  0
M  END
> <VConfSearch Rank>
803

> <Conf_Id>
44

> <Delta U+W>
-1.440

> <U+W>
-53.185

> <U>
6.572

> <W>
-59.757

> <W(PB)>
-62.007

> <W(SA)>
2.249

> <Valence>
7.989

> <Coulomb>
-2.697

> <VdW>
1.281

> <VdW6>
-6.467

> <VdW12>
7.748

> <Bond>
0.136

> <Angle>
2.854

> <Pdih>
4.997

> <Idih>
0.001

> <Tether>
0.000

$$$$
VeraChem MOL file


 20 19  0  0  0  0  0  0  0  0999 V2000     
   16.5471   19.5542   23.0144 C   0  0  0  0  0  0  0  0  0  0  0  0
   16.8041   18.6883   23.6225 H   0  0  0  0  0  0  0  0  0  0  0  0
   15.4956   19.8302   22.9549 H   0  0  0  0  0  0  0  0  0  0  0  0
   17.4816   20.2515   22.3631 C   0  0  0  0  0  0  0  0  0  0  0  0
   17.2029   21.1148   21.7592 H   0  0  0  0  0  0  0  0  0  0  0  0
   18.9590   19.9294   22.3994 C   0  0  0  0  0  0  0  0  0  0  0  0
   19.1696   19.2385   23.2258 H   0  0  0  0  0  0  0  0  0  0  0  0
   19.5293   20.8463   22.5991 H   0  0  0  0  0  0  0  0  0  0  0  0
   19.4250   19.3100   21.0626 C   0  0  0  0  0  0  0  0  0  0  0  0
   18.8929   18.3642   20.8904 H   0  0  0  0  0  0  0  0  0  0  0  0
   19.1385   19.9807   20.2409 H   0  0  0  0  0  0  0  0  0  0  0  0
   20.9519   19.0691   20.9924 C   0  0  0  0  0  0  0  0  0  0  0  0
   21.4853   20.0159   21.1548 H   0  0  0  0  0  0  0  0  0  0  0  0
   21.2098   18.7384   19.9767 H   0  0  0  0  0  0  0  0  0  0  0  0
   21.4586   18.0089   22.0045 C   0  0  0  0  0  0  0  0  0  0  0  0
   21.2993   18.3495   23.0338 H   0  0  0  0  0  0  0  0  0  0  0  0
   20.9025   17.0719   21.8814 H   0  0  0  0  0  0  0  0  0  0  0  0
   22.9431   17.7024   21.8427 C   0  0  0  0  0  0  0  0  0  0  0  0
   23.2651   16.8092   21.0842 O   0  5  0  0  0  0  0  0  0  0  0  0
   23.7396   18.3778   22.4641 O   0  0  0  0  0  0  0  0  0  0  0  0
  1  2  1  0  0  0  0
  1  3  1  0  0  0  0
  1  4  2  0  0  0  0
  4  5  1  0  0  0  0
  4  6  1  0  0  0  0
  6  7  1  0  0  0  0
  6  8  1  0  0  0  0
  6  9  1  0  0  0  0
  9 10  1  0  0  0  0
  9 11  1  0  0  0  0
  9 12  1  0  0  0  0
 12 13  1  0  0  0  0
 12 14  1  0  0  0  0
 12 15  1  0  0  0  0
 15 16  1  0  0  0  0
 15 17  1  0  0  0  0
 15 18  1  0  0  0  0
 18 19  1  0  0  0  0
 18 20  2  0  0  0  0
M  END
> <VConfSearch Rank>
804

> <Conf_Id>
38

> <Delta U+W>
-0.381

> <U+W>
-52.126

> <U>
7.601

> <W>
-59.727

> <W(PB)>
-61.964

> <W(SA)>
2.236

> <Valence>
9.602

> <Coulomb>
-2.686

> <VdW>
0.685

> <VdW6>
-6.453

> <VdW12>
7.139

> <Bond>
0.125

> <Angle>
2.485

> <Pdih>
6.991

> <Idih>
0.001

> <Tether>
0.000

$$$$
VeraChem MOL file


 20 19  0  0  0  0  0  0  0  0999 V2000     
   23.0266   20.3837   21.3944 C   0  0  0  0  0  0  0  0  0  0  0  0
   23.4719   19.6544   22.0693 H   0  0  0  0  0  0  0  0  0  0  0  0
   23.6671   20.8096   20.6239 H   0  0  0  0  0  0  0  0  0  0  0  0
   21.7449   20.7429   21.5027 C   0  0  0  0  0  0  0  0  0  0  0  0
   21.3183   21.4741   20.8163 H   0  0  0  0  0  0  0  0  0  0  0  0
   20.7963   20.1959   22.5461 C   0  0  0  0  0  0  0  0  0  0  0  0
   20.2638   21.0258   23.0296 H   0  0  0  0  0  0  0  0  0  0  0  0
   21.3573   19.6774   23.3355 H   0  0  0  0  0  0  0  0  0  0  0  0
   19.7762   19.2240   21.9168 C   0  0  0  0  0  0  0  0  0  0  0  0
   19.2149   19.7457   21.1293 H   0  0  0  0  0  0  0  0  0  0  0  0
   20.3127   18.3979   21.4301 H   0  0  0  0  0  0  0  0  0  0  0  0
   18.7968   18.6578   22.9697 C   0  0  0  0  0  0  0  0  0  0  0  0
   18.2508   19.4811   23.4511 H   0  0  0  0  0  0  0  0  0  0  0  0
   19.3676   18.1521   23.7602 H   0  0  0  0  0  0  0  0  0  0  0  0
   17.7822   17.6550   22.3617 C   0  0  0  0  0  0  0  0  0  0  0  0
   18.3125   16.8409   21.8528 H   0  0  0  0  0  0  0  0  0  0  0  0
   17.1933   17.1969   23.1650 H   0  0  0  0  0  0  0  0  0  0  0  0
   16.7999   18.2859   21.3788 C   0  0  0  0  0  0  0  0  0  0  0  0
   16.9651   18.0864   20.1914 O   0  5  0  0  0  0  0  0  0  0  0  0
   15.8882   18.9517   21.8288 O   0  0  0  0  0  0  0  0  0  0  0  0
  1  2  1  0  0  0  0
  1  3  1  0  0  0  0
  1  4  2  0  0  0  0
  4  5  1  0  0  0  0
  4  6  1  0  0  0  0
  6  7  1  0  0  0  0
  6  8  1  0  0  0  0
  6  9  1  0  0  0  0
  9 10  1  0  0  0  0
  9 11  1  0  0  0  0
  9 12  1  0  0  0  0
 12 13  1  0  0  0  0
 12 14  1  0  0  0  0
 12 15  1  0  0  0  0
 15 16  1  0  0  0  0
 15 17  1  0  0  0  0
 15 18  1  0  0  0  0
 18 19  1  0  0  0  0
 18 20  2  0  0  0  0
M  END
> <VConfSearch Rank>
805

> <Conf_Id>
58

> <Delta U+W>
0.019

> <U+W>
-51.727

> <U>
8.963

> <W>
-60.690

> <W(PB)>
-62.934

> <W(SA)>
2.244

> <Valence>
9.327

> <Coulomb>
-0.780

> <VdW>
0.417

> <VdW6>
-6.635

> <VdW12>
7.052

> <Bond>
0.105

> <Angle>
2.399

> <Pdih>
6.822

> <Idih>
0.000

> <Tether>
0.000

$$$$
VeraChem MOL file


 20 19  0  0  0  0  0  0  0  0999 V2000     
   16.6362   17.5478   21.6252 C   0  0  0  0  0  0  0  0  0  0  0  0
   16.4044   18.0839   20.7063 H   0  0  0  0  0  0  0  0  0  0  0  0
   15.8042   17.1059   22.1709 H   0  0  0  0  0  0  0  0  0  0  0  0
   17.8904   17.4363   22.0705 C   0  0  0  0  0  0  0  0  0  0  0  0
   18.1009   16.8961   22.9933 H   0  0  0  0  0  0  0  0  0  0  0  0
   19.0948   18.0218   21.3675 C   0  0  0  0  0  0  0  0  0  0  0  0
   18.8312   18.3154   20.3423 H   0  0  0  0  0  0  0  0  0  0  0  0
   19.8797   17.2580   21.2857 H   0  0  0  0  0  0  0  0  0  0  0  0
   19.6432   19.2470   22.1287 C   0  0  0  0  0  0  0  0  0  0  0  0
   18.8539   20.0068   22.2126 H   0  0  0  0  0  0  0  0  0  0  0  0
   19.9082   18.9501   23.1529 H   0  0  0  0  0  0  0  0  0  0  0  0
   20.8769   19.8559   21.4248 C   0  0  0  0  0  0  0  0  0  0  0  0
   20.6066   20.1350   20.3973 H   0  0  0  0  0  0  0  0  0  0  0  0
   21.6723   19.1015   21.3488 H   0  0  0  0  0  0  0  0  0  0  0  0
   21.4246   21.1075   22.1585 C   0  0  0  0  0  0  0  0  0  0  0  0
   22.2187   21.5663   21.5578 H   0  0  0  0  0  0  0  0  0  0  0  0
   20.6337   21.8596   22.2671 H   0  0  0  0  0  0  0  0  0  0  0  0
   22.0084   20.8121   23.5372 C   0  0  0  0  0  0  0  0  0  0  0  0
   23.1028   20.2865   23.5946 O   0  5  0  0  0  0  0  0  0  0  0  0
   21.3599   21.1246   24.5164 O   0  0  0  0  0  0  0  0  0  0  0  0
  1  2  1  0  0  0  0
  1  3  1  0  0  0  0
  1  4  2  0  0  0  0
  4  5  1  0  0  0  0
  4  6  1  0  0  0  0
  6  7  1  0  0  0  0
  6  8  1  0  0  0  0
  6  9  1  0  0  0  0
  9 10  1  0  0  0  0
  9 11  1  0  0  0  0
  9 12  1  0  0  0  0
 12 13  1  0  0  0  0
 12 14  1  0  0  0  0
 12 15  1  0  0  0  0
 15 16  1  0  0  0  0
 15 17  1  0  0  0  0
 15 18  1  0  0  0  0
 18 19  1  0  0  0  0
 18 20  2  0  0  0  0
M  END
> <VConfSearch Rank>
806

> <Conf_Id>
54

> <Delta U+W>
-0.048

> <U+W>
-51.793

> <U>
8.964

> <W>
-60.756

> <W(PB)>
-63.007

> <W(SA)>
2.251

> <Valence>
9.327

> <Coulomb>
-0.780

> <VdW>
0.417

> <VdW6>
-6.635

> <VdW12>
7.052

> <Bond>
0.105

> <Angle>
2.399

> <Pdih>
6.822

> <Idih>
0.000

> <Tether>
0.000

$$$$
VeraChem MOL file


 20 19  0  0  0  0  0  0  0  0999 V2000     
   20.0146   20.8172   24.8918 C   0  0  0  0  0  0  0  0  0  0  0  0
   19.8111   20.5658   25.9313 H   0  0  0  0  0  0  0  0  0  0  0  0
   20.8719   21.4573   24.6896 H   0  0  0  0  0  0  0  0  0  0  0  0
   19.2421   20.3541   23.9057 C   0  0  0  0  0  0  0  0  0  0  0  0
   18.3868   19.7177   24.1305 H   0  0  0  0  0  0  0  0  0  0  0  0
   19.4597   20.6670   22.4406 C   0  0  0  0  0  0  0  0  0  0  0  0
   20.0798   21.5684   22.3430 H   0  0  0  0  0  0  0  0  0  0  0  0
   18.4999   20.9013   21.9611 H   0  0  0  0  0  0  0  0  0  0  0  0
   20.1500   19.5080   21.6867 C   0  0  0  0  0  0  0  0  0  0  0  0
   20.4021   19.8490   20.6733 H   0  0  0  0  0  0  0  0  0  0  0  0
   21.1010   19.2658   22.1808 H   0  0  0  0  0  0  0  0  0  0  0  0
   19.2685   18.2395   21.5962 C   0  0  0  0  0  0  0  0  0  0  0  0
   18.3114   18.4846   21.1153 H   0  0  0  0  0  0  0  0  0  0  0  0
   19.0325   17.8842   22.6079 H   0  0  0  0  0  0  0  0  0  0  0  0
   19.9569   17.0905   20.8145 C   0  0  0  0  0  0  0  0  0  0  0  0
   20.9301   16.8572   21.2631 H   0  0  0  0  0  0  0  0  0  0  0  0
   19.3478   16.1818   20.8872 H   0  0  0  0  0  0  0  0  0  0  0  0
   20.1619   17.3844   19.3311 C   0  0  0  0  0  0  0  0  0  0  0  0
   21.2812   17.6633   18.9484 O   0  5  0  0  0  0  0  0  0  0  0  0
   19.1969   17.3158   18.5953 O   0  0  0  0  0  0  0  0  0  0  0  0
  1  2  1  0  0  0  0
  1  3  1  0  0  0  0
  1  4  2  0  0  0  0
  4  5  1  0  0  0  0
  4  6  1  0  0  0  0
  6  7  1  0  0  0  0
  6  8  1  0  0  0  0
  6  9  1  0  0  0  0
  9 10  1  0  0  0  0
  9 11  1  0  0  0  0
  9 12  1  0  0  0  0
 12 13  1  0  0  0  0
 12 14  1  0  0  0  0
 12 15  1  0  0  0  0
 15 16  1  0  0  0  0
 15 17  1  0  0  0  0
 15 18  1  0  0  0  0
 18 19  1  0  0  0  0
 18 20  2  0  0  0  0
M  END
> <VConfSearch Rank>
807

> <Conf_Id>
27

> <Delta U+W>
0.478

> <U+W>
-51.267

> <U>
9.192

> <W>
-60.459

> <W(PB)>
-62.649

> <W(SA)>
2.190

> <Valence>
9.572

> <Coulomb>
-0.884

> <VdW>
0.504

> <VdW6>
-7.168

> <VdW12>
7.672

> <Bond>
0.127

> <Angle>
2.504

> <Pdih>
6.941

> <Idih>
0.001

> <Tether>
0.000

$$$$
VeraChem MOL file


 20 19  0  0  0  0  0  0  0  0999 V2000     
   20.5215   16.6674   24.3671 C   0  0  0  0  0  0  0  0  0  0  0  0
   21.1615   17.2128   25.0588 H   0  0  0  0  0  0  0  0  0  0  0  0
   20.6759   15.5931   24.2824 H   0  0  0  0  0  0  0  0  0  0  0  0
   19.5844   17.2888   23.6463 C   0  0  0  0  0  0  0  0  0  0  0  0
   18.9525   16.7232   22.9621 H   0  0  0  0  0  0  0  0  0  0  0  0
   19.3088   18.7757   23.7162 C   0  0  0  0  0  0  0  0  0  0  0  0
   19.7181   19.1847   24.6499 H   0  0  0  0  0  0  0  0  0  0  0  0
   18.2258   18.9543   23.7514 H   0  0  0  0  0  0  0  0  0  0  0  0
   19.9260   19.5449   22.5264 C   0  0  0  0  0  0  0  0  0  0  0  0
   19.8072   20.6227   22.7023 H   0  0  0  0  0  0  0  0  0  0  0  0
   21.0066   19.3498   22.4871 H   0  0  0  0  0  0  0  0  0  0  0  0
   19.2776   19.1775   21.1719 C   0  0  0  0  0  0  0  0  0  0  0  0
   18.1933   19.3486   21.2214 H   0  0  0  0  0  0  0  0  0  0  0  0
   19.4231   18.1087   20.9640 H   0  0  0  0  0  0  0  0  0  0  0  0
   19.8731   20.0045   20.0059 C   0  0  0  0  0  0  0  0  0  0  0  0
   19.7235   21.0758   20.1858 H   0  0  0  0  0  0  0  0  0  0  0  0
   20.9543   19.8351   19.9356 H   0  0  0  0  0  0  0  0  0  0  0  0
   19.2508   19.6596   18.6577 C   0  0  0  0  0  0  0  0  0  0  0  0
   19.7633   18.7771   17.9980 O   0  5  0  0  0  0  0  0  0  0  0  0
   18.2594   20.2707   18.3105 O   0  0  0  0  0  0  0  0  0  0  0  0
  1  2  1  0  0  0  0
  1  3  1  0  0  0  0
  1  4  2  0  0  0  0
  4  5  1  0  0  0  0
  4  6  1  0  0  0  0
  6  7  1  0  0  0  0
  6  8  1  0  0  0  0
  6  9  1  0  0  0  0
  9 10  1  0  0  0  0
  9 11  1  0  0  0  0
  9 12  1  0  0  0  0
 12 13  1  0  0  0  0
 12 14  1  0  0  0  0
 12 15  1  0  0  0  0
 15 16  1  0  0  0  0
 15 17  1  0  0  0  0
 15 18  1  0  0  0  0
 18 19  1  0  0  0  0
 18 20  2  0  0  0  0
M  END
> <VConfSearch Rank>
808

> <Conf_Id>
41

> <Delta U+W>
-0.634

> <U+W>
-52.379

> <U>
7.828

> <W>
-60.207

> <W(PB)>
-62.449

> <W(SA)>
2.242

> <Valence>
9.300

> <Coulomb>
-2.080

> <VdW>
0.608

> <VdW6>
-6.341

> <VdW12>
6.949

> <Bond>
0.103

> <Angle>
2.334

> <Pdih>
6.862

> <Idih>
0.001

> <Tether>
0.000

$$$$
VeraChem MOL file


 20 19  0  0  0  0  0  0  0  0999 V2000     
   16.9032   17.9021   23.4333 C   0  0  0  0  0  0  0  0  0  0  0  0
   15.8864   17.5760   23.2213 H   0  0  0  0  0  0  0  0  0  0  0  0
   17.2962   17.7022   24.4289 H   0  0  0  0  0  0  0  0  0  0  0  0
   17.6372   18.5208   22.5048 C   0  0  0  0  0  0  0  0  0  0  0  0
   17.2256   18.7110   21.5138 H   0  0  0  0  0  0  0  0  0  0  0  0
   19.0538   19.0027   22.7259 C   0  0  0  0  0  0  0  0  0  0  0  0
   19.2910   19.0071   23.7983 H   0  0  0  0  0  0  0  0  0  0  0  0
   19.1395   20.0395   22.3756 H   0  0  0  0  0  0  0  0  0  0  0  0
   20.0671   18.1088   21.9767 C   0  0  0  0  0  0  0  0  0  0  0  0
   19.8985   17.0624   22.2661 H   0  0  0  0  0  0  0  0  0  0  0  0
   19.8769   18.1642   20.8959 H   0  0  0  0  0  0  0  0  0  0  0  0
   21.5445   18.4691   22.2690 C   0  0  0  0  0  0  0  0  0  0  0  0
   22.1930   17.7412   21.7619 H   0  0  0  0  0  0  0  0  0  0  0  0
   21.7383   18.3568   23.3443 H   0  0  0  0  0  0  0  0  0  0  0  0
   21.9571   19.8989   21.8240 C   0  0  0  0  0  0  0  0  0  0  0  0
   21.3798   20.6554   22.3675 H   0  0  0  0  0  0  0  0  0  0  0  0
   23.0093   20.0691   22.0801 H   0  0  0  0  0  0  0  0  0  0  0  0
   21.8078   20.1527   20.3266 C   0  0  0  0  0  0  0  0  0  0  0  0
   22.5973   19.6167   19.5737 O   0  5  0  0  0  0  0  0  0  0  0  0
   20.9189   20.8928   19.9536 O   0  0  0  0  0  0  0  0  0  0  0  0
  1  2  1  0  0  0  0
  1  3  1  0  0  0  0
  1  4  2  0  0  0  0
  4  5  1  0  0  0  0
  4  6  1  0  0  0  0
  6  7  1  0  0  0  0
  6  8  1  0  0  0  0
  6  9  1  0  0  0  0
  9 10  1  0  0  0  0
  9 11  1  0  0  0  0
  9 12  1  0  0  0  0
 12 13  1  0  0  0  0
 12 14  1  0  0  0  0
 12 15  1  0  0  0  0
 15 16  1  0  0  0  0
 15 17  1  0  0  0  0
 15 18  1  0  0  0  0
 18 19  1  0  0  0  0
 18 20  2  0  0  0  0
M  END
> <VConfSearch Rank>
809

> <Conf_Id>
84

> <Delta U+W>
0.942

> <U+W>
-50.803

> <U>
10.196

> <W>
-60.999

> <W(PB)>
-63.182

> <W(SA)>
2.182

> <Valence>
9.837

> <Coulomb>
0.032

> <VdW>
0.328

> <VdW6>
-7.642

> <VdW12>
7.969

> <Bond>
0.151

> <Angle>
2.748

> <Pdih>
6.937

> <Idih>
0.001

> <Tether>
0.000

$$$$
VeraChem MOL file


 20 19  0  0  0  0  0  0  0  0999 V2000     
   17.3547   17.1726   23.6838 C   0  0  0  0  0  0  0  0  0  0  0  0
   17.0594   16.1456   23.8921 H   0  0  0  0  0  0  0  0  0  0  0  0
   17.3810   17.8662   24.5227 H   0  0  0  0  0  0  0  0  0  0  0  0
   17.6739   17.5615   22.4467 C   0  0  0  0  0  0  0  0  0  0  0  0
   17.6420   16.8510   21.6209 H   0  0  0  0  0  0  0  0  0  0  0  0
   18.0918   18.9685   22.0816 C   0  0  0  0  0  0  0  0  0  0  0  0
   17.8510   19.6611   22.8996 H   0  0  0  0  0  0  0  0  0  0  0  0
   17.5226   19.3048   21.2047 H   0  0  0  0  0  0  0  0  0  0  0  0
   19.6028   19.0398   21.7768 C   0  0  0  0  0  0  0  0  0  0  0  0
   20.1658   18.6960   22.6558 H   0  0  0  0  0  0  0  0  0  0  0  0
   19.8438   18.3503   20.9560 H   0  0  0  0  0  0  0  0  0  0  0  0
   20.0457   20.4712   21.3984 C   0  0  0  0  0  0  0  0  0  0  0  0
   19.8189   21.1612   22.2231 H   0  0  0  0  0  0  0  0  0  0  0  0
   19.4644   20.8130   20.5313 H   0  0  0  0  0  0  0  0  0  0  0  0
   21.5560   20.5577   21.0572 C   0  0  0  0  0  0  0  0  0  0  0  0
   21.8037   19.8542   20.2531 H   0  0  0  0  0  0  0  0  0  0  0  0
   21.7906   21.5616   20.6843 H   0  0  0  0  0  0  0  0  0  0  0  0
   22.4764   20.2851   22.2436 C   0  0  0  0  0  0  0  0  0  0  0  0
   23.0515   19.2156   22.2925 O   0  5  0  0  0  0  0  0  0  0  0  0
   22.6037   21.1565   23.0812 O   0  0  0  0  0  0  0  0  0  0  0  0
  1  2  1  0  0  0  0
  1  3  1  0  0  0  0
  1  4  2  0  0  0  0
  4  5  1  0  0  0  0
  4  6  1  0  0  0  0
  6  7  1  0  0  0  0
  6  8  1  0  0  0  0
  6  9  1  0  0  0  0
  9 10  1  0  0  0  0
  9 11  1  0  0  0  0
  9 12  1  0  0  0  0
 12 13  1  0  0  0  0
 12 14  1  0  0  0  0
 12 15  1  0  0  0  0
 15 16  1  0  0  0  0
 15 17  1  0  0  0  0
 15 18  1  0  0  0  0
 18 19  1  0  0  0  0
 18 20  2  0  0  0  0
M  END
> <VConfSearch Rank>
810

> <Conf_Id>
81

> <Delta U+W>
-0.051

> <U+W>
-51.796

> <U>
9.412

> <W>
-61.209

> <W(PB)>
-63.452

> <W(SA)>
2.243

> <Valence>
9.329

> <Coulomb>
-0.323

> <VdW>
0.406

> <VdW6>
-6.640

> <VdW12>
7.046

> <Bond>
0.105

> <Angle>
2.401

> <Pdih>
6.823

> <Idih>
0.000

> <Tether>
0.000

$$$$
VeraChem MOL file


 20 19  0  0  0  0  0  0  0  0999 V2000     
   17.8825   19.7024   24.6828 C   0  0  0  0  0  0  0  0  0  0  0  0
   16.9229   20.0952   24.3507 H   0  0  0  0  0  0  0  0  0  0  0  0
   17.9549   19.3624   25.7145 H   0  0  0  0  0  0  0  0  0  0  0  0
   18.9316   19.6358   23.8590 C   0  0  0  0  0  0  0  0  0  0  0  0
   19.8840   19.2415   24.2122 H   0  0  0  0  0  0  0  0  0  0  0  0
   18.9076   20.0937   22.4164 C   0  0  0  0  0  0  0  0  0  0  0  0
   19.8073   20.6814   22.1927 H   0  0  0  0  0  0  0  0  0  0  0  0
   18.0595   20.7732   22.2578 H   0  0  0  0  0  0  0  0  0  0  0  0
   18.7831   18.9133   21.4235 C   0  0  0  0  0  0  0  0  0  0  0  0
   17.8339   18.3928   21.6102 H   0  0  0  0  0  0  0  0  0  0  0  0
   18.7152   19.3128   20.4023 H   0  0  0  0  0  0  0  0  0  0  0  0
   19.9396   17.8829   21.4933 C   0  0  0  0  0  0  0  0  0  0  0  0
   19.7388   17.0792   20.7714 H   0  0  0  0  0  0  0  0  0  0  0  0
   19.9471   17.4069   22.4828 H   0  0  0  0  0  0  0  0  0  0  0  0
   21.3458   18.4742   21.2012 C   0  0  0  0  0  0  0  0  0  0  0  0
   21.6107   19.2287   21.9506 H   0  0  0  0  0  0  0  0  0  0  0  0
   22.0973   17.6802   21.2816 H   0  0  0  0  0  0  0  0  0  0  0  0
   21.4852   19.0931   19.8134 C   0  0  0  0  0  0  0  0  0  0  0  0
   21.5618   20.3030   19.7270 O   0  5  0  0  0  0  0  0  0  0  0  0
   21.5312   18.3462   18.8556 O   0  0  0  0  0  0  0  0  0  0  0  0
  1  2  1  0  0  0  0
  1  3  1  0  0  0  0
  1  4  2  0  0  0  0
  4  5  1  0  0  0  0
  4  6  1  0  0  0  0
  6  7  1  0  0  0  0
  6  8  1  0  0  0  0
  6  9  1  0  0  0  0
  9 10  1  0  0  0  0
  9 11  1  0  0  0  0
  9 12  1  0  0  0  0
 12 13  1  0  0  0  0
 12 14  1  0  0  0  0
 12 15  1  0  0  0  0
 15 16  1  0  0  0  0
 15 17  1  0  0  0  0
 15 18  1  0  0  0  0
 18 19  1  0  0  0  0
 18 20  2  0  0  0  0
M  END
> <VConfSearch Rank>
811

> <Conf_Id>
86

> <Delta U+W>
1.248

> <U+W>
-50.498

> <U>
10.404

> <W>
-60.901

> <W(PB)>
-63.061

> <W(SA)>
2.159

> <Valence>
10.021

> <Coulomb>
0.094

> <VdW>
0.289

> <VdW6>
-8.409

> <VdW12>
8.698

> <Bond>
0.179

> <Angle>
2.939

> <Pdih>
6.902

> <Idih>
0.001

> <Tether>
0.000

$$$$
VeraChem MOL file


 20 19  0  0  0  0  0  0  0  0999 V2000     
   18.0916   17.2780   20.1069 C   0  0  0  0  0  0  0  0  0  0  0  0
   17.6671   17.3286   19.1058 H   0  0  0  0  0  0  0  0  0  0  0  0
   18.7681   16.4527   20.3234 H   0  0  0  0  0  0  0  0  0  0  0  0
   17.7946   18.1966   21.0299 C   0  0  0  0  0  0  0  0  0  0  0  0
   17.1169   19.0160   20.7922 H   0  0  0  0  0  0  0  0  0  0  0  0
   18.3451   18.1926   22.4402 C   0  0  0  0  0  0  0  0  0  0  0  0
   18.8476   17.2401   22.6568 H   0  0  0  0  0  0  0  0  0  0  0  0
   17.5116   18.2714   23.1507 H   0  0  0  0  0  0  0  0  0  0  0  0
   19.3250   19.3610   22.6907 C   0  0  0  0  0  0  0  0  0  0  0  0
   18.8245   20.3138   22.4705 H   0  0  0  0  0  0  0  0  0  0  0  0
   19.5825   19.3824   23.7585 H   0  0  0  0  0  0  0  0  0  0  0  0
   20.6204   19.2437   21.8528 C   0  0  0  0  0  0  0  0  0  0  0  0
   20.3650   19.2292   20.7848 H   0  0  0  0  0  0  0  0  0  0  0  0
   21.1187   18.2890   22.0704 H   0  0  0  0  0  0  0  0  0  0  0  0
   21.6076   20.4108   22.1141 C   0  0  0  0  0  0  0  0  0  0  0  0
   22.4461   20.3455   21.4109 H   0  0  0  0  0  0  0  0  0  0  0  0
   21.1137   21.3728   21.9310 H   0  0  0  0  0  0  0  0  0  0  0  0
   22.1938   20.4242   23.5230 C   0  0  0  0  0  0  0  0  0  0  0  0
   23.0690   19.6231   23.7866 O   0  5  0  0  0  0  0  0  0  0  0  0
   21.7690   21.2415   24.3159 O   0  0  0  0  0  0  0  0  0  0  0  0
  1  2  1  0  0  0  0
  1  3  1  0  0  0  0
  1  4  2  0  0  0  0
  4  5  1  0  0  0  0
  4  6  1  0  0  0  0
  6  7  1  0  0  0  0
  6  8  1  0  0  0  0
  6  9  1  0  0  0  0
  9 10  1  0  0  0  0
  9 11  1  0  0  0  0
  9 12  1  0  0  0  0
 12 13  1  0  0  0  0
 12 14  1  0  0  0  0
 12 15  1  0  0  0  0
 15 16  1  0  0  0  0
 15 17  1  0  0  0  0
 15 18  1  0  0  0  0
 18 19  1  0  0  0  0
 18 20  2  0  0  0  0
M  END
> <VConfSearch Rank>
812

> <Conf_Id>
28

> <Delta U+W>
0.446

> <U+W>
-51.299

> <U>
9.295

> <W>
-60.594

> <W(PB)>
-62.806

> <W(SA)>
2.212

> <Valence>
9.495

> <Coulomb>
-0.610

> <VdW>
0.409

> <VdW6>
-7.332

> <VdW12>
7.741

> <Bond>
0.126

> <Angle>
2.497

> <Pdih>
6.872

> <Idih>
0.000

> <Tether>
0.000

$$$$
VeraChem MOL file


 20 19  0  0  0  0  0  0  0  0999 V2000     
   22.1178   19.6374   20.0695 C   0  0  0  0  0  0  0  0  0  0  0  0
   22.5586   19.2235   20.9739 H   0  0  0  0  0  0  0  0  0  0  0  0
   22.7626   19.7040   19.1948 H   0  0  0  0  0  0  0  0  0  0  0  0
   20.8454   20.0469   20.0132 C   0  0  0  0  0  0  0  0  0  0  0  0
   20.4598   20.4507   19.0773 H   0  0  0  0  0  0  0  0  0  0  0  0
   19.8304   20.0186   21.1438 C   0  0  0  0  0  0  0  0  0  0  0  0
   18.9997   19.3654   20.8470 H   0  0  0  0  0  0  0  0  0  0  0  0
   19.3982   21.0221   21.2529 H   0  0  0  0  0  0  0  0  0  0  0  0
   20.3903   19.5599   22.5130 C   0  0  0  0  0  0  0  0  0  0  0  0
   20.7453   18.5229   22.4380 H   0  0  0  0  0  0  0  0  0  0  0  0
   21.2651   20.1744   22.7657 H   0  0  0  0  0  0  0  0  0  0  0  0
   19.3666   19.6771   23.6695 C   0  0  0  0  0  0  0  0  0  0  0  0
   19.0540   20.7251   23.7712 H   0  0  0  0  0  0  0  0  0  0  0  0
   19.8668   19.4132   24.6116 H   0  0  0  0  0  0  0  0  0  0  0  0
   18.1066   18.7833   23.5079 C   0  0  0  0  0  0  0  0  0  0  0  0
   17.4387   18.9407   24.3628 H   0  0  0  0  0  0  0  0  0  0  0  0
   17.5396   19.0704   22.6152 H   0  0  0  0  0  0  0  0  0  0  0  0
   18.4067   17.2887   23.4372 C   0  0  0  0  0  0  0  0  0  0  0  0
   18.7837   16.7318   24.4497 O   0  5  0  0  0  0  0  0  0  0  0  0
   18.2359   16.7165   22.3787 O   0  0  0  0  0  0  0  0  0  0  0  0
  1  2  1  0  0  0  0
  1  3  1  0  0  0  0
  1  4  2  0  0  0  0
  4  5  1  0  0  0  0
  4  6  1  0  0  0  0
  6  7  1  0  0  0  0
  6  8  1  0  0  0  0
  6  9  1  0  0  0  0
  9 10  1  0  0  0  0
  9 11  1  0  0  0  0
  9 12  1  0  0  0  0
 12 13  1  0  0  0  0
 12 14  1  0  0  0  0
 12 15  1  0  0  0  0
 15 16  1  0  0  0  0
 15 17  1  0  0  0  0
 15 18  1  0  0  0  0
 18 19  1  0  0  0  0
 18 20  2  0  0  0  0
M  END
> <VConfSearch Rank>
813

> <Conf_Id>
53

> <Delta U+W>
0.549

> <U+W>
-51.197

> <U>
10.870

> <W>
-62.067

> <W(PB)>
-64.228

> <W(SA)>
2.161

> <Valence>
8.803

> <Coulomb>
1.020

> <VdW>
1.048

> <VdW6>
-8.312

> <VdW12>
9.360

> <Bond>
0.212

> <Angle>
3.379

> <Pdih>
5.211

> <Idih>
0.001

> <Tether>
0.000

$$$$
VeraChem MOL file


 20 19  0  0  0  0  0  0  0  0999 V2000     
   20.2751   17.5683   24.4733 C   0  0  0  0  0  0  0  0  0  0  0  0
   21.2087   17.4071   23.9388 H   0  0  0  0  0  0  0  0  0  0  0  0
   19.9941   16.8211   25.2134 H   0  0  0  0  0  0  0  0  0  0  0  0
   19.5000   18.6344   24.2470 C   0  0  0  0  0  0  0  0  0  0  0  0
   18.5756   18.7496   24.8123 H   0  0  0  0  0  0  0  0  0  0  0  0
   19.7652   19.7460   23.2451 C   0  0  0  0  0  0  0  0  0  0  0  0
   20.2044   20.6007   23.7759 H   0  0  0  0  0  0  0  0  0  0  0  0
   18.8062   20.1181   22.8624 H   0  0  0  0  0  0  0  0  0  0  0  0
   20.6711   19.3722   22.0428 C   0  0  0  0  0  0  0  0  0  0  0  0
   20.8424   20.2748   21.4405 H   0  0  0  0  0  0  0  0  0  0  0  0
   21.6608   19.0718   22.4111 H   0  0  0  0  0  0  0  0  0  0  0  0
   20.1055   18.2568   21.1248 C   0  0  0  0  0  0  0  0  0  0  0  0
   19.9979   17.3265   21.6971 H   0  0  0  0  0  0  0  0  0  0  0  0
   20.8398   18.0453   20.3354 H   0  0  0  0  0  0  0  0  0  0  0  0
   18.7446   18.5988   20.4589 C   0  0  0  0  0  0  0  0  0  0  0  0
   18.4235   17.7554   19.8366 H   0  0  0  0  0  0  0  0  0  0  0  0
   17.9671   18.7359   21.2189 H   0  0  0  0  0  0  0  0  0  0  0  0
   18.7800   19.8352   19.5653 C   0  0  0  0  0  0  0  0  0  0  0  0
   18.2215   20.8427   19.9527 O   0  5  0  0  0  0  0  0  0  0  0  0
   19.3511   19.7520   18.4954 O   0  0  0  0  0  0  0  0  0  0  0  0
  1  2  1  0  0  0  0
  1  3  1  0  0  0  0
  1  4  2  0  0  0  0
  4  5  1  0  0  0  0
  4  6  1  0  0  0  0
  6  7  1  0  0  0  0
  6  8  1  0  0  0  0
  6  9  1  0  0  0  0
  9 10  1  0  0  0  0
  9 11  1  0  0  0  0
  9 12  1  0  0  0  0
 12 13  1  0  0  0  0
 12 14  1  0  0  0  0
 12 15  1  0  0  0  0
 15 16  1  0  0  0  0
 15 17  1  0  0  0  0
 15 18  1  0  0  0  0
 18 19  1  0  0  0  0
 18 20  2  0  0  0  0
M  END
> <VConfSearch Rank>
814

> <Conf_Id>
66

> <Delta U+W>
1.737

> <U+W>
-50.008

> <U>
11.091

> <W>
-61.099

> <W(PB)>
-63.213

> <W(SA)>
2.114

> <Valence>
9.664

> <Coulomb>
0.658

> <VdW>
0.769

> <VdW6>
-9.171

> <VdW12>
9.940

> <Bond>
0.244

> <Angle>
3.658

> <Pdih>
5.762

> <Idih>
0.001

> <Tether>
0.000

$$$$
VeraChem MOL file


 20 19  0  0  0  0  0  0  0  0999 V2000     
   20.0131   17.0901   20.1542 C   0  0  0  0  0  0  0  0  0  0  0  0
   20.4341   17.9571   19.6502 H   0  0  0  0  0  0  0  0  0  0  0  0
   20.5092   16.1350   19.9909 H   0  0  0  0  0  0  0  0  0  0  0  0
   18.9324   17.1755   20.9376 C   0  0  0  0  0  0  0  0  0  0  0  0
   18.5511   16.2741   21.4165 H   0  0  0  0  0  0  0  0  0  0  0  0
   18.1453   18.4357   21.2588 C   0  0  0  0  0  0  0  0  0  0  0  0
   17.7707   18.3677   22.2877 H   0  0  0  0  0  0  0  0  0  0  0  0
   17.2435   18.4542   20.6328 H   0  0  0  0  0  0  0  0  0  0  0  0
   18.9098   19.7747   21.0887 C   0  0  0  0  0  0  0  0  0  0  0  0
   19.2381   19.8771   20.0460 H   0  0  0  0  0  0  0  0  0  0  0  0
   18.2099   20.6036   21.2612 H   0  0  0  0  0  0  0  0  0  0  0  0
   20.1281   19.9495   22.0309 C   0  0  0  0  0  0  0  0  0  0  0  0
   20.6416   20.8847   21.7687 H   0  0  0  0  0  0  0  0  0  0  0  0
   20.8550   19.1434   21.8655 H   0  0  0  0  0  0  0  0  0  0  0  0
   19.7477   19.9963   23.5336 C   0  0  0  0  0  0  0  0  0  0  0  0
   18.9840   20.7636   23.7078 H   0  0  0  0  0  0  0  0  0  0  0  0
   19.3261   19.0369   23.8537 H   0  0  0  0  0  0  0  0  0  0  0  0
   20.9390   20.3035   24.4341 C   0  0  0  0  0  0  0  0  0  0  0  0
   21.5790   19.3713   24.8791 O   0  5  0  0  0  0  0  0  0  0  0  0
   21.2046   21.4685   24.6555 O   0  0  0  0  0  0  0  0  0  0  0  0
  1  2  1  0  0  0  0
  1  3  1  0  0  0  0
  1  4  2  0  0  0  0
  4  5  1  0  0  0  0
  4  6  1  0  0  0  0
  6  7  1  0  0  0  0
  6  8  1  0  0  0  0
  6  9  1  0  0  0  0
  9 10  1  0  0  0  0
  9 11  1  0  0  0  0
  9 12  1  0  0  0  0
 12 13  1  0  0  0  0
 12 14  1  0  0  0  0
 12 15  1  0  0  0  0
 15 16  1  0  0  0  0
 15 17  1  0  0  0  0
 15 18  1  0  0  0  0
 18 19  1  0  0  0  0
 18 20  2  0  0  0  0
M  END
> <VConfSearch Rank>
815

> <Conf_Id>
64

> <Delta U+W>
0.366

> <U+W>
-51.379

> <U>
10.000

> <W>
-61.379

> <W(PB)>
-63.541

> <W(SA)>
2.162

> <Valence>
9.398

> <Coulomb>
-0.504

> <VdW>
1.105

> <VdW6>
-7.975

> <VdW12>
9.080

> <Bond>
0.216

> <Angle>
3.417

> <Pdih>
5.765

> <Idih>
0.001

> <Tether>
0.000

$$$$
VeraChem MOL file


 20 19  0  0  0  0  0  0  0  0999 V2000     
   20.3621   16.3169   21.0031 C   0  0  0  0  0  0  0  0  0  0  0  0
   20.8318   16.0885   21.9585 H   0  0  0  0  0  0  0  0  0  0  0  0
   20.8159   15.8949   20.1081 H   0  0  0  0  0  0  0  0  0  0  0  0
   19.2739   17.0876   20.9276 C   0  0  0  0  0  0  0  0  0  0  0  0
   18.8207   17.3061   19.9610 H   0  0  0  0  0  0  0  0  0  0  0  0
   18.5885   17.7092   22.1258 C   0  0  0  0  0  0  0  0  0  0  0  0
   18.9774   17.2803   23.0593 H   0  0  0  0  0  0  0  0  0  0  0  0
   17.5186   17.4636   22.0945 H   0  0  0  0  0  0  0  0  0  0  0  0
   18.7463   19.2461   22.1591 C   0  0  0  0  0  0  0  0  0  0  0  0
   18.3579   19.6749   21.2251 H   0  0  0  0  0  0  0  0  0  0  0  0
   18.1265   19.6488   22.9718 H   0  0  0  0  0  0  0  0  0  0  0  0
   20.2118   19.6906   22.3698 C   0  0  0  0  0  0  0  0  0  0  0  0
   20.8380   19.3163   21.5483 H   0  0  0  0  0  0  0  0  0  0  0  0
   20.6036   19.2469   23.2955 H   0  0  0  0  0  0  0  0  0  0  0  0
   20.3413   21.2319   22.4456 C   0  0  0  0  0  0  0  0  0  0  0  0
   19.9653   21.6889   21.5224 H   0  0  0  0  0  0  0  0  0  0  0  0
   19.7353   21.6230   23.2716 H   0  0  0  0  0  0  0  0  0  0  0  0
   21.7787   21.6956   22.6529 C   0  0  0  0  0  0  0  0  0  0  0  0
   22.1889   21.8001   23.7920 O   0  5  0  0  0  0  0  0  0  0  0  0
   22.4547   21.9266   21.6699 O   0  0  0  0  0  0  0  0  0  0  0  0
  1  2  1  0  0  0  0
  1  3  1  0  0  0  0
  1  4  2  0  0  0  0
  4  5  1  0  0  0  0
  4  6  1  0  0  0  0
  6  7  1  0  0  0  0
  6  8  1  0  0  0  0
  6  9  1  0  0  0  0
  9 10  1  0  0  0  0
  9 11  1  0  0  0  0
  9 12  1  0  0  0  0
 12 13  1  0  0  0  0
 12 14  1  0  0  0  0
 12 15  1  0  0  0  0
 15 16  1  0  0  0  0
 15 17  1  0  0  0  0
 15 18  1  0  0  0  0
 18 19  1  0  0  0  0
 18 20  2  0  0  0  0
M  END
> <VConfSearch Rank>
816

> <Conf_Id>
42

> <Delta U+W>
-0.601

> <U+W>
-52.347

> <U>
8.428

> <W>
-60.774

> <W(PB)>
-62.982

> <W(SA)>
2.208

> <Valence>
9.231

> <Coulomb>
-1.304

> <VdW>
0.501

> <VdW6>
-6.515

> <VdW12>
7.016

> <Bond>
0.103

> <Angle>
2.328

> <Pdih>
6.799

> <Idih>
0.000

> <Tether>
0.000

$$$$
VeraChem MOL file


 20 19  0  0  0  0  0  0  0  0999 V2000     
   21.6503   19.9397   19.8971 C   0  0  0  0  0  0  0  0  0  0  0  0
   21.3290   19.1346   19.2383 H   0  0  0  0  0  0  0  0  0  0  0  0
   22.7132   20.1741   19.9204 H   0  0  0  0  0  0  0  0  0  0  0  0
   20.7782   20.6132   20.6519 C   0  0  0  0  0  0  0  0  0  0  0  0
   21.1210   21.4138   21.3068 H   0  0  0  0  0  0  0  0  0  0  0  0
   19.2886   20.3439   20.6742 C   0  0  0  0  0  0  0  0  0  0  0  0
   19.0053   19.6692   19.8550 H   0  0  0  0  0  0  0  0  0  0  0  0
   18.7511   21.2855   20.4999 H   0  0  0  0  0  0  0  0  0  0  0  0
   18.8221   19.7459   22.0205 C   0  0  0  0  0  0  0  0  0  0  0  0
   19.1005   20.4256   22.8377 H   0  0  0  0  0  0  0  0  0  0  0  0
   17.7251   19.6875   22.0224 H   0  0  0  0  0  0  0  0  0  0  0  0
   19.4068   18.3379   22.2827 C   0  0  0  0  0  0  0  0  0  0  0  0
   20.5036   18.3888   22.3252 H   0  0  0  0  0  0  0  0  0  0  0  0
   19.1544   17.6790   21.4411 H   0  0  0  0  0  0  0  0  0  0  0  0
   18.8742   17.7064   23.5951 C   0  0  0  0  0  0  0  0  0  0  0  0
   17.7783   17.6691   23.5806 H   0  0  0  0  0  0  0  0  0  0  0  0
   19.2261   16.6709   23.6723 H   0  0  0  0  0  0  0  0  0  0  0  0
   19.3198   18.4361   24.8591 C   0  0  0  0  0  0  0  0  0  0  0  0
   18.5183   19.1569   25.4206 O   0  5  0  0  0  0  0  0  0  0  0  0
   20.4522   18.2494   25.2590 O   0  0  0  0  0  0  0  0  0  0  0  0
  1  2  1  0  0  0  0
  1  3  1  0  0  0  0
  1  4  2  0  0  0  0
  4  5  1  0  0  0  0
  4  6  1  0  0  0  0
  6  7  1  0  0  0  0
  6  8  1  0  0  0  0
  6  9  1  0  0  0  0
  9 10  1  0  0  0  0
  9 11  1  0  0  0  0
  9 12  1  0  0  0  0
 12 13  1  0  0  0  0
 12 14  1  0  0  0  0
 12 15  1  0  0  0  0
 15 16  1  0  0  0  0
 15 17  1  0  0  0  0
 15 18  1  0  0  0  0
 18 19  1  0  0  0  0
 18 20  2  0  0  0  0
M  END
> <VConfSearch Rank>
817

> <Conf_Id>
68

> <Delta U+W>
0.492

> <U+W>
-51.253

> <U>
10.179

> <W>
-61.432

> <W(PB)>
-63.627

> <W(SA)>
2.195

> <Valence>
9.483

> <Coulomb>
0.361

> <VdW>
0.335

> <VdW6>
-7.385

> <VdW12>
7.720

> <Bond>
0.125

> <Angle>
2.487

> <Pdih>
6.870

> <Idih>
0.001

> <Tether>
0.000

$$$$
VeraChem MOL file


 20 19  0  0  0  0  0  0  0  0999 V2000     
   21.2149   16.4930   21.6268 C   0  0  0  0  0  0  0  0  0  0  0  0
   21.0722   16.3153   20.5621 H   0  0  0  0  0  0  0  0  0  0  0  0
   21.2861   15.6215   22.2752 H   0  0  0  0  0  0  0  0  0  0  0  0
   21.2962   17.7305   22.1225 C   0  0  0  0  0  0  0  0  0  0  0  0
   21.4418   17.8858   23.1911 H   0  0  0  0  0  0  0  0  0  0  0  0
   21.2118   18.9872   21.2826 C   0  0  0  0  0  0  0  0  0  0  0  0
   21.4152   18.7443   20.2309 H   0  0  0  0  0  0  0  0  0  0  0  0
   21.9919   19.6961   21.5907 H   0  0  0  0  0  0  0  0  0  0  0  0
   19.8257   19.6642   21.3751 C   0  0  0  0  0  0  0  0  0  0  0  0
   19.7846   20.4880   20.6495 H   0  0  0  0  0  0  0  0  0  0  0  0
   19.0497   18.9456   21.0766 H   0  0  0  0  0  0  0  0  0  0  0  0
   19.5189   20.2162   22.7875 C   0  0  0  0  0  0  0  0  0  0  0  0
   20.3262   20.8947   23.0946 H   0  0  0  0  0  0  0  0  0  0  0  0
   19.5006   19.3949   23.5168 H   0  0  0  0  0  0  0  0  0  0  0  0
   18.1701   20.9791   22.8480 C   0  0  0  0  0  0  0  0  0  0  0  0
   18.0573   21.4461   23.8334 H   0  0  0  0  0  0  0  0  0  0  0  0
   18.1592   21.7897   22.1094 H   0  0  0  0  0  0  0  0  0  0  0  0
   16.9475   20.0952   22.6186 C   0  0  0  0  0  0  0  0  0  0  0  0
   16.5685   19.3933   23.5356 O   0  5  0  0  0  0  0  0  0  0  0  0
   16.3950   20.1458   21.5372 O   0  0  0  0  0  0  0  0  0  0  0  0
  1  2  1  0  0  0  0
  1  3  1  0  0  0  0
  1  4  2  0  0  0  0
  4  5  1  0  0  0  0
  4  6  1  0  0  0  0
  6  7  1  0  0  0  0
  6  8  1  0  0  0  0
  6  9  1  0  0  0  0
  9 10  1  0  0  0  0
  9 11  1  0  0  0  0
  9 12  1  0  0  0  0
 12 13  1  0  0  0  0
 12 14  1  0  0  0  0
 12 15  1  0  0  0  0
 15 16  1  0  0  0  0
 15 17  1  0  0  0  0
 15 18  1  0  0  0  0
 18 19  1  0  0  0  0
 18 20  2  0  0  0  0
M  END
> <VConfSearch Rank>
818

> <Conf_Id>
87

> <Delta U+W>
0.339

> <U+W>
-51.407

> <U>
10.461

> <W>
-61.867

> <W(PB)>
-64.045

> <W(SA)>
2.178

> <Valence>
9.555

> <Coulomb>
0.483

> <VdW>
0.423

> <VdW6>
-7.223

> <VdW12>
7.646

> <Bond>
0.126

> <Angle>
2.492

> <Pdih>
6.936

> <Idih>
0.001

> <Tether>
0.000

$$$$
VeraChem MOL file


 20 19  0  0  0  0  0  0  0  0999 V2000     
   22.1665   19.9947   22.4012 C   0  0  0  0  0  0  0  0  0  0  0  0
   22.7198   19.6776   21.5188 H   0  0  0  0  0  0  0  0  0  0  0  0
   22.4027   20.9724   22.8176 H   0  0  0  0  0  0  0  0  0  0  0  0
   21.2314   19.2165   22.9523 C   0  0  0  0  0  0  0  0  0  0  0  0
   20.6947   19.5477   23.8406 H   0  0  0  0  0  0  0  0  0  0  0  0
   20.8612   17.8430   22.4345 C   0  0  0  0  0  0  0  0  0  0  0  0
   20.3483   17.2672   23.2164 H   0  0  0  0  0  0  0  0  0  0  0  0
   21.7864   17.2922   22.2176 H   0  0  0  0  0  0  0  0  0  0  0  0
   19.9980   17.8776   21.1489 C   0  0  0  0  0  0  0  0  0  0  0  0
   20.4154   18.6012   20.4354 H   0  0  0  0  0  0  0  0  0  0  0  0
   20.0777   16.8956   20.6630 H   0  0  0  0  0  0  0  0  0  0  0  0
   18.4933   18.1662   21.3809 C   0  0  0  0  0  0  0  0  0  0  0  0
   18.0828   17.4494   22.1053 H   0  0  0  0  0  0  0  0  0  0  0  0
   17.9592   17.9890   20.4370 H   0  0  0  0  0  0  0  0  0  0  0  0
   18.1868   19.6113   21.8508 C   0  0  0  0  0  0  0  0  0  0  0  0
   18.5780   19.7792   22.8592 H   0  0  0  0  0  0  0  0  0  0  0  0
   18.6708   20.3373   21.1866 H   0  0  0  0  0  0  0  0  0  0  0  0
   16.6939   19.9176   21.8810 C   0  0  0  0  0  0  0  0  0  0  0  0
   16.0766   19.6659   22.8971 O   0  5  0  0  0  0  0  0  0  0  0  0
   16.1827   20.3806   20.8804 O   0  0  0  0  0  0  0  0  0  0  0  0
  1  2  1  0  0  0  0
  1  3  1  0  0  0  0
  1  4  2  0  0  0  0
  4  5  1  0  0  0  0
  4  6  1  0  0  0  0
  6  7  1  0  0  0  0
  6  8  1  0  0  0  0
  6  9  1  0  0  0  0
  9 10  1  0  0  0  0
  9 11  1  0  0  0  0
  9 12  1  0  0  0  0
 12 13  1  0  0  0  0
 12 14  1  0  0  0  0
 12 15  1  0  0  0  0
 15 16  1  0  0  0  0
 15 17  1  0  0  0  0
 15 18  1  0  0  0  0
 18 19  1  0  0  0  0
 18 20  2  0  0  0  0
M  END
> <VConfSearch Rank>
819

> <Conf_Id>
51

> <Delta U+W>
1.709

> <U+W>
-50.036

> <U>
10.643

> <W>
-60.679

> <W(PB)>
-62.882

> <W(SA)>
2.203

> <Valence>
11.231

> <Coulomb>
-1.077

> <VdW>
0.489

> <VdW6>
-7.546

> <VdW12>
8.035

> <Bond>
0.159

> <Angle>
3.005

> <Pdih>
8.065

> <Idih>
0.002

> <Tether>
0.000

$$$$
VeraChem MOL file


 20 19  0  0  0  0  0  0  0  0999 V2000     
   21.8420   17.3781   22.1735 C   0  0  0  0  0  0  0  0  0  0  0  0
   22.3561   17.7486   23.0589 H   0  0  0  0  0  0  0  0  0  0  0  0
   22.4558   17.0033   21.3563 H   0  0  0  0  0  0  0  0  0  0  0  0
   20.5091   17.3846   22.0899 C   0  0  0  0  0  0  0  0  0  0  0  0
   20.0126   17.0013   21.1992 H   0  0  0  0  0  0  0  0  0  0  0  0
   19.5949   17.8785   23.1909 C   0  0  0  0  0  0  0  0  0  0  0  0
   19.9495   17.4699   24.1467 H   0  0  0  0  0  0  0  0  0  0  0  0
   18.5821   17.4771   23.0529 H   0  0  0  0  0  0  0  0  0  0  0  0
   19.5423   19.4222   23.3065 C   0  0  0  0  0  0  0  0  0  0  0  0
   19.1634   19.6724   24.3068 H   0  0  0  0  0  0  0  0  0  0  0  0
   20.5581   19.8375   23.2568 H   0  0  0  0  0  0  0  0  0  0  0  0
   18.6292   20.1234   22.2694 C   0  0  0  0  0  0  0  0  0  0  0  0
   18.5288   21.1792   22.5573 H   0  0  0  0  0  0  0  0  0  0  0  0
   17.6181   19.6959   22.3123 H   0  0  0  0  0  0  0  0  0  0  0  0
   19.1563   20.0632   20.8128 C   0  0  0  0  0  0  0  0  0  0  0  0
   20.1988   20.4005   20.7719 H   0  0  0  0  0  0  0  0  0  0  0  0
   19.1300   19.0358   20.4362 H   0  0  0  0  0  0  0  0  0  0  0  0
   18.3412   20.9240   19.8545 C   0  0  0  0  0  0  0  0  0  0  0  0
   17.3728   20.4246   19.3163 O   0  5  0  0  0  0  0  0  0  0  0  0
   18.6838   22.0778   19.6867 O   0  0  0  0  0  0  0  0  0  0  0  0
  1  2  1  0  0  0  0
  1  3  1  0  0  0  0
  1  4  2  0  0  0  0
  4  5  1  0  0  0  0
  4  6  1  0  0  0  0
  6  7  1  0  0  0  0
  6  8  1  0  0  0  0
  6  9  1  0  0  0  0
  9 10  1  0  0  0  0
  9 11  1  0  0  0  0
  9 12  1  0  0  0  0
 12 13  1  0  0  0  0
 12 14  1  0  0  0  0
 12 15  1  0  0  0  0
 15 16  1  0  0  0  0
 15 17  1  0  0  0  0
 15 18  1  0  0  0  0
 18 19  1  0  0  0  0
 18 20  2  0  0  0  0
M  END
> <VConfSearch Rank>
820

> <Conf_Id>
91

> <Delta U+W>
1.604

> <U+W>
-50.141

> <U>
10.644

> <W>
-60.786

> <W(PB)>
-62.965

> <W(SA)>
2.179

> <Valence>
11.230

> <Coulomb>
-1.075

> <VdW>
0.489

> <VdW6>
-7.547

> <VdW12>
8.036

> <Bond>
0.159

> <Angle>
3.006

> <Pdih>
8.064

> <Idih>
0.002

> <Tether>
0.000

$$$$
VeraChem MOL file


 20 19  0  0  0  0  0  0  0  0999 V2000     
   16.8784   21.2056   21.3818 C   0  0  0  0  0  0  0  0  0  0  0  0
   17.1326   21.2475   20.3239 H   0  0  0  0  0  0  0  0  0  0  0  0
   16.2387   21.9941   21.7749 H   0  0  0  0  0  0  0  0  0  0  0  0
   17.3333   20.2286   22.1706 C   0  0  0  0  0  0  0  0  0  0  0  0
   17.0676   20.2055   23.2272 H   0  0  0  0  0  0  0  0  0  0  0  0
   18.2233   19.1014   21.6963 C   0  0  0  0  0  0  0  0  0  0  0  0
   18.2246   19.0538   20.5988 H   0  0  0  0  0  0  0  0  0  0  0  0
   17.8240   18.1427   22.0535 H   0  0  0  0  0  0  0  0  0  0  0  0
   19.6691   19.2816   22.2045 C   0  0  0  0  0  0  0  0  0  0  0  0
   20.0622   20.2438   21.8479 H   0  0  0  0  0  0  0  0  0  0  0  0
   19.6678   19.3245   23.3023 H   0  0  0  0  0  0  0  0  0  0  0  0
   20.5914   18.1368   21.7314 C   0  0  0  0  0  0  0  0  0  0  0  0
   20.5936   18.0936   20.6333 H   0  0  0  0  0  0  0  0  0  0  0  0
   20.1981   17.1742   22.0866 H   0  0  0  0  0  0  0  0  0  0  0  0
   22.0456   18.3188   22.2421 C   0  0  0  0  0  0  0  0  0  0  0  0
   22.4466   19.2749   21.8858 H   0  0  0  0  0  0  0  0  0  0  0  0
   22.0517   18.3564   23.3377 H   0  0  0  0  0  0  0  0  0  0  0  0
   23.0277   17.2258   21.8177 C   0  0  0  0  0  0  0  0  0  0  0  0
   24.1760   17.3334   22.1998 O   0  5  0  0  0  0  0  0  0  0  0  0
   22.6409   16.3029   21.1269 O   0  0  0  0  0  0  0  0  0  0  0  0
  1  2  1  0  0  0  0
  1  3  1  0  0  0  0
  1  4  2  0  0  0  0
  4  5  1  0  0  0  0
  4  6  1  0  0  0  0
  6  7  1  0  0  0  0
  6  8  1  0  0  0  0
  6  9  1  0  0  0  0
  9 10  1  0  0  0  0
  9 11  1  0  0  0  0
  9 12  1  0  0  0  0
 12 13  1  0  0  0  0
 12 14  1  0  0  0  0
 12 15  1  0  0  0  0
 15 16  1  0  0  0  0
 15 17  1  0  0  0  0
 15 18  1  0  0  0  0
 18 19  1  0  0  0  0
 18 20  2  0  0  0  0
M  END
> <VConfSearch Rank>
821

> <Conf_Id>
33

> <Delta U+W>
0.000

> <U+W>
-51.745

> <U>
7.593

> <W>
-59.338

> <W(PB)>
-61.574

> <W(SA)>
2.236

> <Valence>
9.570

> <Coulomb>
-3.091

> <VdW>
1.114

> <VdW6>
-6.064

> <VdW12>
7.178

> <Bond>
0.117

> <Angle>
2.692

> <Pdih>
6.761

> <Idih>
0.000

> <Tether>
0.000

$$$$
VeraChem MOL file


 20 19  0  0  0  0  0  0  0  0999 V2000     
   20.3303   17.9436   18.5092 C   0  0  0  0  0  0  0  0  0  0  0  0
   19.2589   17.9563   18.3157 H   0  0  0  0  0  0  0  0  0  0  0  0
   20.9709   17.4954   17.7515 H   0  0  0  0  0  0  0  0  0  0  0  0
   20.8427   18.4544   19.6318 C   0  0  0  0  0  0  0  0  0  0  0  0
   21.9181   18.4310   19.8065 H   0  0  0  0  0  0  0  0  0  0  0  0
   20.0172   19.0926   20.7268 C   0  0  0  0  0  0  0  0  0  0  0  0
   19.0026   19.3043   20.3630 H   0  0  0  0  0  0  0  0  0  0  0  0
   20.4645   20.0569   20.9991 H   0  0  0  0  0  0  0  0  0  0  0  0
   19.9378   18.1753   21.9678 C   0  0  0  0  0  0  0  0  0  0  0  0
   19.5672   17.1892   21.6553 H   0  0  0  0  0  0  0  0  0  0  0  0
   20.9462   18.0133   22.3728 H   0  0  0  0  0  0  0  0  0  0  0  0
   19.0112   18.7208   23.0804 C   0  0  0  0  0  0  0  0  0  0  0  0
   18.9231   17.9610   23.8693 H   0  0  0  0  0  0  0  0  0  0  0  0
   17.9989   18.8707   22.6802 H   0  0  0  0  0  0  0  0  0  0  0  0
   19.5179   20.0417   23.7155 C   0  0  0  0  0  0  0  0  0  0  0  0
   20.5442   19.9169   24.0808 H   0  0  0  0  0  0  0  0  0  0  0  0
   19.5321   20.8473   22.9729 H   0  0  0  0  0  0  0  0  0  0  0  0
   18.6534   20.5033   24.8832 C   0  0  0  0  0  0  0  0  0  0  0  0
   17.7034   21.2226   24.6447 O   0  5  0  0  0  0  0  0  0  0  0  0
   18.9410   20.1154   25.9984 O   0  0  0  0  0  0  0  0  0  0  0  0
  1  2  1  0  0  0  0
  1  3  1  0  0  0  0
  1  4  2  0  0  0  0
  4  5  1  0  0  0  0
  4  6  1  0  0  0  0
  6  7  1  0  0  0  0
  6  8  1  0  0  0  0
  6  9  1  0  0  0  0
  9 10  1  0  0  0  0
  9 11  1  0  0  0  0
  9 12  1  0  0  0  0
 12 13  1  0  0  0  0
 12 14  1  0  0  0  0
 12 15  1  0  0  0  0
 15 16  1  0  0  0  0
 15 17  1  0  0  0  0
 15 18  1  0  0  0  0
 18 19  1  0  0  0  0
 18 20  2  0  0  0  0
M  END
> <VConfSearch Rank>
822

> <Conf_Id>
37

> <Delta U+W>
-0.384

> <U+W>
-52.130

> <U>
7.491

> <W>
-59.621

> <W(PB)>
-61.853

> <W(SA)>
2.232

> <Valence>
9.604

> <Coulomb>
-2.799

> <VdW>
0.686

> <VdW6>
-6.435

> <VdW12>
7.121

> <Bond>
0.124

> <Angle>
2.493

> <Pdih>
6.986

> <Idih>
0.001

> <Tether>
0.000

$$$$
VeraChem MOL file


 20 19  0  0  0  0  0  0  0  0999 V2000     
   17.8132   17.8665   24.3510 C   0  0  0  0  0  0  0  0  0  0  0  0
   17.1589   17.4887   25.1347 H   0  0  0  0  0  0  0  0  0  0  0  0
   18.7653   18.2875   24.6670 H   0  0  0  0  0  0  0  0  0  0  0  0
   17.4453   17.8067   23.0661 C   0  0  0  0  0  0  0  0  0  0  0  0
   16.4783   17.3734   22.8114 H   0  0  0  0  0  0  0  0  0  0  0  0
   18.2458   18.2902   21.8684 C   0  0  0  0  0  0  0  0  0  0  0  0
   17.6459   19.0266   21.3171 H   0  0  0  0  0  0  0  0  0  0  0  0
   18.3900   17.4488   21.1774 H   0  0  0  0  0  0  0  0  0  0  0  0
   19.6220   18.9091   22.2079 C   0  0  0  0  0  0  0  0  0  0  0  0
   19.4830   19.7649   22.8827 H   0  0  0  0  0  0  0  0  0  0  0  0
   20.2351   18.1701   22.7416 H   0  0  0  0  0  0  0  0  0  0  0  0
   20.3692   19.3738   20.9387 C   0  0  0  0  0  0  0  0  0  0  0  0
   19.7607   20.1135   20.4000 H   0  0  0  0  0  0  0  0  0  0  0  0
   20.5113   18.5219   20.2592 H   0  0  0  0  0  0  0  0  0  0  0  0
   21.7475   19.9939   21.2760 C   0  0  0  0  0  0  0  0  0  0  0  0
   21.6224   20.8549   21.9436 H   0  0  0  0  0  0  0  0  0  0  0  0
   22.3729   19.2633   21.8028 H   0  0  0  0  0  0  0  0  0  0  0  0
   22.5053   20.4607   20.0383 C   0  0  0  0  0  0  0  0  0  0  0  0
   22.3273   21.5990   19.6522 O   0  5  0  0  0  0  0  0  0  0  0  0
   23.2385   19.6675   19.4816 O   0  0  0  0  0  0  0  0  0  0  0  0
  1  2  1  0  0  0  0
  1  3  1  0  0  0  0
  1  4  2  0  0  0  0
  4  5  1  0  0  0  0
  4  6  1  0  0  0  0
  6  7  1  0  0  0  0
  6  8  1  0  0  0  0
  6  9  1  0  0  0  0
  9 10  1  0  0  0  0
  9 11  1  0  0  0  0
  9 12  1  0  0  0  0
 12 13  1  0  0  0  0
 12 14  1  0  0  0  0
 12 15  1  0  0  0  0
 15 16  1  0  0  0  0
 15 17  1  0  0  0  0
 15 18  1  0  0  0  0
 18 19  1  0  0  0  0
 18 20  2  0  0  0  0
M  END
> <VConfSearch Rank>
823

> <Conf_Id>
44

> <Delta U+W>
-1.440

> <U+W>
-53.185

> <U>
6.572

> <W>
-59.757

> <W(PB)>
-62.007

> <W(SA)>
2.249

> <Valence>
7.989

> <Coulomb>
-2.697

> <VdW>
1.281

> <VdW6>
-6.467

> <VdW12>
7.748

> <Bond>
0.136

> <Angle>
2.854

> <Pdih>
4.997

> <Idih>
0.001

> <Tether>
0.000

$$$$
VeraChem MOL file


 20 19  0  0  0  0  0  0  0  0999 V2000     
   23.1477   18.5308   21.2594 C   0  0  0  0  0  0  0  0  0  0  0  0
   23.0919   18.0690   22.2439 H   0  0  0  0  0  0  0  0  0  0  0  0
   24.1386   18.7309   20.8554 H   0  0  0  0  0  0  0  0  0  0  0  0
   22.0461   18.8435   20.5720 C   0  0  0  0  0  0  0  0  0  0  0  0
   22.1240   19.3058   19.5882 H   0  0  0  0  0  0  0  0  0  0  0  0
   20.6386   18.5948   21.0671 C   0  0  0  0  0  0  0  0  0  0  0  0
   20.6593   17.8971   21.9141 H   0  0  0  0  0  0  0  0  0  0  0  0
   20.0507   18.1138   20.2740 H   0  0  0  0  0  0  0  0  0  0  0  0
   19.9570   19.9160   21.4889 C   0  0  0  0  0  0  0  0  0  0  0  0
   20.5157   20.3689   22.3194 H   0  0  0  0  0  0  0  0  0  0  0  0
   20.0129   20.6273   20.6535 H   0  0  0  0  0  0  0  0  0  0  0  0
   18.4728   19.7442   21.8913 C   0  0  0  0  0  0  0  0  0  0  0  0
   17.9108   19.3002   21.0580 H   0  0  0  0  0  0  0  0  0  0  0  0
   18.0376   20.7384   22.0638 H   0  0  0  0  0  0  0  0  0  0  0  0
   18.2726   18.8854   23.1670 C   0  0  0  0  0  0  0  0  0  0  0  0
   18.6138   17.8578   22.9990 H   0  0  0  0  0  0  0  0  0  0  0  0
   18.8642   19.2940   23.9950 H   0  0  0  0  0  0  0  0  0  0  0  0
   16.8160   18.8228   23.6124 C   0  0  0  0  0  0  0  0  0  0  0  0
   16.4164   19.6690   24.3876 O   0  5  0  0  0  0  0  0  0  0  0  0
   16.1141   17.9415   23.1570 O   0  0  0  0  0  0  0  0  0  0  0  0
  1  2  1  0  0  0  0
  1  3  1  0  0  0  0
  1  4  2  0  0  0  0
  4  5  1  0  0  0  0
  4  6  1  0  0  0  0
  6  7  1  0  0  0  0
  6  8  1  0  0  0  0
  6  9  1  0  0  0  0
  9 10  1  0  0  0  0
  9 11  1  0  0  0  0
  9 12  1  0  0  0  0
 12 13  1  0  0  0  0
 12 14  1  0  0  0  0
 12 15  1  0  0  0  0
 15 16  1  0  0  0  0
 15 17  1  0  0  0  0
 15 18  1  0  0  0  0
 18 19  1  0  0  0  0
 18 20  2  0  0  0  0
M  END
> <VConfSearch Rank>
824

> <Conf_Id>
38

> <Delta U+W>
-0.381

> <U+W>
-52.126

> <U>
7.601

> <W>
-59.727

> <W(PB)>
-61.964

> <W(SA)>
2.236

> <Valence>
9.602

> <Coulomb>
-2.686

> <VdW>
0.685

> <VdW6>
-6.453

> <VdW12>
7.139

> <Bond>
0.125

> <Angle>
2.485

> <Pdih>
6.991

> <Idih>
0.001

> <Tether>
0.000

$$$$
VeraChem MOL file


 20 19  0  0  0  0  0  0  0  0999 V2000     
   18.4702   22.0240   20.2048 C   0  0  0  0  0  0  0  0  0  0  0  0
   17.8318   21.4011   19.5803 H   0  0  0  0  0  0  0  0  0  0  0  0
   18.2118   23.0780   20.2910 H   0  0  0  0  0  0  0  0  0  0  0  0
   19.5284   21.5184   20.8437 C   0  0  0  0  0  0  0  0  0  0  0  0
   20.1542   22.1590   21.4648 H   0  0  0  0  0  0  0  0  0  0  0  0
   19.9489   20.0673   20.7712 C   0  0  0  0  0  0  0  0  0  0  0  0
   21.0246   20.0067   20.5584 H   0  0  0  0  0  0  0  0  0  0  0  0
   19.4336   19.5630   19.9424 H   0  0  0  0  0  0  0  0  0  0  0  0
   19.6411   19.3315   22.0922 C   0  0  0  0  0  0  0  0  0  0  0  0
   20.1596   19.8364   22.9191 H   0  0  0  0  0  0  0  0  0  0  0  0
   18.5651   19.3984   22.3042 H   0  0  0  0  0  0  0  0  0  0  0  0
   20.0676   17.8471   22.0361 C   0  0  0  0  0  0  0  0  0  0  0  0
   21.1457   17.7768   21.8346 H   0  0  0  0  0  0  0  0  0  0  0  0
   19.5566   17.3549   21.1975 H   0  0  0  0  0  0  0  0  0  0  0  0
   19.7388   17.0824   23.3445 C   0  0  0  0  0  0  0  0  0  0  0  0
   18.6697   17.1669   23.5743 H   0  0  0  0  0  0  0  0  0  0  0  0
   19.9510   16.0154   23.2086 H   0  0  0  0  0  0  0  0  0  0  0  0
   20.5364   17.5555   24.5564 C   0  0  0  0  0  0  0  0  0  0  0  0
   19.9701   18.2364   25.3886 O   0  5  0  0  0  0  0  0  0  0  0  0
   21.7016   17.2203   24.6409 O   0  0  0  0  0  0  0  0  0  0  0  0
  1  2  1  0  0  0  0
  1  3  1  0  0  0  0
  1  4  2  0  0  0  0
  4  5  1  0  0  0  0
  4  6  1  0  0  0  0
  6  7  1  0  0  0  0
  6  8  1  0  0  0  0
  6  9  1  0  0  0  0
  9 10  1  0  0  0  0
  9 11  1  0  0  0  0
  9 12  1  0  0  0  0
 12 13  1  0  0  0  0
 12 14  1  0  0  0  0
 12 15  1  0  0  0  0
 15 16  1  0  0  0  0
 15 17  1  0  0  0  0
 15 18  1  0  0  0  0
 18 19  1  0  0  0  0
 18 20  2  0  0  0  0
M  END
> <VConfSearch Rank>
825

> <Conf_Id>
58

> <Delta U+W>
0.019

> <U+W>
-51.727

> <U>
8.963

> <W>
-60.690

> <W(PB)>
-62.934

> <W(SA)>
2.244

> <Valence>
9.327

> <Coulomb>
-0.780

> <VdW>
0.417

> <VdW6>
-6.635

> <VdW12>
7.052

> <Bond>
0.105

> <Angle>
2.399

> <Pdih>
6.822

> <Idih>
0.000

> <Tether>
0.000

$$$$
VeraChem MOL file


 20 19  0  0  0  0  0  0  0  0999 V2000     
   19.3906   15.8120   21.1189 C   0  0  0  0  0  0  0  0  0  0  0  0
   18.6447   16.0366   20.3582 H   0  0  0  0  0  0  0  0  0  0  0  0
   19.4170   14.7963   21.5101 H   0  0  0  0  0  0  0  0  0  0  0  0
   20.2401   16.7435   21.5597 C   0  0  0  0  0  0  0  0  0  0  0  0
   20.9787   16.4982   22.3225 H   0  0  0  0  0  0  0  0  0  0  0  0
   20.2635   18.1722   21.0639 C   0  0  0  0  0  0  0  0  0  0  0  0
   19.6791   18.2631   20.1382 H   0  0  0  0  0  0  0  0  0  0  0  0
   21.2945   18.4582   20.8162 H   0  0  0  0  0  0  0  0  0  0  0  0
   19.6996   19.1397   22.1255 C   0  0  0  0  0  0  0  0  0  0  0  0
   18.6700   18.8476   22.3741 H   0  0  0  0  0  0  0  0  0  0  0  0
   20.2873   19.0485   23.0494 H   0  0  0  0  0  0  0  0  0  0  0  0
   19.7192   20.6053   21.6356 C   0  0  0  0  0  0  0  0  0  0  0  0
   19.1427   20.6835   20.7039 H   0  0  0  0  0  0  0  0  0  0  0  0
   20.7493   20.9041   21.3961 H   0  0  0  0  0  0  0  0  0  0  0  0
   19.1278   21.5901   22.6774 C   0  0  0  0  0  0  0  0  0  0  0  0
   19.0564   22.5912   22.2360 H   0  0  0  0  0  0  0  0  0  0  0  0
   18.1086   21.2887   22.9478 H   0  0  0  0  0  0  0  0  0  0  0  0
   19.9547   21.7124   23.9542 C   0  0  0  0  0  0  0  0  0  0  0  0
   20.9826   22.3593   23.9105 O   0  5  0  0  0  0  0  0  0  0  0  0
   19.5446   21.1678   24.9603 O   0  0  0  0  0  0  0  0  0  0  0  0
  1  2  1  0  0  0  0
  1  3  1  0  0  0  0
  1  4  2  0  0  0  0
  4  5  1  0  0  0  0
  4  6  1  0  0  0  0
  6  7  1  0  0  0  0
  6  8  1  0  0  0  0
  6  9  1  0  0  0  0
  9 10  1  0  0  0  0
  9 11  1  0  0  0  0
  9 12  1  0  0  0  0
 12 13  1  0  0  0  0
 12 14  1  0  0  0  0
 12 15  1  0  0  0  0
 15 16  1  0  0  0  0
 15 17  1  0  0  0  0
 15 18  1  0  0  0  0
 18 19  1  0  0  0  0
 18 20  2  0  0  0  0
M  END
> <VConfSearch Rank>
826

> <Conf_Id>
54

> <Delta U+W>
-0.048

> <U+W>
-51.793

> <U>
8.964

> <W>
-60.756

> <W(PB)>
-63.007

> <W(SA)>
2.251

> <Valence>
9.327

> <Coulomb>
-0.780

> <VdW>
0.417

> <VdW6>
-6.635

> <VdW12>
7.052

> <Bond>
0.105

> <Angle>
2.399

> <Pdih>
6.822

> <Idih>
0.000

> <Tether>
0.000

$$$$
VeraChem MOL file


 20 19  0  0  0  0  0  0  0  0999 V2000     
   18.2566   16.3373   20.7613 C   0  0  0  0  0  0  0  0  0  0  0  0
   18.4367   15.7145   19.8868 H   0  0  0  0  0  0  0  0  0  0  0  0
   17.9374   15.8383   21.6749 H   0  0  0  0  0  0  0  0  0  0  0  0
   18.4247   17.6613   20.7123 C   0  0  0  0  0  0  0  0  0  0  0  0
   18.7415   18.1410   19.7867 H   0  0  0  0  0  0  0  0  0  0  0  0
   18.1869   18.5897   21.8842 C   0  0  0  0  0  0  0  0  0  0  0  0
   17.5433   18.0945   22.6238 H   0  0  0  0  0  0  0  0  0  0  0  0
   17.6406   19.4819   21.5502 H   0  0  0  0  0  0  0  0  0  0  0  0
   19.5018   19.0126   22.5772 C   0  0  0  0  0  0  0  0  0  0  0  0
   19.2538   19.5664   23.4930 H   0  0  0  0  0  0  0  0  0  0  0  0
   20.0528   18.1162   22.8935 H   0  0  0  0  0  0  0  0  0  0  0  0
   20.4022   19.8902   21.6754 C   0  0  0  0  0  0  0  0  0  0  0  0
   19.8466   20.7795   21.3471 H   0  0  0  0  0  0  0  0  0  0  0  0
   20.6691   19.3313   20.7689 H   0  0  0  0  0  0  0  0  0  0  0  0
   21.7067   20.3334   22.3875 C   0  0  0  0  0  0  0  0  0  0  0  0
   22.2563   19.4567   22.7510 H   0  0  0  0  0  0  0  0  0  0  0  0
   22.3606   20.8429   21.6699 H   0  0  0  0  0  0  0  0  0  0  0  0
   21.4824   21.2877   23.5570 C   0  0  0  0  0  0  0  0  0  0  0  0
   21.5892   20.8504   24.6859 O   0  5  0  0  0  0  0  0  0  0  0  0
   21.2171   22.4471   23.3070 O   0  0  0  0  0  0  0  0  0  0  0  0
  1  2  1  0  0  0  0
  1  3  1  0  0  0  0
  1  4  2  0  0  0  0
  4  5  1  0  0  0  0
  4  6  1  0  0  0  0
  6  7  1  0  0  0  0
  6  8  1  0  0  0  0
  6  9  1  0  0  0  0
  9 10  1  0  0  0  0
  9 11  1  0  0  0  0
  9 12  1  0  0  0  0
 12 13  1  0  0  0  0
 12 14  1  0  0  0  0
 12 15  1  0  0  0  0
 15 16  1  0  0  0  0
 15 17  1  0  0  0  0
 15 18  1  0  0  0  0
 18 19  1  0  0  0  0
 18 20  2  0  0  0  0
M  END
> <VConfSearch Rank>
827

> <Conf_Id>
27

> <Delta U+W>
0.478

> <U+W>
-51.267

> <U>
9.192

> <W>
-60.459

> <W(PB)>
-62.649

> <W(SA)>
2.190

> <Valence>
9.572

> <Coulomb>
-0.884

> <VdW>
0.504

> <VdW6>
-7.168

> <VdW12>
7.672

> <Bond>
0.127

> <Angle>
2.504

> <Pdih>
6.941

> <Idih>
0.001

> <Tether>
0.000

$$$$
VeraChem MOL file


 20 19  0  0  0  0  0  0  0  0999 V2000     
   16.4883   19.1705   22.8850 C   0  0  0  0  0  0  0  0  0  0  0  0
   16.4568   20.0216   23.5633 H   0  0  0  0  0  0  0  0  0  0  0  0
   15.7457   18.3874   23.0287 H   0  0  0  0  0  0  0  0  0  0  0  0
   17.4025   19.0851   21.9152 C   0  0  0  0  0  0  0  0  0  0  0  0
   17.4142   18.2258   21.2452 H   0  0  0  0  0  0  0  0  0  0  0  0
   18.4597   20.1362   21.6521 C   0  0  0  0  0  0  0  0  0  0  0  0
   18.1586   21.0873   22.1119 H   0  0  0  0  0  0  0  0  0  0  0  0
   18.5369   20.3274   20.5734 H   0  0  0  0  0  0  0  0  0  0  0  0
   19.8427   19.7322   22.2107 C   0  0  0  0  0  0  0  0  0  0  0  0
   20.5284   20.5842   22.1074 H   0  0  0  0  0  0  0  0  0  0  0  0
   19.7558   19.5270   23.2866 H   0  0  0  0  0  0  0  0  0  0  0  0
   20.4467   18.5048   21.4904 C   0  0  0  0  0  0  0  0  0  0  0  0
   20.5088   18.7018   20.4112 H   0  0  0  0  0  0  0  0  0  0  0  0
   19.7897   17.6338   21.6188 H   0  0  0  0  0  0  0  0  0  0  0  0
   21.8565   18.1579   22.0290 C   0  0  0  0  0  0  0  0  0  0  0  0
   22.5338   19.0099   21.8950 H   0  0  0  0  0  0  0  0  0  0  0  0
   21.8094   17.9466   23.1040 H   0  0  0  0  0  0  0  0  0  0  0  0
   22.4740   16.9490   21.3352 C   0  0  0  0  0  0  0  0  0  0  0  0
   22.2671   15.8486   21.8075 O   0  5  0  0  0  0  0  0  0  0  0  0
   23.1311   17.1380   20.3306 O   0  0  0  0  0  0  0  0  0  0  0  0
  1  2  1  0  0  0  0
  1  3  1  0  0  0  0
  1  4  2  0  0  0  0
  4  5  1  0  0  0  0
  4  6  1  0  0  0  0
  6  7  1  0  0  0  0
  6  8  1  0  0  0  0
  6  9  1  0  0  0  0
  9 10  1  0  0  0  0
  9 11  1  0  0  0  0
  9 12  1  0  0  0  0
 12 13  1  0  0  0  0
 12 14  1  0  0  0  0
 12 15  1  0  0  0  0
 15 16  1  0  0  0  0
 15 17  1  0  0  0  0
 15 18  1  0  0  0  0
 18 19  1  0  0  0  0
 18 20  2  0  0  0  0
M  END
> <VConfSearch Rank>
828

> <Conf_Id>
41

> <Delta U+W>
-0.634

> <U+W>
-52.379

> <U>
7.828

> <W>
-60.207

> <W(PB)>
-62.449

> <W(SA)>
2.242

> <Valence>
9.300

> <Coulomb>
-2.080

> <VdW>
0.608

> <VdW6>
-6.341

> <VdW12>
6.949

> <Bond>
0.103

> <Angle>
2.334

> <Pdih>
6.862

> <Idih>
0.001

> <Tether>
0.000

$$$$
VeraChem MOL file


 20 19  0  0  0  0  0  0  0  0999 V2000     
   22.6153   17.5111   23.9191 C   0  0  0  0  0  0  0  0  0  0  0  0
   22.9753   17.1539   24.8825 H   0  0  0  0  0  0  0  0  0  0  0  0
   23.1560   17.1879   23.0310 H   0  0  0  0  0  0  0  0  0  0  0  0
   21.5502   18.3124   23.8343 C   0  0  0  0  0  0  0  0  0  0  0  0
   21.0223   18.6241   24.7354 H   0  0  0  0  0  0  0  0  0  0  0  0
   20.9936   18.8486   22.5342 C   0  0  0  0  0  0  0  0  0  0  0  0
   21.7188   18.7046   21.7220 H   0  0  0  0  0  0  0  0  0  0  0  0
   20.8330   19.9302   22.6309 H   0  0  0  0  0  0  0  0  0  0  0  0
   19.6647   18.1499   22.1697 C   0  0  0  0  0  0  0  0  0  0  0  0
   19.8224   17.0626   22.1760 H   0  0  0  0  0  0  0  0  0  0  0  0
   18.9156   18.3572   22.9464 H   0  0  0  0  0  0  0  0  0  0  0  0
   19.1104   18.5594   20.7829 C   0  0  0  0  0  0  0  0  0  0  0  0
   18.2123   17.9629   20.5709 H   0  0  0  0  0  0  0  0  0  0  0  0
   19.8437   18.2970   20.0084 H   0  0  0  0  0  0  0  0  0  0  0  0
   18.7505   20.0649   20.6541 C   0  0  0  0  0  0  0  0  0  0  0  0
   19.6417   20.6888   20.7860 H   0  0  0  0  0  0  0  0  0  0  0  0
   18.3801   20.2639   19.6417 H   0  0  0  0  0  0  0  0  0  0  0  0
   17.6761   20.5344   21.6308 C   0  0  0  0  0  0  0  0  0  0  0  0
   16.5312   20.1741   21.4389 O   0  5  0  0  0  0  0  0  0  0  0  0
   18.0080   21.2616   22.5463 O   0  0  0  0  0  0  0  0  0  0  0  0
  1  2  1  0  0  0  0
  1  3  1  0  0  0  0
  1  4  2  0  0  0  0
  4  5  1  0  0  0  0
  4  6  1  0  0  0  0
  6  7  1  0  0  0  0
  6  8  1  0  0  0  0
  6  9  1  0  0  0  0
  9 10  1  0  0  0  0
  9 11  1  0  0  0  0
  9 12  1  0  0  0  0
 12 13  1  0  0  0  0
 12 14  1  0  0  0  0
 12 15  1  0  0  0  0
 15 16  1  0  0  0  0
 15 17  1  0  0  0  0
 15 18  1  0  0  0  0
 18 19  1  0  0  0  0
 18 20  2  0  0  0  0
M  END
> <VConfSearch Rank>
829

> <Conf_Id>
84

> <Delta U+W>
0.942

> <U+W>
-50.803

> <U>
10.196

> <W>
-60.999

> <W(PB)>
-63.182

> <W(SA)>
2.182

> <Valence>
9.837

> <Coulomb>
0.032

> <VdW>
0.328

> <VdW6>
-7.642

> <VdW12>
7.969

> <Bond>
0.151

> <Angle>
2.748

> <Pdih>
6.937

> <Idih>
0.001

> <Tether>
0.000

$$$$
VeraChem MOL file


 20 19  0  0  0  0  0  0  0  0999 V2000     
   16.3827   20.4391   22.0397 C   0  0  0  0  0  0  0  0  0  0  0  0
   15.5463   20.7918   22.6408 H   0  0  0  0  0  0  0  0  0  0  0  0
   16.6528   21.0266   21.1636 H   0  0  0  0  0  0  0  0  0  0  0  0
   17.0501   19.3302   22.3689 C   0  0  0  0  0  0  0  0  0  0  0  0
   16.7641   18.7569   23.2505 H   0  0  0  0  0  0  0  0  0  0  0  0
   18.2193   18.7796   21.5831 C   0  0  0  0  0  0  0  0  0  0  0  0
   18.2722   19.2571   20.5952 H   0  0  0  0  0  0  0  0  0  0  0  0
   18.0707   17.7057   21.4077 H   0  0  0  0  0  0  0  0  0  0  0  0
   19.5493   19.0027   22.3330 C   0  0  0  0  0  0  0  0  0  0  0  0
   19.6884   20.0782   22.5107 H   0  0  0  0  0  0  0  0  0  0  0  0
   19.4987   18.5219   23.3196 H   0  0  0  0  0  0  0  0  0  0  0  0
   20.7545   18.4423   21.5444 C   0  0  0  0  0  0  0  0  0  0  0  0
   20.8165   18.9314   20.5622 H   0  0  0  0  0  0  0  0  0  0  0  0
   20.5974   17.3718   21.3551 H   0  0  0  0  0  0  0  0  0  0  0  0
   22.0979   18.6284   22.2964 C   0  0  0  0  0  0  0  0  0  0  0  0
   22.0426   18.1685   23.2906 H   0  0  0  0  0  0  0  0  0  0  0  0
   22.8973   18.1122   21.7519 H   0  0  0  0  0  0  0  0  0  0  0  0
   22.5223   20.0855   22.4566 C   0  0  0  0  0  0  0  0  0  0  0  0
   22.4039   20.6029   23.5499 O   0  5  0  0  0  0  0  0  0  0  0  0
   22.9728   20.6605   21.4853 O   0  0  0  0  0  0  0  0  0  0  0  0
  1  2  1  0  0  0  0
  1  3  1  0  0  0  0
  1  4  2  0  0  0  0
  4  5  1  0  0  0  0
  4  6  1  0  0  0  0
  6  7  1  0  0  0  0
  6  8  1  0  0  0  0
  6  9  1  0  0  0  0
  9 10  1  0  0  0  0
  9 11  1  0  0  0  0
  9 12  1  0  0  0  0
 12 13  1  0  0  0  0
 12 14  1  0  0  0  0
 12 15  1  0  0  0  0
 15 16  1  0  0  0  0
 15 17  1  0  0  0  0
 15 18  1  0  0  0  0
 18 19  1  0  0  0  0
 18 20  2  0  0  0  0
M  END
> <VConfSearch Rank>
830

> <Conf_Id>
81

> <Delta U+W>
-0.051

> <U+W>
-51.796

> <U>
9.412

> <W>
-61.209

> <W(PB)>
-63.452

> <W(SA)>
2.243

> <Valence>
9.329

> <Coulomb>
-0.323

> <VdW>
0.406

> <VdW6>
-6.640

> <VdW12>
7.046

> <Bond>
0.105

> <Angle>
2.401

> <Pdih>
6.823

> <Idih>
0.000

> <Tether>
0.000

$$$$
VeraChem MOL file


 20 19  0  0  0  0  0  0  0  0999 V2000     
   20.7284   16.2838   23.2557 C   0  0  0  0  0  0  0  0  0  0  0  0
   21.4687   15.8899   22.5612 H   0  0  0  0  0  0  0  0  0  0  0  0
   20.7006   15.8542   24.2556 H   0  0  0  0  0  0  0  0  0  0  0  0
   19.8872   17.2581   22.8996 C   0  0  0  0  0  0  0  0  0  0  0  0
   19.1520   17.6366   23.6092 H   0  0  0  0  0  0  0  0  0  0  0  0
   19.8634   17.8990   21.5284 C   0  0  0  0  0  0  0  0  0  0  0  0
   18.8285   17.9941   21.1750 H   0  0  0  0  0  0  0  0  0  0  0  0
   20.3674   17.2442   20.8049 H   0  0  0  0  0  0  0  0  0  0  0  0
   20.5608   19.2803   21.5092 C   0  0  0  0  0  0  0  0  0  0  0  0
   21.6166   19.1471   21.7823 H   0  0  0  0  0  0  0  0  0  0  0  0
   20.5590   19.6657   20.4804 H   0  0  0  0  0  0  0  0  0  0  0  0
   19.9309   20.3377   22.4522 C   0  0  0  0  0  0  0  0  0  0  0  0
   20.5154   21.2653   22.3810 H   0  0  0  0  0  0  0  0  0  0  0  0
   20.0220   20.0009   23.4933 H   0  0  0  0  0  0  0  0  0  0  0  0
   18.4425   20.6629   22.1500 C   0  0  0  0  0  0  0  0  0  0  0  0
   17.8174   19.7731   22.2860 H   0  0  0  0  0  0  0  0  0  0  0  0
   18.0810   21.4085   22.8676 H   0  0  0  0  0  0  0  0  0  0  0  0
   18.1988   21.2227   20.7515 C   0  0  0  0  0  0  0  0  0  0  0  0
   17.6396   20.5150   19.9368 O   0  5  0  0  0  0  0  0  0  0  0  0
   18.5599   22.3598   20.5192 O   0  0  0  0  0  0  0  0  0  0  0  0
  1  2  1  0  0  0  0
  1  3  1  0  0  0  0
  1  4  2  0  0  0  0
  4  5  1  0  0  0  0
  4  6  1  0  0  0  0
  6  7  1  0  0  0  0
  6  8  1  0  0  0  0
  6  9  1  0  0  0  0
  9 10  1  0  0  0  0
  9 11  1  0  0  0  0
  9 12  1  0  0  0  0
 12 13  1  0  0  0  0
 12 14  1  0  0  0  0
 12 15  1  0  0  0  0
 15 16  1  0  0  0  0
 15 17  1  0  0  0  0
 15 18  1  0  0  0  0
 18 19  1  0  0  0  0
 18 20  2  0  0  0  0
M  END
> <VConfSearch Rank>
831

> <Conf_Id>
86

> <Delta U+W>
1.248

> <U+W>
-50.498

> <U>
10.404

> <W>
-60.901

> <W(PB)>
-63.061

> <W(SA)>
2.159

> <Valence>
10.021

> <Coulomb>
0.094

> <VdW>
0.289

> <VdW6>
-8.409

> <VdW12>
8.698

> <Bond>
0.179

> <Angle>
2.939

> <Pdih>
6.902

> <Idih>
0.001

> <Tether>
0.000

$$$$
VeraChem MOL file


 20 19  0  0  0  0  0  0  0  0999 V2000     
   22.4783   20.6608   21.7250 C   0  0  0  0  0  0  0  0  0  0  0  0
   23.4341   20.5666   21.2126 H   0  0  0  0  0  0  0  0  0  0  0  0
   21.8842   21.5495   21.5184 H   0  0  0  0  0  0  0  0  0  0  0  0
   22.0527   19.7187   22.5708 C   0  0  0  0  0  0  0  0  0  0  0  0
   22.6617   18.8356   22.7621 H   0  0  0  0  0  0  0  0  0  0  0  0
   20.7376   19.7796   23.3184 C   0  0  0  0  0  0  0  0  0  0  0  0
   20.2875   20.7777   23.2291 H   0  0  0  0  0  0  0  0  0  0  0  0
   20.9257   19.6195   24.3883 H   0  0  0  0  0  0  0  0  0  0  0  0
   19.7324   18.7148   22.8247 C   0  0  0  0  0  0  0  0  0  0  0  0
   20.1832   17.7166   22.9100 H   0  0  0  0  0  0  0  0  0  0  0  0
   18.8577   18.7208   23.4894 H   0  0  0  0  0  0  0  0  0  0  0  0
   19.2716   18.9589   21.3681 C   0  0  0  0  0  0  0  0  0  0  0  0
   20.1443   18.9463   20.7015 H   0  0  0  0  0  0  0  0  0  0  0  0
   18.8242   19.9588   21.2823 H   0  0  0  0  0  0  0  0  0  0  0  0
   18.2539   17.8961   20.8783 C   0  0  0  0  0  0  0  0  0  0  0  0
   18.0564   18.0433   19.8100 H   0  0  0  0  0  0  0  0  0  0  0  0
   18.6755   16.8895   20.9876 H   0  0  0  0  0  0  0  0  0  0  0  0
   16.9109   17.9433   21.6013 C   0  0  0  0  0  0  0  0  0  0  0  0
   16.1319   18.8278   21.3048 O   0  5  0  0  0  0  0  0  0  0  0  0
   16.6740   17.0890   22.4327 O   0  0  0  0  0  0  0  0  0  0  0  0
  1  2  1  0  0  0  0
  1  3  1  0  0  0  0
  1  4  2  0  0  0  0
  4  5  1  0  0  0  0
  4  6  1  0  0  0  0
  6  7  1  0  0  0  0
  6  8  1  0  0  0  0
  6  9  1  0  0  0  0
  9 10  1  0  0  0  0
  9 11  1  0  0  0  0
  9 12  1  0  0  0  0
 12 13  1  0  0  0  0
 12 14  1  0  0  0  0
 12 15  1  0  0  0  0
 15 16  1  0  0  0  0
 15 17  1  0  0  0  0
 15 18  1  0  0  0  0
 18 19  1  0  0  0  0
 18 20  2  0  0  0  0
M  END
> <VConfSearch Rank>
832

> <Conf_Id>
28

> <Delta U+W>
0.446

> <U+W>
-51.299

> <U>
9.295

> <W>
-60.594

> <W(PB)>
-62.806

> <W(SA)>
2.212

> <Valence>
9.495

> <Coulomb>
-0.610

> <VdW>
0.409

> <VdW6>
-7.332

> <VdW12>
7.741

> <Bond>
0.126

> <Angle>
2.497

> <Pdih>
6.872

> <Idih>
0.000

> <Tether>
0.000

$$$$
VeraChem MOL file


 20 19  0  0  0  0  0  0  0  0999 V2000     
   17.6334   20.5951   23.9703 C   0  0  0  0  0  0  0  0  0  0  0  0
   17.4922   20.9698   22.9588 H   0  0  0  0  0  0  0  0  0  0  0  0
   16.8712   20.8572   24.7022 H   0  0  0  0  0  0  0  0  0  0  0  0
   18.6843   19.8434   24.3176 C   0  0  0  0  0  0  0  0  0  0  0  0
   18.7697   19.4954   25.3467 H   0  0  0  0  0  0  0  0  0  0  0  0
   19.8226   19.3994   23.4140 C   0  0  0  0  0  0  0  0  0  0  0  0
   19.8206   18.3028   23.3681 H   0  0  0  0  0  0  0  0  0  0  0  0
   20.7743   19.6778   23.8857 H   0  0  0  0  0  0  0  0  0  0  0  0
   19.7827   19.9811   21.9792 C   0  0  0  0  0  0  0  0  0  0  0  0
   18.8749   19.6352   21.4658 H   0  0  0  0  0  0  0  0  0  0  0  0
   19.7126   21.0757   22.0388 H   0  0  0  0  0  0  0  0  0  0  0  0
   21.0286   19.6216   21.1321 C   0  0  0  0  0  0  0  0  0  0  0  0
   21.9276   20.0141   21.6262 H   0  0  0  0  0  0  0  0  0  0  0  0
   20.9591   20.1388   20.1651 H   0  0  0  0  0  0  0  0  0  0  0  0
   21.2138   18.1017   20.8709 C   0  0  0  0  0  0  0  0  0  0  0  0
   22.1215   17.9441   20.2770 H   0  0  0  0  0  0  0  0  0  0  0  0
   21.3627   17.5619   21.8129 H   0  0  0  0  0  0  0  0  0  0  0  0
   20.0586   17.4535   20.1130 C   0  0  0  0  0  0  0  0  0  0  0  0
   19.9175   17.7309   18.9380 O   0  5  0  0  0  0  0  0  0  0  0  0
   19.3437   16.6732   20.7104 O   0  0  0  0  0  0  0  0  0  0  0  0
  1  2  1  0  0  0  0
  1  3  1  0  0  0  0
  1  4  2  0  0  0  0
  4  5  1  0  0  0  0
  4  6  1  0  0  0  0
  6  7  1  0  0  0  0
  6  8  1  0  0  0  0
  6  9  1  0  0  0  0
  9 10  1  0  0  0  0
  9 11  1  0  0  0  0
  9 12  1  0  0  0  0
 12 13  1  0  0  0  0
 12 14  1  0  0  0  0
 12 15  1  0  0  0  0
 15 16  1  0  0  0  0
 15 17  1  0  0  0  0
 15 18  1  0  0  0  0
 18 19  1  0  0  0  0
 18 20  2  0  0  0  0
M  END
> <VConfSearch Rank>
833

> <Conf_Id>
53

> <Delta U+W>
0.549

> <U+W>
-51.197

> <U>
10.870

> <W>
-62.067

> <W(PB)>
-64.228

> <W(SA)>
2.161

> <Valence>
8.803

> <Coulomb>
1.020

> <VdW>
1.048

> <VdW6>
-8.312

> <VdW12>
9.360

> <Bond>
0.212

> <Angle>
3.379

> <Pdih>
5.211

> <Idih>
0.001

> <Tether>
0.000

$$$$
VeraChem MOL file


 20 19  0  0  0  0  0  0  0  0999 V2000     
   20.8308   19.4313   24.5645 C   0  0  0  0  0  0  0  0  0  0  0  0
   21.0412   18.3667   24.4896 H   0  0  0  0  0  0  0  0  0  0  0  0
   20.7115   19.8423   25.5653 H   0  0  0  0  0  0  0  0  0  0  0  0
   20.7270   20.2141   23.4851 C   0  0  0  0  0  0  0  0  0  0  0  0
   20.5178   21.2755   23.6159 H   0  0  0  0  0  0  0  0  0  0  0  0
   20.8639   19.7757   22.0363 C   0  0  0  0  0  0  0  0  0  0  0  0
   21.8794   20.0113   21.6919 H   0  0  0  0  0  0  0  0  0  0  0  0
   20.2069   20.3950   21.4123 H   0  0  0  0  0  0  0  0  0  0  0  0
   20.5619   18.2816   21.7495 C   0  0  0  0  0  0  0  0  0  0  0  0
   20.7678   18.0808   20.6892 H   0  0  0  0  0  0  0  0  0  0  0  0
   21.2658   17.6528   22.3103 H   0  0  0  0  0  0  0  0  0  0  0  0
   19.1103   17.8385   22.0708 C   0  0  0  0  0  0  0  0  0  0  0  0
   18.9143   17.9652   23.1433 H   0  0  0  0  0  0  0  0  0  0  0  0
   19.0187   16.7623   21.8698 H   0  0  0  0  0  0  0  0  0  0  0  0
   18.0143   18.5894   21.2663 C   0  0  0  0  0  0  0  0  0  0  0  0
   17.0273   18.2151   21.5618 H   0  0  0  0  0  0  0  0  0  0  0  0
   18.0241   19.6586   21.5063 H   0  0  0  0  0  0  0  0  0  0  0  0
   18.1280   18.4256   19.7534 C   0  0  0  0  0  0  0  0  0  0  0  0
   18.4924   19.3807   19.0960 O   0  5  0  0  0  0  0  0  0  0  0  0
   17.8312   17.3505   19.2701 O   0  0  0  0  0  0  0  0  0  0  0  0
  1  2  1  0  0  0  0
  1  3  1  0  0  0  0
  1  4  2  0  0  0  0
  4  5  1  0  0  0  0
  4  6  1  0  0  0  0
  6  7  1  0  0  0  0
  6  8  1  0  0  0  0
  6  9  1  0  0  0  0
  9 10  1  0  0  0  0
  9 11  1  0  0  0  0
  9 12  1  0  0  0  0
 12 13  1  0  0  0  0
 12 14  1  0  0  0  0
 12 15  1  0  0  0  0
 15 16  1  0  0  0  0
 15 17  1  0  0  0  0
 15 18  1  0  0  0  0
 18 19  1  0  0  0  0
 18 20  2  0  0  0  0
M  END
> <VConfSearch Rank>
834

> <Conf_Id>
66

> <Delta U+W>
1.737

> <U+W>
-50.008

> <U>
11.091

> <W>
-61.099

> <W(PB)>
-63.213

> <W(SA)>
2.114

> <Valence>
9.664

> <Coulomb>
0.658

> <VdW>
0.769

> <VdW6>
-9.171

> <VdW12>
9.940

> <Bond>
0.244

> <Angle>
3.658

> <Pdih>
5.762

> <Idih>
0.001

> <Tether>
0.000

$$$$
VeraChem MOL file


 20 19  0  0  0  0  0  0  0  0999 V2000     
   19.3190   16.8757   23.5711 C   0  0  0  0  0  0  0  0  0  0  0  0
   19.6418   16.4261   22.6347 H   0  0  0  0  0  0  0  0  0  0  0  0
   19.6725   16.4107   24.4896 H   0  0  0  0  0  0  0  0  0  0  0  0
   18.5197   17.9473   23.6094 C   0  0  0  0  0  0  0  0  0  0  0  0
   18.2249   18.3556   24.5758 H   0  0  0  0  0  0  0  0  0  0  0  0
   17.9572   18.6995   22.4143 C   0  0  0  0  0  0  0  0  0  0  0  0
   17.8909   19.7656   22.6648 H   0  0  0  0  0  0  0  0  0  0  0  0
   16.9173   18.3828   22.2592 H   0  0  0  0  0  0  0  0  0  0  0  0
   18.7400   18.5425   21.0843 C   0  0  0  0  0  0  0  0  0  0  0  0
   18.7608   17.4832   20.7964 H   0  0  0  0  0  0  0  0  0  0  0  0
   18.1850   19.0551   20.2869 H   0  0  0  0  0  0  0  0  0  0  0  0
   20.1878   19.0954   21.1156 C   0  0  0  0  0  0  0  0  0  0  0  0
   20.6738   18.8571   20.1595 H   0  0  0  0  0  0  0  0  0  0  0  0
   20.7725   18.5854   21.8926 H   0  0  0  0  0  0  0  0  0  0  0  0
   20.2614   20.6278   21.3417 C   0  0  0  0  0  0  0  0  0  0  0  0
   19.6412   21.1503   20.6037 H   0  0  0  0  0  0  0  0  0  0  0  0
   19.8779   20.8890   22.3345 H   0  0  0  0  0  0  0  0  0  0  0  0
   21.6814   21.1722   21.2346 C   0  0  0  0  0  0  0  0  0  0  0  0
   22.3494   21.2397   22.2475 O   0  5  0  0  0  0  0  0  0  0  0  0
   22.0877   21.5014   20.1375 O   0  0  0  0  0  0  0  0  0  0  0  0
  1  2  1  0  0  0  0
  1  3  1  0  0  0  0
  1  4  2  0  0  0  0
  4  5  1  0  0  0  0
  4  6  1  0  0  0  0
  6  7  1  0  0  0  0
  6  8  1  0  0  0  0
  6  9  1  0  0  0  0
  9 10  1  0  0  0  0
  9 11  1  0  0  0  0
  9 12  1  0  0  0  0
 12 13  1  0  0  0  0
 12 14  1  0  0  0  0
 12 15  1  0  0  0  0
 15 16  1  0  0  0  0
 15 17  1  0  0  0  0
 15 18  1  0  0  0  0
 18 19  1  0  0  0  0
 18 20  2  0  0  0  0
M  END
> <VConfSearch Rank>
835

> <Conf_Id>
64

> <Delta U+W>
0.366

> <U+W>
-51.379

> <U>
10.000

> <W>
-61.379

> <W(PB)>
-63.541

> <W(SA)>
2.162

> <Valence>
9.398

> <Coulomb>
-0.504

> <VdW>
1.105

> <VdW6>
-7.975

> <VdW12>
9.080

> <Bond>
0.216

> <Angle>
3.417

> <Pdih>
5.765

> <Idih>
0.001

> <Tether>
0.000

$$$$
VeraChem MOL file


 20 19  0  0  0  0  0  0  0  0999 V2000     
   22.6944   18.7896   20.9247 C   0  0  0  0  0  0  0  0  0  0  0  0
   22.2599   18.2660   20.0748 H   0  0  0  0  0  0  0  0  0  0  0  0
   23.6292   18.4030   21.3269 H   0  0  0  0  0  0  0  0  0  0  0  0
   22.1046   19.8625   21.4585 C   0  0  0  0  0  0  0  0  0  0  0  0
   22.5549   20.3708   22.3108 H   0  0  0  0  0  0  0  0  0  0  0  0
   20.8062   20.4565   20.9552 C   0  0  0  0  0  0  0  0  0  0  0  0
   20.5312   20.0193   19.9857 H   0  0  0  0  0  0  0  0  0  0  0  0
   20.9472   21.5316   20.7812 H   0  0  0  0  0  0  0  0  0  0  0  0
   19.6457   20.2617   21.9568 C   0  0  0  0  0  0  0  0  0  0  0  0
   19.9211   20.6984   22.9266 H   0  0  0  0  0  0  0  0  0  0  0  0
   18.7700   20.8197   21.5979 H   0  0  0  0  0  0  0  0  0  0  0  0
   19.2606   18.7761   22.1418 C   0  0  0  0  0  0  0  0  0  0  0  0
   20.1213   18.2117   22.5264 H   0  0  0  0  0  0  0  0  0  0  0  0
   19.0020   18.3369   21.1684 H   0  0  0  0  0  0  0  0  0  0  0  0
   18.0670   18.6068   23.1137 C   0  0  0  0  0  0  0  0  0  0  0  0
   18.3149   19.0298   24.0946 H   0  0  0  0  0  0  0  0  0  0  0  0
   17.1920   19.1504   22.7376 H   0  0  0  0  0  0  0  0  0  0  0  0
   17.6682   17.1490   23.3130 C   0  0  0  0  0  0  0  0  0  0  0  0
   16.8599   16.6654   22.5452 O   0  5  0  0  0  0  0  0  0  0  0  0
   18.1867   16.5313   24.2220 O   0  0  0  0  0  0  0  0  0  0  0  0
  1  2  1  0  0  0  0
  1  3  1  0  0  0  0
  1  4  2  0  0  0  0
  4  5  1  0  0  0  0
  4  6  1  0  0  0  0
  6  7  1  0  0  0  0
  6  8  1  0  0  0  0
  6  9  1  0  0  0  0
  9 10  1  0  0  0  0
  9 11  1  0  0  0  0
  9 12  1  0  0  0  0
 12 13  1  0  0  0  0
 12 14  1  0  0  0  0
 12 15  1  0  0  0  0
 15 16  1  0  0  0  0
 15 17  1  0  0  0  0
 15 18  1  0  0  0  0
 18 19  1  0  0  0  0
 18 20  2  0  0  0  0
M  END
> <VConfSearch Rank>
836

> <Conf_Id>
42

> <Delta U+W>
-0.601

> <U+W>
-52.347

> <U>
8.428

> <W>
-60.774

> <W(PB)>
-62.982

> <W(SA)>
2.208

> <Valence>
9.231

> <Coulomb>
-1.304

> <VdW>
0.501

> <VdW6>
-6.515

> <VdW12>
7.016

> <Bond>
0.103

> <Angle>
2.328

> <Pdih>
6.799

> <Idih>
0.000

> <Tether>
0.000

$$$$
VeraChem MOL file


 20 19  0  0  0  0  0  0  0  0999 V2000     
   18.3247   21.9012   21.6453 C   0  0  0  0  0  0  0  0  0  0  0  0
   17.3558   21.4599   21.4173 H   0  0  0  0  0  0  0  0  0  0  0  0
   18.6144   22.7899   21.0872 H   0  0  0  0  0  0  0  0  0  0  0  0
   19.1312   21.3735   22.5700 C   0  0  0  0  0  0  0  0  0  0  0  0
   20.0983   21.8291   22.7810 H   0  0  0  0  0  0  0  0  0  0  0  0
   18.7984   20.1410   23.3837 C   0  0  0  0  0  0  0  0  0  0  0  0
   17.7434   19.8647   23.2533 H   0  0  0  0  0  0  0  0  0  0  0  0
   18.9294   20.3688   24.4499 H   0  0  0  0  0  0  0  0  0  0  0  0
   19.6964   18.9379   23.0175 C   0  0  0  0  0  0  0  0  0  0  0  0
   20.7509   19.2144   23.1551 H   0  0  0  0  0  0  0  0  0  0  0  0
   19.4942   18.1169   23.7187 H   0  0  0  0  0  0  0  0  0  0  0  0
   19.4658   18.4396   21.5711 C   0  0  0  0  0  0  0  0  0  0  0  0
   19.7050   19.2389   20.8561 H   0  0  0  0  0  0  0  0  0  0  0  0
   18.4019   18.2034   21.4352 H   0  0  0  0  0  0  0  0  0  0  0  0
   20.3089   17.1830   21.2323 C   0  0  0  0  0  0  0  0  0  0  0  0
   20.1006   16.3813   21.9511 H   0  0  0  0  0  0  0  0  0  0  0  0
   20.0223   16.8053   20.2437 H   0  0  0  0  0  0  0  0  0  0  0  0
   21.8138   17.4349   21.2067 C   0  0  0  0  0  0  0  0  0  0  0  0
   22.4765   17.0602   22.1542 O   0  5  0  0  0  0  0  0  0  0  0  0
   22.2860   17.9835   20.2304 O   0  0  0  0  0  0  0  0  0  0  0  0
  1  2  1  0  0  0  0
  1  3  1  0  0  0  0
  1  4  2  0  0  0  0
  4  5  1  0  0  0  0
  4  6  1  0  0  0  0
  6  7  1  0  0  0  0
  6  8  1  0  0  0  0
  6  9  1  0  0  0  0
  9 10  1  0  0  0  0
  9 11  1  0  0  0  0
  9 12  1  0  0  0  0
 12 13  1  0  0  0  0
 12 14  1  0  0  0  0
 12 15  1  0  0  0  0
 15 16  1  0  0  0  0
 15 17  1  0  0  0  0
 15 18  1  0  0  0  0
 18 19  1  0  0  0  0
 18 20  2  0  0  0  0
M  END
> <VConfSearch Rank>
837

> <Conf_Id>
68

> <Delta U+W>
0.492

> <U+W>
-51.253

> <U>
10.179

> <W>
-61.432

> <W(PB)>
-63.627

> <W(SA)>
2.195

> <Valence>
9.483

> <Coulomb>
0.361

> <VdW>
0.335

> <VdW6>
-7.385

> <VdW12>
7.720

> <Bond>
0.125

> <Angle>
2.487

> <Pdih>
6.870

> <Idih>
0.001

> <Tether>
0.000

$$$$
VeraChem MOL file


 20 19  0  0  0  0  0  0  0  0999 V2000     
   21.6433   21.6073   22.9357 C   0  0  0  0  0  0  0  0  0  0  0  0
   22.6088   21.1059   22.9772 H   0  0  0  0  0  0  0  0  0  0  0  0
   21.4787   22.4353   23.6231 H   0  0  0  0  0  0  0  0  0  0  0  0
   20.6938   21.2224   22.0790 C   0  0  0  0  0  0  0  0  0  0  0  0
   19.7353   21.7400   22.0523 H   0  0  0  0  0  0  0  0  0  0  0  0
   20.8531   20.0858   21.0918 C   0  0  0  0  0  0  0  0  0  0  0  0
   21.9198   19.8666   20.9481 H   0  0  0  0  0  0  0  0  0  0  0  0
   20.4662   20.3869   20.1091 H   0  0  0  0  0  0  0  0  0  0  0  0
   20.1415   18.7963   21.5599 C   0  0  0  0  0  0  0  0  0  0  0  0
   20.4012   17.9792   20.8731 H   0  0  0  0  0  0  0  0  0  0  0  0
   20.5254   18.5080   22.5484 H   0  0  0  0  0  0  0  0  0  0  0  0
   18.6024   18.9444   21.6137 C   0  0  0  0  0  0  0  0  0  0  0  0
   18.2362   19.2804   20.6343 H   0  0  0  0  0  0  0  0  0  0  0  0
   18.3241   19.7206   22.3396 H   0  0  0  0  0  0  0  0  0  0  0  0
   17.8902   17.6191   21.9896 C   0  0  0  0  0  0  0  0  0  0  0  0
   16.8052   17.7482   21.9000 H   0  0  0  0  0  0  0  0  0  0  0  0
   18.1741   16.8240   21.2896 H   0  0  0  0  0  0  0  0  0  0  0  0
   18.1779   17.1423   23.4104 C   0  0  0  0  0  0  0  0  0  0  0  0
   17.5974   17.6906   24.3266 O   0  5  0  0  0  0  0  0  0  0  0  0
   18.9590   16.2236   23.5625 O   0  0  0  0  0  0  0  0  0  0  0  0
  1  2  1  0  0  0  0
  1  3  1  0  0  0  0
  1  4  2  0  0  0  0
  4  5  1  0  0  0  0
  4  6  1  0  0  0  0
  6  7  1  0  0  0  0
  6  8  1  0  0  0  0
  6  9  1  0  0  0  0
  9 10  1  0  0  0  0
  9 11  1  0  0  0  0
  9 12  1  0  0  0  0
 12 13  1  0  0  0  0
 12 14  1  0  0  0  0
 12 15  1  0  0  0  0
 15 16  1  0  0  0  0
 15 17  1  0  0  0  0
 15 18  1  0  0  0  0
 18 19  1  0  0  0  0
 18 20  2  0  0  0  0
M  END
> <VConfSearch Rank>
838

> <Conf_Id>
87

> <Delta U+W>
0.339

> <U+W>
-51.407

> <U>
10.461

> <W>
-61.867

> <W(PB)>
-64.045

> <W(SA)>
2.178

> <Valence>
9.555

> <Coulomb>
0.483

> <VdW>
0.423

> <VdW6>
-7.223

> <VdW12>
7.646

> <Bond>
0.126

> <Angle>
2.492

> <Pdih>
6.936

> <Idih>
0.001

> <Tether>
0.000

$$$$
VeraChem MOL file


 20 19  0  0  0  0  0  0  0  0999 V2000     
   20.6084   17.0335   23.7997 C   0  0  0  0  0  0  0  0  0  0  0  0
   21.6522   17.3270   23.8978 H   0  0  0  0  0  0  0  0  0  0  0  0
   20.1078   16.6536   24.6885 H   0  0  0  0  0  0  0  0  0  0  0  0
   19.9638   17.1369   22.6345 C   0  0  0  0  0  0  0  0  0  0  0  0
   18.9218   16.8296   22.5540 H   0  0  0  0  0  0  0  0  0  0  0  0
   20.6002   17.6437   21.3579 C   0  0  0  0  0  0  0  0  0  0  0  0
   20.0154   17.3200   20.4867 H   0  0  0  0  0  0  0  0  0  0  0  0
   21.5850   17.1697   21.2483 H   0  0  0  0  0  0  0  0  0  0  0  0
   20.7896   19.1807   21.3279 C   0  0  0  0  0  0  0  0  0  0  0  0
   21.2070   19.5266   22.2834 H   0  0  0  0  0  0  0  0  0  0  0  0
   21.5475   19.4121   20.5671 H   0  0  0  0  0  0  0  0  0  0  0  0
   19.5137   19.9887   20.9808 C   0  0  0  0  0  0  0  0  0  0  0  0
   19.0915   19.6307   20.0318 H   0  0  0  0  0  0  0  0  0  0  0  0
   19.8039   21.0351   20.8126 H   0  0  0  0  0  0  0  0  0  0  0  0
   18.4206   19.9563   22.0796 C   0  0  0  0  0  0  0  0  0  0  0  0
   17.9984   18.9508   22.1730 H   0  0  0  0  0  0  0  0  0  0  0  0
   18.8518   20.2222   23.0521 H   0  0  0  0  0  0  0  0  0  0  0  0
   17.2686   20.9128   21.7940 C   0  0  0  0  0  0  0  0  0  0  0  0
   16.3358   20.5059   21.1297 O   0  5  0  0  0  0  0  0  0  0  0  0
   17.3435   22.0464   22.2253 O   0  0  0  0  0  0  0  0  0  0  0  0
  1  2  1  0  0  0  0
  1  3  1  0  0  0  0
  1  4  2  0  0  0  0
  4  5  1  0  0  0  0
  4  6  1  0  0  0  0
  6  7  1  0  0  0  0
  6  8  1  0  0  0  0
  6  9  1  0  0  0  0
  9 10  1  0  0  0  0
  9 11  1  0  0  0  0
  9 12  1  0  0  0  0
 12 13  1  0  0  0  0
 12 14  1  0  0  0  0
 12 15  1  0  0  0  0
 15 16  1  0  0  0  0
 15 17  1  0  0  0  0
 15 18  1  0  0  0  0
 18 19  1  0  0  0  0
 18 20  2  0  0  0  0
M  END
> <VConfSearch Rank>
839

> <Conf_Id>
51

> <Delta U+W>
1.709

> <U+W>
-50.036

> <U>
10.643

> <W>
-60.679

> <W(PB)>
-62.882

> <W(SA)>
2.203

> <Valence>
11.231

> <Coulomb>
-1.077

> <VdW>
0.489

> <VdW6>
-7.546

> <VdW12>
8.035

> <Bond>
0.159

> <Angle>
3.005

> <Pdih>
8.065

> <Idih>
0.002

> <Tether>
0.000

$$$$
VeraChem MOL file


 20 19  0  0  0  0  0  0  0  0999 V2000     
   20.8806   21.1481   23.4599 C   0  0  0  0  0  0  0  0  0  0  0  0
   20.4152   21.0572   24.4400 H   0  0  0  0  0  0  0  0  0  0  0  0
   21.1329   22.1492   23.1146 H   0  0  0  0  0  0  0  0  0  0  0  0
   21.1310   20.0738   22.7070 C   0  0  0  0  0  0  0  0  0  0  0  0
   21.6056   20.1844   21.7327 H   0  0  0  0  0  0  0  0  0  0  0  0
   20.8188   18.6539   23.1287 C   0  0  0  0  0  0  0  0  0  0  0  0
   21.1484   18.5193   24.1678 H   0  0  0  0  0  0  0  0  0  0  0  0
   21.4080   17.9424   22.5349 H   0  0  0  0  0  0  0  0  0  0  0  0
   19.3137   18.2984   23.0415 C   0  0  0  0  0  0  0  0  0  0  0  0
   19.1378   17.4191   23.6759 H   0  0  0  0  0  0  0  0  0  0  0  0
   18.7108   19.1079   23.4752 H   0  0  0  0  0  0  0  0  0  0  0  0
   18.8047   17.9599   21.6177 C   0  0  0  0  0  0  0  0  0  0  0  0
   17.7871   17.5540   21.7032 H   0  0  0  0  0  0  0  0  0  0  0  0
   19.4187   17.1599   21.1818 H   0  0  0  0  0  0  0  0  0  0  0  0
   18.7671   19.1704   20.6499 C   0  0  0  0  0  0  0  0  0  0  0  0
   18.2355   20.0103   21.1129 H   0  0  0  0  0  0  0  0  0  0  0  0
   19.7815   19.5117   20.4209 H   0  0  0  0  0  0  0  0  0  0  0  0
   18.0824   18.8469   19.3270 C   0  0  0  0  0  0  0  0  0  0  0  0
   18.7605   18.3972   18.4244 O   0  5  0  0  0  0  0  0  0  0  0  0
   16.8847   19.0338   19.2400 O   0  0  0  0  0  0  0  0  0  0  0  0
  1  2  1  0  0  0  0
  1  3  1  0  0  0  0
  1  4  2  0  0  0  0
  4  5  1  0  0  0  0
  4  6  1  0  0  0  0
  6  7  1  0  0  0  0
  6  8  1  0  0  0  0
  6  9  1  0  0  0  0
  9 10  1  0  0  0  0
  9 11  1  0  0  0  0
  9 12  1  0  0  0  0
 12 13  1  0  0  0  0
 12 14  1  0  0  0  0
 12 15  1  0  0  0  0
 15 16  1  0  0  0  0
 15 17  1  0  0  0  0
 15 18  1  0  0  0  0
 18 19  1  0  0  0  0
 18 20  2  0  0  0  0
M  END
> <VConfSearch Rank>
840

> <Conf_Id>
91

> <Delta U+W>
1.604

> <U+W>
-50.141

> <U>
10.644

> <W>
-60.786

> <W(PB)>
-62.965

> <W(SA)>
2.179

> <Valence>
11.230

> <Coulomb>
-1.075

> <VdW>
0.489

> <VdW6>
-7.547

> <VdW12>
8.036

> <Bond>
0.159

> <Angle>
3.006

> <Pdih>
8.064

> <Idih>
0.002

> <Tether>
0.000

$$$$
VeraChem MOL file


 20 19  0  0  0  0  0  0  0  0999 V2000     
   21.4712   18.3248   18.6612 C   0  0  0  0  0  0  0  0  0  0  0  0
   20.6330   17.6794   18.4034 H   0  0  0  0  0  0  0  0  0  0  0  0
   22.4029   18.1768   18.1179 H   0  0  0  0  0  0  0  0  0  0  0  0
   21.3655   19.2609   19.6079 C   0  0  0  0  0  0  0  0  0  0  0  0
   22.2170   19.8961   19.8513 H   0  0  0  0  0  0  0  0  0  0  0  0
   20.1058   19.5248   20.4024 C   0  0  0  0  0  0  0  0  0  0  0  0
   19.2456   19.0364   19.9245 H   0  0  0  0  0  0  0  0  0  0  0  0
   19.8941   20.6024   20.4084 H   0  0  0  0  0  0  0  0  0  0  0  0
   20.2450   19.0165   21.8526 C   0  0  0  0  0  0  0  0  0  0  0  0
   20.4608   17.9391   21.8408 H   0  0  0  0  0  0  0  0  0  0  0  0
   21.1027   19.5085   22.3315 H   0  0  0  0  0  0  0  0  0  0  0  0
   18.9676   19.2807   22.6793 C   0  0  0  0  0  0  0  0  0  0  0  0
   18.1093   18.7885   22.2012 H   0  0  0  0  0  0  0  0  0  0  0  0
   18.7505   20.3579   22.6905 H   0  0  0  0  0  0  0  0  0  0  0  0
   19.1077   18.7687   24.1376 C   0  0  0  0  0  0  0  0  0  0  0  0
   19.3181   17.6928   24.1341 H   0  0  0  0  0  0  0  0  0  0  0  0
   19.9587   19.2607   24.6231 H   0  0  0  0  0  0  0  0  0  0  0  0
   17.8839   18.9912   25.0276 C   0  0  0  0  0  0  0  0  0  0  0  0
   17.9566   18.6045   26.1771 O   0  5  0  0  0  0  0  0  0  0  0  0
   16.8970   19.5352   24.5707 O   0  0  0  0  0  0  0  0  0  0  0  0
  1  2  1  0  0  0  0
  1  3  1  0  0  0  0
  1  4  2  0  0  0  0
  4  5  1  0  0  0  0
  4  6  1  0  0  0  0
  6  7  1  0  0  0  0
  6  8  1  0  0  0  0
  6  9  1  0  0  0  0
  9 10  1  0  0  0  0
  9 11  1  0  0  0  0
  9 12  1  0  0  0  0
 12 13  1  0  0  0  0
 12 14  1  0  0  0  0
 12 15  1  0  0  0  0
 15 16  1  0  0  0  0
 15 17  1  0  0  0  0
 15 18  1  0  0  0  0
 18 19  1  0  0  0  0
 18 20  2  0  0  0  0
M  END
> <VConfSearch Rank>
841

> <Conf_Id>
33

> <Delta U+W>
0.000

> <U+W>
-51.745

> <U>
7.593

> <W>
-59.338

> <W(PB)>
-61.574

> <W(SA)>
2.236

> <Valence>
9.570

> <Coulomb>
-3.091

> <VdW>
1.114

> <VdW6>
-6.064

> <VdW12>
7.178

> <Bond>
0.117

> <Angle>
2.692

> <Pdih>
6.761

> <Idih>
0.000

> <Tether>
0.000

$$$$
VeraChem MOL file


 20 19  0  0  0  0  0  0  0  0999 V2000     
   21.9300   17.3839   24.2316 C   0  0  0  0  0  0  0  0  0  0  0  0
   21.3701   17.8183   25.0583 H   0  0  0  0  0  0  0  0  0  0  0  0
   22.8712   16.8906   24.4683 H   0  0  0  0  0  0  0  0  0  0  0  0
   21.4844   17.4534   22.9745 C   0  0  0  0  0  0  0  0  0  0  0  0
   22.0605   17.0128   22.1611 H   0  0  0  0  0  0  0  0  0  0  0  0
   20.1885   18.1204   22.5699 C   0  0  0  0  0  0  0  0  0  0  0  0
   19.5625   18.3014   23.4541 H   0  0  0  0  0  0  0  0  0  0  0  0
   19.6249   17.4440   21.9150 H   0  0  0  0  0  0  0  0  0  0  0  0
   20.4561   19.4591   21.8460 C   0  0  0  0  0  0  0  0  0  0  0  0
   21.0924   20.0859   22.4860 H   0  0  0  0  0  0  0  0  0  0  0  0
   21.0278   19.2742   20.9263 H   0  0  0  0  0  0  0  0  0  0  0  0
   19.1676   20.2467   21.5087 C   0  0  0  0  0  0  0  0  0  0  0  0
   19.4506   21.2278   21.1027 H   0  0  0  0  0  0  0  0  0  0  0  0
   18.6012   20.4439   22.4294 H   0  0  0  0  0  0  0  0  0  0  0  0
   18.2537   19.5280   20.4824 C   0  0  0  0  0  0  0  0  0  0  0  0
   18.8199   19.2873   19.5747 H   0  0  0  0  0  0  0  0  0  0  0  0
   17.8794   18.5835   20.8929 H   0  0  0  0  0  0  0  0  0  0  0  0
   17.0474   20.3680   20.0784 C   0  0  0  0  0  0  0  0  0  0  0  0
   16.0330   20.2710   20.7404 O   0  5  0  0  0  0  0  0  0  0  0  0
   17.1601   21.1119   19.1242 O   0  0  0  0  0  0  0  0  0  0  0  0
  1  2  1  0  0  0  0
  1  3  1  0  0  0  0
  1  4  2  0  0  0  0
  4  5  1  0  0  0  0
  4  6  1  0  0  0  0
  6  7  1  0  0  0  0
  6  8  1  0  0  0  0
  6  9  1  0  0  0  0
  9 10  1  0  0  0  0
  9 11  1  0  0  0  0
  9 12  1  0  0  0  0
 12 13  1  0  0  0  0
 12 14  1  0  0  0  0
 12 15  1  0  0  0  0
 15 16  1  0  0  0  0
 15 17  1  0  0  0  0
 15 18  1  0  0  0  0
 18 19  1  0  0  0  0
 18 20  2  0  0  0  0
M  END
> <VConfSearch Rank>
842

> <Conf_Id>
37

> <Delta U+W>
-0.384

> <U+W>
-52.130

> <U>
7.491

> <W>
-59.621

> <W(PB)>
-61.853

> <W(SA)>
2.232

> <Valence>
9.604

> <Coulomb>
-2.799

> <VdW>
0.686

> <VdW6>
-6.435

> <VdW12>
7.121

> <Bond>
0.124

> <Angle>
2.493

> <Pdih>
6.986

> <Idih>
0.001

> <Tether>
0.000

$$$$
VeraChem MOL file


 20 19  0  0  0  0  0  0  0  0999 V2000     
   21.3654   17.2934   19.5002 C   0  0  0  0  0  0  0  0  0  0  0  0
   21.8636   16.7232   18.7181 H   0  0  0  0  0  0  0  0  0  0  0  0
   21.9270   18.1129   19.9436 H   0  0  0  0  0  0  0  0  0  0  0  0
   20.1213   16.9849   19.8836 C   0  0  0  0  0  0  0  0  0  0  0  0
   19.6095   16.1521   19.4018 H   0  0  0  0  0  0  0  0  0  0  0  0
   19.3010   17.6843   20.9546 C   0  0  0  0  0  0  0  0  0  0  0  0
   19.0061   16.9454   21.7118 H   0  0  0  0  0  0  0  0  0  0  0  0
   18.3633   18.0385   20.5057 H   0  0  0  0  0  0  0  0  0  0  0  0
   20.0091   18.8695   21.6515 C   0  0  0  0  0  0  0  0  0  0  0  0
   20.9380   18.5175   22.1208 H   0  0  0  0  0  0  0  0  0  0  0  0
   20.2884   19.6224   20.9016 H   0  0  0  0  0  0  0  0  0  0  0  0
   19.1098   19.5234   22.7233 C   0  0  0  0  0  0  0  0  0  0  0  0
   18.8268   18.7751   23.4767 H   0  0  0  0  0  0  0  0  0  0  0  0
   18.1785   19.8777   22.2600 H   0  0  0  0  0  0  0  0  0  0  0  0
   19.8167   20.7106   23.4226 C   0  0  0  0  0  0  0  0  0  0  0  0
   20.7426   20.3709   23.9022 H   0  0  0  0  0  0  0  0  0  0  0  0
   20.0943   21.4736   22.6854 H   0  0  0  0  0  0  0  0  0  0  0  0
   18.9483   21.3733   24.4859 C   0  0  0  0  0  0  0  0  0  0  0  0
   19.0075   20.9470   25.6223 O   0  5  0  0  0  0  0  0  0  0  0  0
   18.2210   22.2854   24.1457 O   0  0  0  0  0  0  0  0  0  0  0  0
  1  2  1  0  0  0  0
  1  3  1  0  0  0  0
  1  4  2  0  0  0  0
  4  5  1  0  0  0  0
  4  6  1  0  0  0  0
  6  7  1  0  0  0  0
  6  8  1  0  0  0  0
  6  9  1  0  0  0  0
  9 10  1  0  0  0  0
  9 11  1  0  0  0  0
  9 12  1  0  0  0  0
 12 13  1  0  0  0  0
 12 14  1  0  0  0  0
 12 15  1  0  0  0  0
 15 16  1  0  0  0  0
 15 17  1  0  0  0  0
 15 18  1  0  0  0  0
 18 19  1  0  0  0  0
 18 20  2  0  0  0  0
M  END
> <VConfSearch Rank>
843

> <Conf_Id>
44

> <Delta U+W>
-1.440

> <U+W>
-53.185

> <U>
6.572

> <W>
-59.757

> <W(PB)>
-62.007

> <W(SA)>
2.249

> <Valence>
7.989

> <Coulomb>
-2.697

> <VdW>
1.281

> <VdW6>
-6.467

> <VdW12>
7.748

> <Bond>
0.136

> <Angle>
2.854

> <Pdih>
4.997

> <Idih>
0.001

> <Tether>
0.000

$$$$
VeraChem MOL file


 20 19  0  0  0  0  0  0  0  0999 V2000     
   20.0783   21.5797   19.5716 C   0  0  0  0  0  0  0  0  0  0  0  0
   20.1325   22.1826   20.4766 H   0  0  0  0  0  0  0  0  0  0  0  0
   19.9140   22.1022   18.6307 H   0  0  0  0  0  0  0  0  0  0  0  0
   20.2051   20.2507   19.6099 C   0  0  0  0  0  0  0  0  0  0  0  0
   20.1471   19.6656   18.6923 H   0  0  0  0  0  0  0  0  0  0  0  0
   20.4360   19.4572   20.8768 C   0  0  0  0  0  0  0  0  0  0  0  0
   20.7479   20.1297   21.6862 H   0  0  0  0  0  0  0  0  0  0  0  0
   21.2586   18.7469   20.7197 H   0  0  0  0  0  0  0  0  0  0  0  0
   19.1604   18.6897   21.2913 C   0  0  0  0  0  0  0  0  0  0  0  0
   18.3531   19.4048   21.5012 H   0  0  0  0  0  0  0  0  0  0  0  0
   18.8211   18.0797   20.4428 H   0  0  0  0  0  0  0  0  0  0  0  0
   19.3667   17.7630   22.5132 C   0  0  0  0  0  0  0  0  0  0  0  0
   20.1673   17.0410   22.3010 H   0  0  0  0  0  0  0  0  0  0  0  0
   18.4515   17.1746   22.6671 H   0  0  0  0  0  0  0  0  0  0  0  0
   19.6925   18.5279   23.8223 C   0  0  0  0  0  0  0  0  0  0  0  0
   20.6495   19.0544   23.7347 H   0  0  0  0  0  0  0  0  0  0  0  0
   18.9223   19.2826   24.0215 H   0  0  0  0  0  0  0  0  0  0  0  0
   19.7788   17.6089   25.0355 C   0  0  0  0  0  0  0  0  0  0  0  0
   18.7641   17.4010   25.6710 O   0  5  0  0  0  0  0  0  0  0  0  0
   20.8542   17.1092   25.3015 O   0  0  0  0  0  0  0  0  0  0  0  0
  1  2  1  0  0  0  0
  1  3  1  0  0  0  0
  1  4  2  0  0  0  0
  4  5  1  0  0  0  0
  4  6  1  0  0  0  0
  6  7  1  0  0  0  0
  6  8  1  0  0  0  0
  6  9  1  0  0  0  0
  9 10  1  0  0  0  0
  9 11  1  0  0  0  0
  9 12  1  0  0  0  0
 12 13  1  0  0  0  0
 12 14  1  0  0  0  0
 12 15  1  0  0  0  0
 15 16  1  0  0  0  0
 15 17  1  0  0  0  0
 15 18  1  0  0  0  0
 18 19  1  0  0  0  0
 18 20  2  0  0  0  0
M  END
> <VConfSearch Rank>
844

> <Conf_Id>
38

> <Delta U+W>
-0.381

> <U+W>
-52.126

> <U>
7.601

> <W>
-59.727

> <W(PB)>
-61.964

> <W(SA)>
2.236

> <Valence>
9.602

> <Coulomb>
-2.686

> <VdW>
0.685

> <VdW6>
-6.453

> <VdW12>
7.139

> <Bond>
0.125

> <Angle>
2.485

> <Pdih>
6.991

> <Idih>
0.001

> <Tether>
0.000

$$$$
VeraChem MOL file


 20 19  0  0  0  0  0  0  0  0999 V2000     
   17.0569   17.8240   20.1257 C   0  0  0  0  0  0  0  0  0  0  0  0
   16.5652   17.4140   21.0065 H   0  0  0  0  0  0  0  0  0  0  0  0
   16.4470   17.9761   19.2368 H   0  0  0  0  0  0  0  0  0  0  0  0
   18.3565   18.1319   20.1320 C   0  0  0  0  0  0  0  0  0  0  0  0
   18.8292   18.5422   19.2399 H   0  0  0  0  0  0  0  0  0  0  0  0
   19.2655   17.9480   21.3267 C   0  0  0  0  0  0  0  0  0  0  0  0
   20.1839   17.4334   21.0138 H   0  0  0  0  0  0  0  0  0  0  0  0
   18.7831   17.3062   22.0765 H   0  0  0  0  0  0  0  0  0  0  0  0
   19.6260   19.3051   21.9666 C   0  0  0  0  0  0  0  0  0  0  0  0
   20.1105   19.9442   21.2154 H   0  0  0  0  0  0  0  0  0  0  0  0
   18.7048   19.8190   22.2739 H   0  0  0  0  0  0  0  0  0  0  0  0
   20.5575   19.1353   23.1880 C   0  0  0  0  0  0  0  0  0  0  0  0
   21.4847   18.6309   22.8819 H   0  0  0  0  0  0  0  0  0  0  0  0
   20.0716   18.4829   23.9261 H   0  0  0  0  0  0  0  0  0  0  0  0
   20.9071   20.4866   23.8637 C   0  0  0  0  0  0  0  0  0  0  0  0
   19.9899   21.0155   24.1502 H   0  0  0  0  0  0  0  0  0  0  0  0
   21.4678   20.3004   24.7872 H   0  0  0  0  0  0  0  0  0  0  0  0
   21.7530   21.4136   22.9954 C   0  0  0  0  0  0  0  0  0  0  0  0
   21.2118   22.3707   22.4777 O   0  5  0  0  0  0  0  0  0  0  0  0
   22.9346   21.1591   22.8691 O   0  0  0  0  0  0  0  0  0  0  0  0
  1  2  1  0  0  0  0
  1  3  1  0  0  0  0
  1  4  2  0  0  0  0
  4  5  1  0  0  0  0
  4  6  1  0  0  0  0
  6  7  1  0  0  0  0
  6  8  1  0  0  0  0
  6  9  1  0  0  0  0
  9 10  1  0  0  0  0
  9 11  1  0  0  0  0
  9 12  1  0  0  0  0
 12 13  1  0  0  0  0
 12 14  1  0  0  0  0
 12 15  1  0  0  0  0
 15 16  1  0  0  0  0
 15 17  1  0  0  0  0
 15 18  1  0  0  0  0
 18 19  1  0  0  0  0
 18 20  2  0  0  0  0
M  END
> <VConfSearch Rank>
845

> <Conf_Id>
58

> <Delta U+W>
0.019

> <U+W>
-51.727

> <U>
8.963

> <W>
-60.690

> <W(PB)>
-62.934

> <W(SA)>
2.244

> <Valence>
9.327

> <Coulomb>
-0.780

> <VdW>
0.417

> <VdW6>
-6.635

> <VdW12>
7.052

> <Bond>
0.105

> <Angle>
2.399

> <Pdih>
6.822

> <Idih>
0.000

> <Tether>
0.000

$$$$
VeraChem MOL file


 20 19  0  0  0  0  0  0  0  0999 V2000     
   21.8595   18.9512   19.1858 C   0  0  0  0  0  0  0  0  0  0  0  0
   21.0256   19.0358   18.4909 H   0  0  0  0  0  0  0  0  0  0  0  0
   22.7715   18.4830   18.8192 H   0  0  0  0  0  0  0  0  0  0  0  0
   21.7707   19.4004   20.4404 C   0  0  0  0  0  0  0  0  0  0  0  0
   22.6169   19.3052   21.1204 H   0  0  0  0  0  0  0  0  0  0  0  0
   20.5394   20.0612   21.0191 C   0  0  0  0  0  0  0  0  0  0  0  0
   19.8463   20.3442   20.2151 H   0  0  0  0  0  0  0  0  0  0  0  0
   20.8267   20.9897   21.5304 H   0  0  0  0  0  0  0  0  0  0  0  0
   19.8198   19.1253   22.0128 C   0  0  0  0  0  0  0  0  0  0  0  0
   19.5382   18.1958   21.4989 H   0  0  0  0  0  0  0  0  0  0  0  0
   20.5143   18.8455   22.8170 H   0  0  0  0  0  0  0  0  0  0  0  0
   18.5601   19.7867   22.6161 C   0  0  0  0  0  0  0  0  0  0  0  0
   17.8794   20.0769   21.8043 H   0  0  0  0  0  0  0  0  0  0  0  0
   18.8398   20.7114   23.1400 H   0  0  0  0  0  0  0  0  0  0  0  0
   17.8055   18.8500   23.5949 C   0  0  0  0  0  0  0  0  0  0  0  0
   16.8633   19.3206   23.8995 H   0  0  0  0  0  0  0  0  0  0  0  0
   17.5438   17.9101   23.0940 H   0  0  0  0  0  0  0  0  0  0  0  0
   18.5846   18.5242   24.8660 C   0  0  0  0  0  0  0  0  0  0  0  0
   18.6601   19.3795   25.7261 O   0  5  0  0  0  0  0  0  0  0  0  0
   19.0856   17.4216   24.9677 O   0  0  0  0  0  0  0  0  0  0  0  0
  1  2  1  0  0  0  0
  1  3  1  0  0  0  0
  1  4  2  0  0  0  0
  4  5  1  0  0  0  0
  4  6  1  0  0  0  0
  6  7  1  0  0  0  0
  6  8  1  0  0  0  0
  6  9  1  0  0  0  0
  9 10  1  0  0  0  0
  9 11  1  0  0  0  0
  9 12  1  0  0  0  0
 12 13  1  0  0  0  0
 12 14  1  0  0  0  0
 12 15  1  0  0  0  0
 15 16  1  0  0  0  0
 15 17  1  0  0  0  0
 15 18  1  0  0  0  0
 18 19  1  0  0  0  0
 18 20  2  0  0  0  0
M  END
> <VConfSearch Rank>
846

> <Conf_Id>
54

> <Delta U+W>
-0.048

> <U+W>
-51.793

> <U>
8.964

> <W>
-60.756

> <W(PB)>
-63.007

> <W(SA)>
2.251

> <Valence>
9.327

> <Coulomb>
-0.780

> <VdW>
0.417

> <VdW6>
-6.635

> <VdW12>
7.052

> <Bond>
0.105

> <Angle>
2.399

> <Pdih>
6.822

> <Idih>
0.000

> <Tether>
0.000

$$$$
VeraChem MOL file


 20 19  0  0  0  0  0  0  0  0999 V2000     
   18.7954   22.2781   22.5264 C   0  0  0  0  0  0  0  0  0  0  0  0
   17.9328   22.7226   23.0198 H   0  0  0  0  0  0  0  0  0  0  0  0
   19.7540   22.7811   22.6430 H   0  0  0  0  0  0  0  0  0  0  0  0
   18.6787   21.1575   21.8092 C   0  0  0  0  0  0  0  0  0  0  0  0
   17.7091   20.6720   21.7024 H   0  0  0  0  0  0  0  0  0  0  0  0
   19.8305   20.4873   21.0908 C   0  0  0  0  0  0  0  0  0  0  0  0
   20.6467   21.2083   20.9472 H   0  0  0  0  0  0  0  0  0  0  0  0
   19.5151   20.1765   20.0859 H   0  0  0  0  0  0  0  0  0  0  0  0
   20.3787   19.2678   21.8657 C   0  0  0  0  0  0  0  0  0  0  0  0
   21.2915   18.9155   21.3659 H   0  0  0  0  0  0  0  0  0  0  0  0
   20.6763   19.5805   22.8760 H   0  0  0  0  0  0  0  0  0  0  0  0
   19.3619   18.1049   21.9551 C   0  0  0  0  0  0  0  0  0  0  0  0
   19.0530   17.8017   20.9451 H   0  0  0  0  0  0  0  0  0  0  0  0
   18.4568   18.4484   22.4730 H   0  0  0  0  0  0  0  0  0  0  0  0
   19.9291   16.8746   22.7099 C   0  0  0  0  0  0  0  0  0  0  0  0
   20.2731   17.1687   23.7089 H   0  0  0  0  0  0  0  0  0  0  0  0
   19.1334   16.1341   22.8534 H   0  0  0  0  0  0  0  0  0  0  0  0
   21.0763   16.1762   21.9853 C   0  0  0  0  0  0  0  0  0  0  0  0
   22.2063   16.3429   22.4005 O   0  5  0  0  0  0  0  0  0  0  0  0
   20.8073   15.4745   21.0301 O   0  0  0  0  0  0  0  0  0  0  0  0
  1  2  1  0  0  0  0
  1  3  1  0  0  0  0
  1  4  2  0  0  0  0
  4  5  1  0  0  0  0
  4  6  1  0  0  0  0
  6  7  1  0  0  0  0
  6  8  1  0  0  0  0
  6  9  1  0  0  0  0
  9 10  1  0  0  0  0
  9 11  1  0  0  0  0
  9 12  1  0  0  0  0
 12 13  1  0  0  0  0
 12 14  1  0  0  0  0
 12 15  1  0  0  0  0
 15 16  1  0  0  0  0
 15 17  1  0  0  0  0
 15 18  1  0  0  0  0
 18 19  1  0  0  0  0
 18 20  2  0  0  0  0
M  END
> <VConfSearch Rank>
847

> <Conf_Id>
27

> <Delta U+W>
0.478

> <U+W>
-51.267

> <U>
9.192

> <W>
-60.459

> <W(PB)>
-62.649

> <W(SA)>
2.190

> <Valence>
9.572

> <Coulomb>
-0.884

> <VdW>
0.504

> <VdW6>
-7.168

> <VdW12>
7.672

> <Bond>
0.127

> <Angle>
2.504

> <Pdih>
6.941

> <Idih>
0.001

> <Tether>
0.000

$$$$
VeraChem MOL file


 20 19  0  0  0  0  0  0  0  0999 V2000     
   17.1247   19.8359   20.0206 C   0  0  0  0  0  0  0  0  0  0  0  0
   16.2319   19.3372   20.3943 H   0  0  0  0  0  0  0  0  0  0  0  0
   17.1485   20.0955   18.9636 H   0  0  0  0  0  0  0  0  0  0  0  0
   18.1542   20.1171   20.8237 C   0  0  0  0  0  0  0  0  0  0  0  0
   19.0371   20.6196   20.4297 H   0  0  0  0  0  0  0  0  0  0  0  0
   18.1892   19.7925   22.3019 C   0  0  0  0  0  0  0  0  0  0  0  0
   17.1669   19.6309   22.6698 H   0  0  0  0  0  0  0  0  0  0  0  0
   18.5861   20.6486   22.8636 H   0  0  0  0  0  0  0  0  0  0  0  0
   19.0304   18.5327   22.6077 C   0  0  0  0  0  0  0  0  0  0  0  0
   18.9086   18.2753   23.6687 H   0  0  0  0  0  0  0  0  0  0  0  0
   18.6384   17.6836   22.0310 H   0  0  0  0  0  0  0  0  0  0  0  0
   20.5335   18.7247   22.3015 C   0  0  0  0  0  0  0  0  0  0  0  0
   20.9178   19.5901   22.8590 H   0  0  0  0  0  0  0  0  0  0  0  0
   20.6739   18.9443   21.2344 H   0  0  0  0  0  0  0  0  0  0  0  0
   21.3610   17.4693   22.6720 C   0  0  0  0  0  0  0  0  0  0  0  0
   21.2479   17.2418   23.7387 H   0  0  0  0  0  0  0  0  0  0  0  0
   20.9970   16.5982   22.1140 H   0  0  0  0  0  0  0  0  0  0  0  0
   22.8479   17.6328   22.3780 C   0  0  0  0  0  0  0  0  0  0  0  0
   23.2556   17.3037   21.2816 O   0  5  0  0  0  0  0  0  0  0  0  0
   23.5562   18.1014   23.2472 O   0  0  0  0  0  0  0  0  0  0  0  0
  1  2  1  0  0  0  0
  1  3  1  0  0  0  0
  1  4  2  0  0  0  0
  4  5  1  0  0  0  0
  4  6  1  0  0  0  0
  6  7  1  0  0  0  0
  6  8  1  0  0  0  0
  6  9  1  0  0  0  0
  9 10  1  0  0  0  0
  9 11  1  0  0  0  0
  9 12  1  0  0  0  0
 12 13  1  0  0  0  0
 12 14  1  0  0  0  0
 12 15  1  0  0  0  0
 15 16  1  0  0  0  0
 15 17  1  0  0  0  0
 15 18  1  0  0  0  0
 18 19  1  0  0  0  0
 18 20  2  0  0  0  0
M  END
> <VConfSearch Rank>
848

> <Conf_Id>
41

> <Delta U+W>
-0.634

> <U+W>
-52.379

> <U>
7.828

> <W>
-60.207

> <W(PB)>
-62.449

> <W(SA)>
2.242

> <Valence>
9.300

> <Coulomb>
-2.080

> <VdW>
0.608

> <VdW6>
-6.341

> <VdW12>
6.949

> <Bond>
0.103

> <Angle>
2.334

> <Pdih>
6.862

> <Idih>
0.001

> <Tether>
0.000

$$$$
VeraChem MOL file


 20 19  0  0  0  0  0  0  0  0999 V2000     
   19.3688   19.7411   18.8205 C   0  0  0  0  0  0  0  0  0  0  0  0
   19.7747   20.1538   17.8985 H   0  0  0  0  0  0  0  0  0  0  0  0
   18.4585   19.1484   18.7461 H   0  0  0  0  0  0  0  0  0  0  0  0
   19.9686   19.9540   19.9947 C   0  0  0  0  0  0  0  0  0  0  0  0
   20.8796   20.5497   20.0478 H   0  0  0  0  0  0  0  0  0  0  0  0
   19.4641   19.4150   21.3148 C   0  0  0  0  0  0  0  0  0  0  0  0
   18.4306   19.0585   21.2100 H   0  0  0  0  0  0  0  0  0  0  0  0
   19.4483   20.2278   22.0524 H   0  0  0  0  0  0  0  0  0  0  0  0
   20.3591   18.2620   21.8216 C   0  0  0  0  0  0  0  0  0  0  0  0
   20.4434   17.5045   21.0302 H   0  0  0  0  0  0  0  0  0  0  0  0
   21.3764   18.6373   21.9987 H   0  0  0  0  0  0  0  0  0  0  0  0
   19.8210   17.5784   23.1028 C   0  0  0  0  0  0  0  0  0  0  0  0
   20.4703   16.7266   23.3483 H   0  0  0  0  0  0  0  0  0  0  0  0
   18.8270   17.1583   22.8984 H   0  0  0  0  0  0  0  0  0  0  0  0
   19.7344   18.5121   24.3410 C   0  0  0  0  0  0  0  0  0  0  0  0
   19.0345   19.3351   24.1572 H   0  0  0  0  0  0  0  0  0  0  0  0
   19.3342   17.9494   25.1924 H   0  0  0  0  0  0  0  0  0  0  0  0
   21.0751   19.0982   24.7743 C   0  0  0  0  0  0  0  0  0  0  0  0
   21.8793   18.3568   25.3043 O   0  5  0  0  0  0  0  0  0  0  0  0
   21.2734   20.2826   24.5875 O   0  0  0  0  0  0  0  0  0  0  0  0
  1  2  1  0  0  0  0
  1  3  1  0  0  0  0
  1  4  2  0  0  0  0
  4  5  1  0  0  0  0
  4  6  1  0  0  0  0
  6  7  1  0  0  0  0
  6  8  1  0  0  0  0
  6  9  1  0  0  0  0
  9 10  1  0  0  0  0
  9 11  1  0  0  0  0
  9 12  1  0  0  0  0
 12 13  1  0  0  0  0
 12 14  1  0  0  0  0
 12 15  1  0  0  0  0
 15 16  1  0  0  0  0
 15 17  1  0  0  0  0
 15 18  1  0  0  0  0
 18 19  1  0  0  0  0
 18 20  2  0  0  0  0
M  END
> <VConfSearch Rank>
849

> <Conf_Id>
84

> <Delta U+W>
0.942

> <U+W>
-50.803

> <U>
10.196

> <W>
-60.999

> <W(PB)>
-63.182

> <W(SA)>
2.182

> <Valence>
9.837

> <Coulomb>
0.032

> <VdW>
0.328

> <VdW6>
-7.642

> <VdW12>
7.969

> <Bond>
0.151

> <Angle>
2.748

> <Pdih>
6.937

> <Idih>
0.001

> <Tether>
0.000

$$$$
VeraChem MOL file


 20 19  0  0  0  0  0  0  0  0999 V2000     
   21.6939   16.6423   23.1351 C   0  0  0  0  0  0  0  0  0  0  0  0
   22.4450   16.3261   23.8570 H   0  0  0  0  0  0  0  0  0  0  0  0
   20.8655   15.9621   22.9435 H   0  0  0  0  0  0  0  0  0  0  0  0
   21.7874   17.8205   22.5132 C   0  0  0  0  0  0  0  0  0  0  0  0
   22.6243   18.4872   22.7200 H   0  0  0  0  0  0  0  0  0  0  0  0
   20.7849   18.3260   21.4997 C   0  0  0  0  0  0  0  0  0  0  0  0
   20.1351   17.5057   21.1657 H   0  0  0  0  0  0  0  0  0  0  0  0
   21.3147   18.6919   20.6101 H   0  0  0  0  0  0  0  0  0  0  0  0
   19.9191   19.4590   22.0895 C   0  0  0  0  0  0  0  0  0  0  0  0
   19.3971   19.0880   22.9825 H   0  0  0  0  0  0  0  0  0  0  0  0
   20.5680   20.2816   22.4200 H   0  0  0  0  0  0  0  0  0  0  0  0
   18.8911   19.9894   21.0647 C   0  0  0  0  0  0  0  0  0  0  0  0
   18.2311   19.1720   20.7424 H   0  0  0  0  0  0  0  0  0  0  0  0
   19.4207   20.3401   20.1685 H   0  0  0  0  0  0  0  0  0  0  0  0
   18.0321   21.1510   21.6282 C   0  0  0  0  0  0  0  0  0  0  0  0
   18.6784   21.9645   21.9794 H   0  0  0  0  0  0  0  0  0  0  0  0
   17.4063   21.5653   20.8289 H   0  0  0  0  0  0  0  0  0  0  0  0
   17.1038   20.7398   22.7675 C   0  0  0  0  0  0  0  0  0  0  0  0
   17.4025   21.0652   23.8997 O   0  5  0  0  0  0  0  0  0  0  0  0
   16.0987   20.1155   22.4898 O   0  0  0  0  0  0  0  0  0  0  0  0
  1  2  1  0  0  0  0
  1  3  1  0  0  0  0
  1  4  2  0  0  0  0
  4  5  1  0  0  0  0
  4  6  1  0  0  0  0
  6  7  1  0  0  0  0
  6  8  1  0  0  0  0
  6  9  1  0  0  0  0
  9 10  1  0  0  0  0
  9 11  1  0  0  0  0
  9 12  1  0  0  0  0
 12 13  1  0  0  0  0
 12 14  1  0  0  0  0
 12 15  1  0  0  0  0
 15 16  1  0  0  0  0
 15 17  1  0  0  0  0
 15 18  1  0  0  0  0
 18 19  1  0  0  0  0
 18 20  2  0  0  0  0
M  END
> <VConfSearch Rank>
850

> <Conf_Id>
81

> <Delta U+W>
-0.051

> <U+W>
-51.796

> <U>
9.412

> <W>
-61.209

> <W(PB)>
-63.452

> <W(SA)>
2.243

> <Valence>
9.329

> <Coulomb>
-0.323

> <VdW>
0.406

> <VdW6>
-6.640

> <VdW12>
7.046

> <Bond>
0.105

> <Angle>
2.401

> <Pdih>
6.823

> <Idih>
0.000

> <Tether>
0.000

$$$$
VeraChem MOL file


 20 19  0  0  0  0  0  0  0  0999 V2000     
   17.1309   17.0420   22.0691 C   0  0  0  0  0  0  0  0  0  0  0  0
   16.2234   17.6420   22.0251 H   0  0  0  0  0  0  0  0  0  0  0  0
   17.0397   15.9788   21.8536 H   0  0  0  0  0  0  0  0  0  0  0  0
   18.3123   17.5859   22.3724 C   0  0  0  0  0  0  0  0  0  0  0  0
   19.2083   16.9671   22.4135 H   0  0  0  0  0  0  0  0  0  0  0  0
   18.5149   19.0524   22.6885 C   0  0  0  0  0  0  0  0  0  0  0  0
   19.1598   19.1621   23.5699 H   0  0  0  0  0  0  0  0  0  0  0  0
   17.5539   19.5081   22.9625 H   0  0  0  0  0  0  0  0  0  0  0  0
   19.1081   19.8379   21.4944 C   0  0  0  0  0  0  0  0  0  0  0  0
   18.4044   19.7859   20.6524 H   0  0  0  0  0  0  0  0  0  0  0  0
   19.1784   20.8999   21.7668 H   0  0  0  0  0  0  0  0  0  0  0  0
   20.4964   19.3399   21.0163 C   0  0  0  0  0  0  0  0  0  0  0  0
   20.8094   19.9449   20.1543 H   0  0  0  0  0  0  0  0  0  0  0  0
   20.4090   18.3092   20.6479 H   0  0  0  0  0  0  0  0  0  0  0  0
   21.6090   19.4019   22.0982 C   0  0  0  0  0  0  0  0  0  0  0  0
   21.3635   18.7480   22.9426 H   0  0  0  0  0  0  0  0  0  0  0  0
   22.5474   19.0241   21.6759 H   0  0  0  0  0  0  0  0  0  0  0  0
   21.8829   20.8057   22.6302 C   0  0  0  0  0  0  0  0  0  0  0  0
   21.5298   21.0721   23.7623 O   0  5  0  0  0  0  0  0  0  0  0  0
   22.4587   21.5912   21.9030 O   0  0  0  0  0  0  0  0  0  0  0  0
  1  2  1  0  0  0  0
  1  3  1  0  0  0  0
  1  4  2  0  0  0  0
  4  5  1  0  0  0  0
  4  6  1  0  0  0  0
  6  7  1  0  0  0  0
  6  8  1  0  0  0  0
  6  9  1  0  0  0  0
  9 10  1  0  0  0  0
  9 11  1  0  0  0  0
  9 12  1  0  0  0  0
 12 13  1  0  0  0  0
 12 14  1  0  0  0  0
 12 15  1  0  0  0  0
 15 16  1  0  0  0  0
 15 17  1  0  0  0  0
 15 18  1  0  0  0  0
 18 19  1  0  0  0  0
 18 20  2  0  0  0  0
M  END
> <VConfSearch Rank>
851

> <Conf_Id>
86

> <Delta U+W>
1.248

> <U+W>
-50.498

> <U>
10.404

> <W>
-60.901

> <W(PB)>
-63.061

> <W(SA)>
2.159

> <Valence>
10.021

> <Coulomb>
0.094

> <VdW>
0.289

> <VdW6>
-8.409

> <VdW12>
8.698

> <Bond>
0.179

> <Angle>
2.939

> <Pdih>
6.902

> <Idih>
0.001

> <Tether>
0.000

$$$$
VeraChem MOL file


 20 19  0  0  0  0  0  0  0  0999 V2000     
   17.6626   17.0129   21.0306 C   0  0  0  0  0  0  0  0  0  0  0  0
   17.2429   16.0578   21.3418 H   0  0  0  0  0  0  0  0  0  0  0  0
   16.9733   17.8463   20.9052 H   0  0  0  0  0  0  0  0  0  0  0  0
   18.9733   17.1536   20.8154 C   0  0  0  0  0  0  0  0  0  0  0  0
   19.6465   16.3073   20.9488 H   0  0  0  0  0  0  0  0  0  0  0  0
   19.6289   18.4477   20.3823 C   0  0  0  0  0  0  0  0  0  0  0  0
   18.8711   19.1824   20.0780 H   0  0  0  0  0  0  0  0  0  0  0  0
   20.2484   18.2566   19.4960 H   0  0  0  0  0  0  0  0  0  0  0  0
   20.5188   19.0540   21.4907 C   0  0  0  0  0  0  0  0  0  0  0  0
   21.2745   18.3184   21.7984 H   0  0  0  0  0  0  0  0  0  0  0  0
   21.0671   19.9099   21.0736 H   0  0  0  0  0  0  0  0  0  0  0  0
   19.7056   19.5167   22.7228 C   0  0  0  0  0  0  0  0  0  0  0  0
   19.1624   18.6606   23.1449 H   0  0  0  0  0  0  0  0  0  0  0  0
   18.9474   20.2496   22.4140 H   0  0  0  0  0  0  0  0  0  0  0  0
   20.5990   20.1356   23.8291 C   0  0  0  0  0  0  0  0  0  0  0  0
   19.9935   20.3316   24.7217 H   0  0  0  0  0  0  0  0  0  0  0  0
   21.3810   19.4260   24.1254 H   0  0  0  0  0  0  0  0  0  0  0  0
   21.2607   21.4511   23.4288 C   0  0  0  0  0  0  0  0  0  0  0  0
   20.5768   22.4557   23.4172 O   0  5  0  0  0  0  0  0  0  0  0  0
   22.4437   21.4395   23.1504 O   0  0  0  0  0  0  0  0  0  0  0  0
  1  2  1  0  0  0  0
  1  3  1  0  0  0  0
  1  4  2  0  0  0  0
  4  5  1  0  0  0  0
  4  6  1  0  0  0  0
  6  7  1  0  0  0  0
  6  8  1  0  0  0  0
  6  9  1  0  0  0  0
  9 10  1  0  0  0  0
  9 11  1  0  0  0  0
  9 12  1  0  0  0  0
 12 13  1  0  0  0  0
 12 14  1  0  0  0  0
 12 15  1  0  0  0  0
 15 16  1  0  0  0  0
 15 17  1  0  0  0  0
 15 18  1  0  0  0  0
 18 19  1  0  0  0  0
 18 20  2  0  0  0  0
M  END
> <VConfSearch Rank>
852

> <Conf_Id>
28

> <Delta U+W>
0.446

> <U+W>
-51.299

> <U>
9.295

> <W>
-60.594

> <W(PB)>
-62.806

> <W(SA)>
2.212

> <Valence>
9.495

> <Coulomb>
-0.610

> <VdW>
0.409

> <VdW6>
-7.332

> <VdW12>
7.741

> <Bond>
0.126

> <Angle>
2.497

> <Pdih>
6.872

> <Idih>
0.000

> <Tether>
0.000

$$$$
VeraChem MOL file


 20 19  0  0  0  0  0  0  0  0999 V2000     
   21.8921   17.2408   23.3525 C   0  0  0  0  0  0  0  0  0  0  0  0
   22.4348   18.1353   23.0545 H   0  0  0  0  0  0  0  0  0  0  0  0
   22.4486   16.4932   23.9152 H   0  0  0  0  0  0  0  0  0  0  0  0
   20.6016   17.0512   23.0550 C   0  0  0  0  0  0  0  0  0  0  0  0
   20.1113   16.1350   23.3832 H   0  0  0  0  0  0  0  0  0  0  0  0
   19.6989   17.9968   22.2801 C   0  0  0  0  0  0  0  0  0  0  0  0
   18.8769   18.3074   22.9378 H   0  0  0  0  0  0  0  0  0  0  0  0
   19.2306   17.4400   21.4577 H   0  0  0  0  0  0  0  0  0  0  0  0
   20.4056   19.2482   21.7028 C   0  0  0  0  0  0  0  0  0  0  0  0
   20.8020   19.8603   22.5245 H   0  0  0  0  0  0  0  0  0  0  0  0
   21.2693   18.9272   21.1046 H   0  0  0  0  0  0  0  0  0  0  0  0
   19.4896   20.1148   20.8034 C   0  0  0  0  0  0  0  0  0  0  0  0
   19.1372   19.5104   19.9566 H   0  0  0  0  0  0  0  0  0  0  0  0
   20.0876   20.9292   20.3714 H   0  0  0  0  0  0  0  0  0  0  0  0
   18.2649   20.7306   21.5339 C   0  0  0  0  0  0  0  0  0  0  0  0
   17.6727   21.3142   20.8196 H   0  0  0  0  0  0  0  0  0  0  0  0
   17.6039   19.9432   21.9135 H   0  0  0  0  0  0  0  0  0  0  0  0
   18.6294   21.6614   22.6870 C   0  0  0  0  0  0  0  0  0  0  0  0
   19.1257   22.7380   22.4188 O   0  5  0  0  0  0  0  0  0  0  0  0
   18.3887   21.2955   23.8206 O   0  0  0  0  0  0  0  0  0  0  0  0
  1  2  1  0  0  0  0
  1  3  1  0  0  0  0
  1  4  2  0  0  0  0
  4  5  1  0  0  0  0
  4  6  1  0  0  0  0
  6  7  1  0  0  0  0
  6  8  1  0  0  0  0
  6  9  1  0  0  0  0
  9 10  1  0  0  0  0
  9 11  1  0  0  0  0
  9 12  1  0  0  0  0
 12 13  1  0  0  0  0
 12 14  1  0  0  0  0
 12 15  1  0  0  0  0
 15 16  1  0  0  0  0
 15 17  1  0  0  0  0
 15 18  1  0  0  0  0
 18 19  1  0  0  0  0
 18 20  2  0  0  0  0
M  END
> <VConfSearch Rank>
853

> <Conf_Id>
53

> <Delta U+W>
0.549

> <U+W>
-51.197

> <U>
10.870

> <W>
-62.067

> <W(PB)>
-64.228

> <W(SA)>
2.161

> <Valence>
8.803

> <Coulomb>
1.020

> <VdW>
1.048

> <VdW6>
-8.312

> <VdW12>
9.360

> <Bond>
0.212

> <Angle>
3.379

> <Pdih>
5.211

> <Idih>
0.001

> <Tether>
0.000

$$$$
VeraChem MOL file


 20 19  0  0  0  0  0  0  0  0999 V2000     
   20.4155   21.0186   23.7222 C   0  0  0  0  0  0  0  0  0  0  0  0
   19.5761   20.6127   24.2824 H   0  0  0  0  0  0  0  0  0  0  0  0
   20.6122   22.0839   23.8291 H   0  0  0  0  0  0  0  0  0  0  0  0
   21.1843   20.2549   22.9383 C   0  0  0  0  0  0  0  0  0  0  0  0
   22.0150   20.7113   22.4008 H   0  0  0  0  0  0  0  0  0  0  0  0
   21.0221   18.7639   22.6928 C   0  0  0  0  0  0  0  0  0  0  0  0
   21.7273   18.2225   23.3370 H   0  0  0  0  0  0  0  0  0  0  0  0
   21.3451   18.5332   21.6696 H   0  0  0  0  0  0  0  0  0  0  0  0
   19.5955   18.1937   22.9064 C   0  0  0  0  0  0  0  0  0  0  0  0
   19.6307   17.1041   22.7702 H   0  0  0  0  0  0  0  0  0  0  0  0
   19.2923   18.3503   23.9499 H   0  0  0  0  0  0  0  0  0  0  0  0
   18.5125   18.7818   21.9640 C   0  0  0  0  0  0  0  0  0  0  0  0
   18.4148   19.8605   22.1415 H   0  0  0  0  0  0  0  0  0  0  0  0
   17.5411   18.3409   22.2266 H   0  0  0  0  0  0  0  0  0  0  0  0
   18.7748   18.5418   20.4521 C   0  0  0  0  0  0  0  0  0  0  0  0
   17.9651   18.9938   19.8676 H   0  0  0  0  0  0  0  0  0  0  0  0
   19.6988   19.0399   20.1372 H   0  0  0  0  0  0  0  0  0  0  0  0
   18.8526   17.0697   20.0580 C   0  0  0  0  0  0  0  0  0  0  0  0
   19.9370   16.6095   19.7591 O   0  5  0  0  0  0  0  0  0  0  0  0
   17.8216   16.4259   20.0430 O   0  0  0  0  0  0  0  0  0  0  0  0
  1  2  1  0  0  0  0
  1  3  1  0  0  0  0
  1  4  2  0  0  0  0
  4  5  1  0  0  0  0
  4  6  1  0  0  0  0
  6  7  1  0  0  0  0
  6  8  1  0  0  0  0
  6  9  1  0  0  0  0
  9 10  1  0  0  0  0
  9 11  1  0  0  0  0
  9 12  1  0  0  0  0
 12 13  1  0  0  0  0
 12 14  1  0  0  0  0
 12 15  1  0  0  0  0
 15 16  1  0  0  0  0
 15 17  1  0  0  0  0
 15 18  1  0  0  0  0
 18 19  1  0  0  0  0
 18 20  2  0  0  0  0
M  END
> <VConfSearch Rank>
854

> <Conf_Id>
66

> <Delta U+W>
1.737

> <U+W>
-50.008

> <U>
11.091

> <W>
-61.099

> <W(PB)>
-63.213

> <W(SA)>
2.114

> <Valence>
9.664

> <Coulomb>
0.658

> <VdW>
0.769

> <VdW6>
-9.171

> <VdW12>
9.940

> <Bond>
0.244

> <Angle>
3.658

> <Pdih>
5.762

> <Idih>
0.001

> <Tether>
0.000

$$$$
VeraChem MOL file


 20 19  0  0  0  0  0  0  0  0999 V2000     
   20.3914   21.5988   21.5257 C   0  0  0  0  0  0  0  0  0  0  0  0
   19.5907   21.7494   22.2464 H   0  0  0  0  0  0  0  0  0  0  0  0
   21.2433   22.2738   21.5861 H   0  0  0  0  0  0  0  0  0  0  0  0
   20.3441   20.6368   20.5977 C   0  0  0  0  0  0  0  0  0  0  0  0
   21.1733   20.5323   19.8985 H   0  0  0  0  0  0  0  0  0  0  0  0
   19.2274   19.6246   20.4002 C   0  0  0  0  0  0  0  0  0  0  0  0
   19.6635   18.6762   20.0625 H   0  0  0  0  0  0  0  0  0  0  0  0
   18.5976   19.9568   19.5645 H   0  0  0  0  0  0  0  0  0  0  0  0
   18.3304   19.3544   21.6366 C   0  0  0  0  0  0  0  0  0  0  0  0
   17.8443   20.2891   21.9456 H   0  0  0  0  0  0  0  0  0  0  0  0
   17.5150   18.6811   21.3391 H   0  0  0  0  0  0  0  0  0  0  0  0
   19.0690   18.7336   22.8498 C   0  0  0  0  0  0  0  0  0  0  0  0
   18.3647   18.6648   23.6902 H   0  0  0  0  0  0  0  0  0  0  0  0
   19.8789   19.3967   23.1814 H   0  0  0  0  0  0  0  0  0  0  0  0
   19.6455   17.3217   22.5682 C   0  0  0  0  0  0  0  0  0  0  0  0
   18.8587   16.6598   22.1875 H   0  0  0  0  0  0  0  0  0  0  0  0
   20.4290   17.3716   21.8037 H   0  0  0  0  0  0  0  0  0  0  0  0
   20.2484   16.6728   23.8091 C   0  0  0  0  0  0  0  0  0  0  0  0
   21.4315   16.8417   24.0292 O   0  5  0  0  0  0  0  0  0  0  0  0
   19.5152   16.0266   24.5314 O   0  0  0  0  0  0  0  0  0  0  0  0
  1  2  1  0  0  0  0
  1  3  1  0  0  0  0
  1  4  2  0  0  0  0
  4  5  1  0  0  0  0
  4  6  1  0  0  0  0
  6  7  1  0  0  0  0
  6  8  1  0  0  0  0
  6  9  1  0  0  0  0
  9 10  1  0  0  0  0
  9 11  1  0  0  0  0
  9 12  1  0  0  0  0
 12 13  1  0  0  0  0
 12 14  1  0  0  0  0
 12 15  1  0  0  0  0
 15 16  1  0  0  0  0
 15 17  1  0  0  0  0
 15 18  1  0  0  0  0
 18 19  1  0  0  0  0
 18 20  2  0  0  0  0
M  END
> <VConfSearch Rank>
855

> <Conf_Id>
64

> <Delta U+W>
0.366

> <U+W>
-51.379

> <U>
10.000

> <W>
-61.379

> <W(PB)>
-63.541

> <W(SA)>
2.162

> <Valence>
9.398

> <Coulomb>
-0.504

> <VdW>
1.105

> <VdW6>
-7.975

> <VdW12>
9.080

> <Bond>
0.216

> <Angle>
3.417

> <Pdih>
5.765

> <Idih>
0.001

> <Tether>
0.000

$$$$
VeraChem MOL file


 20 19  0  0  0  0  0  0  0  0999 V2000     
   22.2959   19.9885   20.4206 C   0  0  0  0  0  0  0  0  0  0  0  0
   21.6109   20.5578   19.7944 H   0  0  0  0  0  0  0  0  0  0  0  0
   23.1164   19.4724   19.9251 H   0  0  0  0  0  0  0  0  0  0  0  0
   22.1367   19.9202   21.7449 C   0  0  0  0  0  0  0  0  0  0  0  0
   22.8322   19.3428   22.3534 H   0  0  0  0  0  0  0  0  0  0  0  0
   21.0219   20.6089   22.5031 C   0  0  0  0  0  0  0  0  0  0  0  0
   20.4971   21.3234   21.8545 H   0  0  0  0  0  0  0  0  0  0  0  0
   21.4555   21.1962   23.3234 H   0  0  0  0  0  0  0  0  0  0  0  0
   20.0062   19.6042   23.0920 C   0  0  0  0  0  0  0  0  0  0  0  0
   20.5313   18.8893   23.7403 H   0  0  0  0  0  0  0  0  0  0  0  0
   19.2991   20.1490   23.7325 H   0  0  0  0  0  0  0  0  0  0  0  0
   19.2200   18.8422   22.0008 C   0  0  0  0  0  0  0  0  0  0  0  0
   19.9145   18.2712   21.3693 H   0  0  0  0  0  0  0  0  0  0  0  0
   18.7095   19.5596   21.3435 H   0  0  0  0  0  0  0  0  0  0  0  0
   18.1765   17.8747   22.6118 C   0  0  0  0  0  0  0  0  0  0  0  0
   18.6731   17.1439   23.2614 H   0  0  0  0  0  0  0  0  0  0  0  0
   17.4634   18.4295   23.2332 H   0  0  0  0  0  0  0  0  0  0  0  0
   17.3878   17.1104   21.5545 C   0  0  0  0  0  0  0  0  0  0  0  0
   16.3736   17.6177   21.1176 O   0  5  0  0  0  0  0  0  0  0  0  0
   17.8155   16.0346   21.1855 O   0  0  0  0  0  0  0  0  0  0  0  0
  1  2  1  0  0  0  0
  1  3  1  0  0  0  0
  1  4  2  0  0  0  0
  4  5  1  0  0  0  0
  4  6  1  0  0  0  0
  6  7  1  0  0  0  0
  6  8  1  0  0  0  0
  6  9  1  0  0  0  0
  9 10  1  0  0  0  0
  9 11  1  0  0  0  0
  9 12  1  0  0  0  0
 12 13  1  0  0  0  0
 12 14  1  0  0  0  0
 12 15  1  0  0  0  0
 15 16  1  0  0  0  0
 15 17  1  0  0  0  0
 15 18  1  0  0  0  0
 18 19  1  0  0  0  0
 18 20  2  0  0  0  0
M  END
> <VConfSearch Rank>
856

> <Conf_Id>
42

> <Delta U+W>
-0.601

> <U+W>
-52.347

> <U>
8.428

> <W>
-60.774

> <W(PB)>
-62.982

> <W(SA)>
2.208

> <Valence>
9.231

> <Coulomb>
-1.304

> <VdW>
0.501

> <VdW6>
-6.515

> <VdW12>
7.016

> <Bond>
0.103

> <Angle>
2.328

> <Pdih>
6.799

> <Idih>
0.000

> <Tether>
0.000

$$$$
VeraChem MOL file


 20 19  0  0  0  0  0  0  0  0999 V2000     
   16.7651   19.0831   21.2871 C   0  0  0  0  0  0  0  0  0  0  0  0
   16.4922   19.9844   21.8336 H   0  0  0  0  0  0  0  0  0  0  0  0
   16.0491   18.2631   21.2833 H   0  0  0  0  0  0  0  0  0  0  0  0
   17.9337   18.9820   20.6481 C   0  0  0  0  0  0  0  0  0  0  0  0
   18.1888   18.0699   20.1092 H   0  0  0  0  0  0  0  0  0  0  0  0
   18.9784   20.0770   20.6098 C   0  0  0  0  0  0  0  0  0  0  0  0
   18.5678   21.0172   21.0025 H   0  0  0  0  0  0  0  0  0  0  0  0
   19.2554   20.2723   19.5654 H   0  0  0  0  0  0  0  0  0  0  0  0
   20.2513   19.6994   21.4005 C   0  0  0  0  0  0  0  0  0  0  0  0
   20.6640   18.7624   21.0017 H   0  0  0  0  0  0  0  0  0  0  0  0
   21.0143   20.4723   21.2359 H   0  0  0  0  0  0  0  0  0  0  0  0
   19.9905   19.5573   22.9188 C   0  0  0  0  0  0  0  0  0  0  0  0
   19.2592   18.7578   23.1008 H   0  0  0  0  0  0  0  0  0  0  0  0
   19.5428   20.4860   23.2973 H   0  0  0  0  0  0  0  0  0  0  0  0
   21.2840   19.2578   23.7201 C   0  0  0  0  0  0  0  0  0  0  0  0
   22.0353   20.0342   23.5317 H   0  0  0  0  0  0  0  0  0  0  0  0
   21.0637   19.2830   24.7938 H   0  0  0  0  0  0  0  0  0  0  0  0
   21.9024   17.8971   23.4121 C   0  0  0  0  0  0  0  0  0  0  0  0
   22.8845   17.8595   22.6970 O   0  5  0  0  0  0  0  0  0  0  0  0
   21.3956   16.9116   23.9111 O   0  0  0  0  0  0  0  0  0  0  0  0
  1  2  1  0  0  0  0
  1  3  1  0  0  0  0
  1  4  2  0  0  0  0
  4  5  1  0  0  0  0
  4  6  1  0  0  0  0
  6  7  1  0  0  0  0
  6  8  1  0  0  0  0
  6  9  1  0  0  0  0
  9 10  1  0  0  0  0
  9 11  1  0  0  0  0
  9 12  1  0  0  0  0
 12 13  1  0  0  0  0
 12 14  1  0  0  0  0
 12 15  1  0  0  0  0
 15 16  1  0  0  0  0
 15 17  1  0  0  0  0
 15 18  1  0  0  0  0
 18 19  1  0  0  0  0
 18 20  2  0  0  0  0
M  END
> <VConfSearch Rank>
857

> <Conf_Id>
68

> <Delta U+W>
0.492

> <U+W>
-51.253

> <U>
10.179

> <W>
-61.432

> <W(PB)>
-63.627

> <W(SA)>
2.195

> <Valence>
9.483

> <Coulomb>
0.361

> <VdW>
0.335

> <VdW6>
-7.385

> <VdW12>
7.720

> <Bond>
0.125

> <Angle>
2.487

> <Pdih>
6.870

> <Idih>
0.001

> <Tether>
0.000

$$$$
VeraChem MOL file


 20 19  0  0  0  0  0  0  0  0999 V2000     
   16.8777   17.7716   21.5592 C   0  0  0  0  0  0  0  0  0  0  0  0
   17.1906   16.7970   21.1879 H   0  0  0  0  0  0  0  0  0  0  0  0
   15.9432   18.1775   21.1758 H   0  0  0  0  0  0  0  0  0  0  0  0
   17.6107   18.4475   22.4477 C   0  0  0  0  0  0  0  0  0  0  0  0
   17.2776   19.4203   22.8082 H   0  0  0  0  0  0  0  0  0  0  0  0
   18.9151   17.9444   23.0284 C   0  0  0  0  0  0  0  0  0  0  0  0
   18.9878   16.8573   22.8890 H   0  0  0  0  0  0  0  0  0  0  0  0
   18.9331   18.1170   24.1128 H   0  0  0  0  0  0  0  0  0  0  0  0
   20.1461   18.6107   22.3735 C   0  0  0  0  0  0  0  0  0  0  0  0
   21.0547   18.1142   22.7404 H   0  0  0  0  0  0  0  0  0  0  0  0
   20.1150   18.4437   21.2878 H   0  0  0  0  0  0  0  0  0  0  0  0
   20.2399   20.1259   22.6722 C   0  0  0  0  0  0  0  0  0  0  0  0
   20.2203   20.2830   23.7590 H   0  0  0  0  0  0  0  0  0  0  0  0
   19.3636   20.6455   22.2610 H   0  0  0  0  0  0  0  0  0  0  0  0
   21.5279   20.7675   22.0942 C   0  0  0  0  0  0  0  0  0  0  0  0
   21.6020   21.8080   22.4314 H   0  0  0  0  0  0  0  0  0  0  0  0
   22.4149   20.2466   22.4747 H   0  0  0  0  0  0  0  0  0  0  0  0
   21.5854   20.7761   20.5692 C   0  0  0  0  0  0  0  0  0  0  0  0
   20.9286   21.6095   19.9765 O   0  5  0  0  0  0  0  0  0  0  0  0
   22.2993   19.9634   20.0152 O   0  0  0  0  0  0  0  0  0  0  0  0
  1  2  1  0  0  0  0
  1  3  1  0  0  0  0
  1  4  2  0  0  0  0
  4  5  1  0  0  0  0
  4  6  1  0  0  0  0
  6  7  1  0  0  0  0
  6  8  1  0  0  0  0
  6  9  1  0  0  0  0
  9 10  1  0  0  0  0
  9 11  1  0  0  0  0
  9 12  1  0  0  0  0
 12 13  1  0  0  0  0
 12 14  1  0  0  0  0
 12 15  1  0  0  0  0
 15 16  1  0  0  0  0
 15 17  1  0  0  0  0
 15 18  1  0  0  0  0
 18 19  1  0  0  0  0
 18 20  2  0  0  0  0
M  END
> <VConfSearch Rank>
858

> <Conf_Id>
87

> <Delta U+W>
0.339

> <U+W>
-51.407

> <U>
10.461

> <W>
-61.867

> <W(PB)>
-64.045

> <W(SA)>
2.178

> <Valence>
9.555

> <Coulomb>
0.483

> <VdW>
0.423

> <VdW6>
-7.223

> <VdW12>
7.646

> <Bond>
0.126

> <Angle>
2.492

> <Pdih>
6.936

> <Idih>
0.001

> <Tether>
0.000

$$$$
VeraChem MOL file


 20 19  0  0  0  0  0  0  0  0999 V2000     
   20.3677   21.6437   22.0703 C   0  0  0  0  0  0  0  0  0  0  0  0
   20.9738   21.6873   22.9737 H   0  0  0  0  0  0  0  0  0  0  0  0
   20.6700   22.2690   21.2320 H   0  0  0  0  0  0  0  0  0  0  0  0
   19.2950   20.8521   21.9903 C   0  0  0  0  0  0  0  0  0  0  0  0
   18.6958   20.8291   21.0808 H   0  0  0  0  0  0  0  0  0  0  0  0
   18.8105   19.9676   23.1193 C   0  0  0  0  0  0  0  0  0  0  0  0
   17.7592   19.6918   22.9622 H   0  0  0  0  0  0  0  0  0  0  0  0
   18.8296   20.5501   24.0502 H   0  0  0  0  0  0  0  0  0  0  0  0
   19.6685   18.6937   23.3200 C   0  0  0  0  0  0  0  0  0  0  0  0
   20.7361   18.9512   23.2899 H   0  0  0  0  0  0  0  0  0  0  0  0
   19.4785   18.3158   24.3339 H   0  0  0  0  0  0  0  0  0  0  0  0
   19.3703   17.5429   22.3262 C   0  0  0  0  0  0  0  0  0  0  0  0
   18.2996   17.2977   22.3490 H   0  0  0  0  0  0  0  0  0  0  0  0
   19.8988   16.6437   22.6720 H   0  0  0  0  0  0  0  0  0  0  0  0
   19.8048   17.8329   20.8666 C   0  0  0  0  0  0  0  0  0  0  0  0
   19.1929   18.6309   20.4343 H   0  0  0  0  0  0  0  0  0  0  0  0
   20.8480   18.1695   20.8408 H   0  0  0  0  0  0  0  0  0  0  0  0
   19.6768   16.6143   19.9599 C   0  0  0  0  0  0  0  0  0  0  0  0
   18.6156   16.4250   19.3988 O   0  5  0  0  0  0  0  0  0  0  0  0
   20.6350   15.8742   19.8546 O   0  0  0  0  0  0  0  0  0  0  0  0
  1  2  1  0  0  0  0
  1  3  1  0  0  0  0
  1  4  2  0  0  0  0
  4  5  1  0  0  0  0
  4  6  1  0  0  0  0
  6  7  1  0  0  0  0
  6  8  1  0  0  0  0
  6  9  1  0  0  0  0
  9 10  1  0  0  0  0
  9 11  1  0  0  0  0
  9 12  1  0  0  0  0
 12 13  1  0  0  0  0
 12 14  1  0  0  0  0
 12 15  1  0  0  0  0
 15 16  1  0  0  0  0
 15 17  1  0  0  0  0
 15 18  1  0  0  0  0
 18 19  1  0  0  0  0
 18 20  2  0  0  0  0
M  END
> <VConfSearch Rank>
859

> <Conf_Id>
51

> <Delta U+W>
1.709

> <U+W>
-50.036

> <U>
10.643

> <W>
-60.679

> <W(PB)>
-62.882

> <W(SA)>
2.203

> <Valence>
11.231

> <Coulomb>
-1.077

> <VdW>
0.489

> <VdW6>
-7.546

> <VdW12>
8.035

> <Bond>
0.159

> <Angle>
3.005

> <Pdih>
8.065

> <Idih>
0.002

> <Tether>
0.000

$$$$
VeraChem MOL file


 20 19  0  0  0  0  0  0  0  0999 V2000     
   18.7109   20.9823   20.0328 C   0  0  0  0  0  0  0  0  0  0  0  0
   18.3427   21.8050   20.6436 H   0  0  0  0  0  0  0  0  0  0  0  0
   18.1743   20.7612   19.1118 H   0  0  0  0  0  0  0  0  0  0  0  0
   19.7786   20.2684   20.3989 C   0  0  0  0  0  0  0  0  0  0  0  0
   20.1374   19.4545   19.7698 H   0  0  0  0  0  0  0  0  0  0  0  0
   20.5787   20.5280   21.6575 C   0  0  0  0  0  0  0  0  0  0  0  0
   20.7526   21.6092   21.7422 H   0  0  0  0  0  0  0  0  0  0  0  0
   21.5743   20.0718   21.5763 H   0  0  0  0  0  0  0  0  0  0  0  0
   19.8765   20.0413   22.9495 C   0  0  0  0  0  0  0  0  0  0  0  0
   20.3326   20.5669   23.7994 H   0  0  0  0  0  0  0  0  0  0  0  0
   18.8205   20.3441   22.9400 H   0  0  0  0  0  0  0  0  0  0  0  0
   19.9915   18.5202   23.2213 C   0  0  0  0  0  0  0  0  0  0  0  0
   19.6207   18.3228   24.2367 H   0  0  0  0  0  0  0  0  0  0  0  0
   21.0479   18.2185   23.2161 H   0  0  0  0  0  0  0  0  0  0  0  0
   19.1943   17.6338   22.2302 C   0  0  0  0  0  0  0  0  0  0  0  0
   18.1581   17.9846   22.1560 H   0  0  0  0  0  0  0  0  0  0  0  0
   19.6308   17.6888   21.2280 H   0  0  0  0  0  0  0  0  0  0  0  0
   19.1700   16.1658   22.6400 C   0  0  0  0  0  0  0  0  0  0  0  0
   20.0700   15.4466   22.2529 O   0  5  0  0  0  0  0  0  0  0  0  0
   18.2628   15.7839   23.3527 O   0  0  0  0  0  0  0  0  0  0  0  0
  1  2  1  0  0  0  0
  1  3  1  0  0  0  0
  1  4  2  0  0  0  0
  4  5  1  0  0  0  0
  4  6  1  0  0  0  0
  6  7  1  0  0  0  0
  6  8  1  0  0  0  0
  6  9  1  0  0  0  0
  9 10  1  0  0  0  0
  9 11  1  0  0  0  0
  9 12  1  0  0  0  0
 12 13  1  0  0  0  0
 12 14  1  0  0  0  0
 12 15  1  0  0  0  0
 15 16  1  0  0  0  0
 15 17  1  0  0  0  0
 15 18  1  0  0  0  0
 18 19  1  0  0  0  0
 18 20  2  0  0  0  0
M  END
> <VConfSearch Rank>
860

> <Conf_Id>
91

> <Delta U+W>
1.604

> <U+W>
-50.141

> <U>
10.644

> <W>
-60.786

> <W(PB)>
-62.965

> <W(SA)>
2.179

> <Valence>
11.230

> <Coulomb>
-1.075

> <VdW>
0.489

> <VdW6>
-7.547

> <VdW12>
8.036

> <Bond>
0.159

> <Angle>
3.006

> <Pdih>
8.064

> <Idih>
0.002

> <Tether>
0.000

$$$$
VeraChem MOL file


 20 19  0  0  0  0  0  0  0  0999 V2000     
   16.2283   18.1237   22.0926 C   0  0  0  0  0  0  0  0  0  0  0  0
   16.2362   18.4741   23.1235 H   0  0  0  0  0  0  0  0  0  0  0  0
   15.4272   17.4472   21.7996 H   0  0  0  0  0  0  0  0  0  0  0  0
   17.1641   18.5045   21.2191 C   0  0  0  0  0  0  0  0  0  0  0  0
   17.1383   18.1416   20.1918 H   0  0  0  0  0  0  0  0  0  0  0  0
   18.3043   19.4406   21.5526 C   0  0  0  0  0  0  0  0  0  0  0  0
   18.1097   19.9531   22.5046 H   0  0  0  0  0  0  0  0  0  0  0  0
   18.3764   20.2207   20.7829 H   0  0  0  0  0  0  0  0  0  0  0  0
   19.6426   18.6781   21.6437 C   0  0  0  0  0  0  0  0  0  0  0  0
   19.5637   17.8964   22.4119 H   0  0  0  0  0  0  0  0  0  0  0  0
   19.8391   18.1695   20.6899 H   0  0  0  0  0  0  0  0  0  0  0  0
   20.8190   19.6201   21.9810 C   0  0  0  0  0  0  0  0  0  0  0  0
   20.6235   20.1288   22.9352 H   0  0  0  0  0  0  0  0  0  0  0  0
   20.8977   20.4029   21.2137 H   0  0  0  0  0  0  0  0  0  0  0  0
   22.1648   18.8527   22.0732 C   0  0  0  0  0  0  0  0  0  0  0  0
   22.0955   18.0740   22.8418 H   0  0  0  0  0  0  0  0  0  0  0  0
   22.3695   18.3477   21.1220 H   0  0  0  0  0  0  0  0  0  0  0  0
   23.3851   19.7132   22.4047 C   0  0  0  0  0  0  0  0  0  0  0  0
   24.4573   19.1474   22.4841 O   0  5  0  0  0  0  0  0  0  0  0  0
   23.2508   20.9096   22.5752 O   0  0  0  0  0  0  0  0  0  0  0  0
  1  2  1  0  0  0  0
  1  3  1  0  0  0  0
  1  4  2  0  0  0  0
  4  5  1  0  0  0  0
  4  6  1  0  0  0  0
  6  7  1  0  0  0  0
  6  8  1  0  0  0  0
  6  9  1  0  0  0  0
  9 10  1  0  0  0  0
  9 11  1  0  0  0  0
  9 12  1  0  0  0  0
 12 13  1  0  0  0  0
 12 14  1  0  0  0  0
 12 15  1  0  0  0  0
 15 16  1  0  0  0  0
 15 17  1  0  0  0  0
 15 18  1  0  0  0  0
 18 19  1  0  0  0  0
 18 20  2  0  0  0  0
M  END
> <VConfSearch Rank>
861

> <Conf_Id>
33

> <Delta U+W>
0.000

> <U+W>
-51.745

> <U>
7.593

> <W>
-59.338

> <W(PB)>
-61.574

> <W(SA)>
2.236

> <Valence>
9.570

> <Coulomb>
-3.091

> <VdW>
1.114

> <VdW6>
-6.064

> <VdW12>
7.178

> <Bond>
0.117

> <Angle>
2.692

> <Pdih>
6.761

> <Idih>
0.000

> <Tether>
0.000

$$$$
VeraChem MOL file


 20 19  0  0  0  0  0  0  0  0999 V2000     
   17.0057   18.1456   24.1394 C   0  0  0  0  0  0  0  0  0  0  0  0
   16.3495   18.8274   23.6007 H   0  0  0  0  0  0  0  0  0  0  0  0
   16.6372   17.7313   25.0763 H   0  0  0  0  0  0  0  0  0  0  0  0
   18.2168   17.8292   23.6739 C   0  0  0  0  0  0  0  0  0  0  0  0
   18.8585   17.1453   24.2290 H   0  0  0  0  0  0  0  0  0  0  0  0
   18.7950   18.3634   22.3824 C   0  0  0  0  0  0  0  0  0  0  0  0
   18.0044   18.8239   21.7744 H   0  0  0  0  0  0  0  0  0  0  0  0
   19.2001   17.5285   21.7969 H   0  0  0  0  0  0  0  0  0  0  0  0
   19.9031   19.4042   22.6593 C   0  0  0  0  0  0  0  0  0  0  0  0
   19.4975   20.1860   23.3163 H   0  0  0  0  0  0  0  0  0  0  0  0
   20.7255   18.9302   23.2124 H   0  0  0  0  0  0  0  0  0  0  0  0
   20.4550   20.0739   21.3782 C   0  0  0  0  0  0  0  0  0  0  0  0
   21.1498   20.8736   21.6702 H   0  0  0  0  0  0  0  0  0  0  0  0
   19.6356   20.5598   20.8307 H   0  0  0  0  0  0  0  0  0  0  0  0
   21.1960   19.0902   20.4357 C   0  0  0  0  0  0  0  0  0  0  0  0
   21.9895   18.5671   20.9825 H   0  0  0  0  0  0  0  0  0  0  0  0
   20.5073   18.3285   20.0530 H   0  0  0  0  0  0  0  0  0  0  0  0
   21.8285   19.7872   19.2365 C   0  0  0  0  0  0  0  0  0  0  0  0
   21.1581   19.9223   18.2319 O   0  5  0  0  0  0  0  0  0  0  0  0
   22.9683   20.1944   19.3451 O   0  0  0  0  0  0  0  0  0  0  0  0
  1  2  1  0  0  0  0
  1  3  1  0  0  0  0
  1  4  2  0  0  0  0
  4  5  1  0  0  0  0
  4  6  1  0  0  0  0
  6  7  1  0  0  0  0
  6  8  1  0  0  0  0
  6  9  1  0  0  0  0
  9 10  1  0  0  0  0
  9 11  1  0  0  0  0
  9 12  1  0  0  0  0
 12 13  1  0  0  0  0
 12 14  1  0  0  0  0
 12 15  1  0  0  0  0
 15 16  1  0  0  0  0
 15 17  1  0  0  0  0
 15 18  1  0  0  0  0
 18 19  1  0  0  0  0
 18 20  2  0  0  0  0
M  END
> <VConfSearch Rank>
862

> <Conf_Id>
37

> <Delta U+W>
-0.384

> <U+W>
-52.130

> <U>
7.491

> <W>
-59.621

> <W(PB)>
-61.853

> <W(SA)>
2.232

> <Valence>
9.604

> <Coulomb>
-2.799

> <VdW>
0.686

> <VdW6>
-6.435

> <VdW12>
7.121

> <Bond>
0.124

> <Angle>
2.493

> <Pdih>
6.986

> <Idih>
0.001

> <Tether>
0.000

$$$$
VeraChem MOL file


 20 19  0  0  0  0  0  0  0  0999 V2000     
   18.3109   21.5999   20.3679 C   0  0  0  0  0  0  0  0  0  0  0  0
   17.8463   22.4506   19.8722 H   0  0  0  0  0  0  0  0  0  0  0  0
   17.7149   20.6933   20.4483 H   0  0  0  0  0  0  0  0  0  0  0  0
   19.5565   21.6857   20.8483 C   0  0  0  0  0  0  0  0  0  0  0  0
   20.1039   22.6215   20.7375 H   0  0  0  0  0  0  0  0  0  0  0  0
   20.3333   20.5905   21.5598 C   0  0  0  0  0  0  0  0  0  0  0  0
   20.6370   20.9589   22.5489 H   0  0  0  0  0  0  0  0  0  0  0  0
   21.2676   20.4078   21.0123 H   0  0  0  0  0  0  0  0  0  0  0  0
   19.5743   19.2534   21.7278 C   0  0  0  0  0  0  0  0  0  0  0  0
   18.6482   19.4257   22.2933 H   0  0  0  0  0  0  0  0  0  0  0  0
   19.2856   18.8687   20.7400 H   0  0  0  0  0  0  0  0  0  0  0  0
   20.4314   18.1967   22.4585 C   0  0  0  0  0  0  0  0  0  0  0  0
   20.7235   18.5757   23.4477 H   0  0  0  0  0  0  0  0  0  0  0  0
   21.3597   18.0199   21.8976 H   0  0  0  0  0  0  0  0  0  0  0  0
   19.6735   16.8569   22.6279 C   0  0  0  0  0  0  0  0  0  0  0  0
   18.7499   17.0136   23.1979 H   0  0  0  0  0  0  0  0  0  0  0  0
   19.3860   16.4578   21.6478 H   0  0  0  0  0  0  0  0  0  0  0  0
   20.4996   15.7965   23.3470 C   0  0  0  0  0  0  0  0  0  0  0  0
   20.4322   15.7414   24.5591 O   0  5  0  0  0  0  0  0  0  0  0  0
   21.2038   15.0666   22.6777 O   0  0  0  0  0  0  0  0  0  0  0  0
  1  2  1  0  0  0  0
  1  3  1  0  0  0  0
  1  4  2  0  0  0  0
  4  5  1  0  0  0  0
  4  6  1  0  0  0  0
  6  7  1  0  0  0  0
  6  8  1  0  0  0  0
  6  9  1  0  0  0  0
  9 10  1  0  0  0  0
  9 11  1  0  0  0  0
  9 12  1  0  0  0  0
 12 13  1  0  0  0  0
 12 14  1  0  0  0  0
 12 15  1  0  0  0  0
 15 16  1  0  0  0  0
 15 17  1  0  0  0  0
 15 18  1  0  0  0  0
 18 19  1  0  0  0  0
 18 20  2  0  0  0  0
M  END
> <VConfSearch Rank>
863

> <Conf_Id>
44

> <Delta U+W>
-1.440

> <U+W>
-53.185

> <U>
6.572

> <W>
-59.757

> <W(PB)>
-62.007

> <W(SA)>
2.249

> <Valence>
7.989

> <Coulomb>
-2.697

> <VdW>
1.281

> <VdW6>
-6.467

> <VdW12>
7.748

> <Bond>
0.136

> <Angle>
2.854

> <Pdih>
4.997

> <Idih>
0.001

> <Tether>
0.000

$$$$
VeraChem MOL file


 20 19  0  0  0  0  0  0  0  0999 V2000     
   19.0218   19.5649   25.2631 C   0  0  0  0  0  0  0  0  0  0  0  0
   18.0633   19.8315   24.8207 H   0  0  0  0  0  0  0  0  0  0  0  0
   19.1841   19.8327   26.3058 H   0  0  0  0  0  0  0  0  0  0  0  0
   19.9654   18.9364   24.5570 C   0  0  0  0  0  0  0  0  0  0  0  0
   20.9184   18.6791   25.0187 H   0  0  0  0  0  0  0  0  0  0  0  0
   19.8116   18.5321   23.1076 C   0  0  0  0  0  0  0  0  0  0  0  0
   18.7543   18.5808   22.8173 H   0  0  0  0  0  0  0  0  0  0  0  0
   20.1273   17.4878   22.9829 H   0  0  0  0  0  0  0  0  0  0  0  0
   20.6539   19.4420   22.1853 C   0  0  0  0  0  0  0  0  0  0  0  0
   20.3009   20.4790   22.2700 H   0  0  0  0  0  0  0  0  0  0  0  0
   21.6947   19.4392   22.5374 H   0  0  0  0  0  0  0  0  0  0  0  0
   20.6347   19.0044   20.7012 C   0  0  0  0  0  0  0  0  0  0  0  0
   20.9967   17.9707   20.6138 H   0  0  0  0  0  0  0  0  0  0  0  0
   21.3437   19.6295   20.1407 H   0  0  0  0  0  0  0  0  0  0  0  0
   19.2371   19.1216   20.0393 C   0  0  0  0  0  0  0  0  0  0  0  0
   18.5244   18.4402   20.5172 H   0  0  0  0  0  0  0  0  0  0  0  0
   18.8458   20.1389   20.1587 H   0  0  0  0  0  0  0  0  0  0  0  0
   19.2615   18.7962   18.5501 C   0  0  0  0  0  0  0  0  0  0  0  0
   19.4631   19.7040   17.7679 O   0  5  0  0  0  0  0  0  0  0  0  0
   19.0980   17.6403   18.2126 O   0  0  0  0  0  0  0  0  0  0  0  0
  1  2  1  0  0  0  0
  1  3  1  0  0  0  0
  1  4  2  0  0  0  0
  4  5  1  0  0  0  0
  4  6  1  0  0  0  0
  6  7  1  0  0  0  0
  6  8  1  0  0  0  0
  6  9  1  0  0  0  0
  9 10  1  0  0  0  0
  9 11  1  0  0  0  0
  9 12  1  0  0  0  0
 12 13  1  0  0  0  0
 12 14  1  0  0  0  0
 12 15  1  0  0  0  0
 15 16  1  0  0  0  0
 15 17  1  0  0  0  0
 15 18  1  0  0  0  0
 18 19  1  0  0  0  0
 18 20  2  0  0  0  0
M  END
> <VConfSearch Rank>
864

> <Conf_Id>
38

> <Delta U+W>
-0.381

> <U+W>
-52.126

> <U>
7.601

> <W>
-59.727

> <W(PB)>
-61.964

> <W(SA)>
2.236

> <Valence>
9.602

> <Coulomb>
-2.686

> <VdW>
0.685

> <VdW6>
-6.453

> <VdW12>
7.139

> <Bond>
0.125

> <Angle>
2.485

> <Pdih>
6.991

> <Idih>
0.001

> <Tether>
0.000

$$$$
VeraChem MOL file


 20 19  0  0  0  0  0  0  0  0999 V2000     
   20.0887   15.9878   23.4663 C   0  0  0  0  0  0  0  0  0  0  0  0
   19.2810   15.5695   22.8677 H   0  0  0  0  0  0  0  0  0  0  0  0
   20.8222   15.2936   23.8728 H   0  0  0  0  0  0  0  0  0  0  0  0
   20.1810   17.3006   23.6934 C   0  0  0  0  0  0  0  0  0  0  0  0
   20.9980   17.6991   24.2945 H   0  0  0  0  0  0  0  0  0  0  0  0
   19.2012   18.3237   23.1632 C   0  0  0  0  0  0  0  0  0  0  0  0
   18.8906   18.9914   23.9780 H   0  0  0  0  0  0  0  0  0  0  0  0
   18.2924   17.8263   22.7981 H   0  0  0  0  0  0  0  0  0  0  0  0
   19.8261   19.1551   22.0233 C   0  0  0  0  0  0  0  0  0  0  0  0
   20.7335   19.6534   22.3918 H   0  0  0  0  0  0  0  0  0  0  0  0
   20.1399   18.4833   21.2124 H   0  0  0  0  0  0  0  0  0  0  0  0
   18.8383   20.2080   21.4719 C   0  0  0  0  0  0  0  0  0  0  0  0
   18.5306   20.8882   22.2783 H   0  0  0  0  0  0  0  0  0  0  0  0
   17.9287   19.7023   21.1205 H   0  0  0  0  0  0  0  0  0  0  0  0
   19.4378   21.0339   20.3042 C   0  0  0  0  0  0  0  0  0  0  0  0
   19.7756   20.3665   19.5022 H   0  0  0  0  0  0  0  0  0  0  0  0
   18.6618   21.6786   19.8750 H   0  0  0  0  0  0  0  0  0  0  0  0
   20.6019   21.9319   20.7135 C   0  0  0  0  0  0  0  0  0  0  0  0
   21.7273   21.5923   20.4051 O   0  5  0  0  0  0  0  0  0  0  0  0
   20.3501   22.9539   21.3211 O   0  0  0  0  0  0  0  0  0  0  0  0
  1  2  1  0  0  0  0
  1  3  1  0  0  0  0
  1  4  2  0  0  0  0
  4  5  1  0  0  0  0
  4  6  1  0  0  0  0
  6  7  1  0  0  0  0
  6  8  1  0  0  0  0
  6  9  1  0  0  0  0
  9 10  1  0  0  0  0
  9 11  1  0  0  0  0
  9 12  1  0  0  0  0
 12 13  1  0  0  0  0
 12 14  1  0  0  0  0
 12 15  1  0  0  0  0
 15 16  1  0  0  0  0
 15 17  1  0  0  0  0
 15 18  1  0  0  0  0
 18 19  1  0  0  0  0
 18 20  2  0  0  0  0
M  END
> <VConfSearch Rank>
865

> <Conf_Id>
58

> <Delta U+W>
0.019

> <U+W>
-51.727

> <U>
8.963

> <W>
-60.690

> <W(PB)>
-62.934

> <W(SA)>
2.244

> <Valence>
9.327

> <Coulomb>
-0.780

> <VdW>
0.417

> <VdW6>
-6.635

> <VdW12>
7.052

> <Bond>
0.105

> <Angle>
2.399

> <Pdih>
6.822

> <Idih>
0.000

> <Tether>
0.000

$$$$
VeraChem MOL file


 20 19  0  0  0  0  0  0  0  0999 V2000     
   17.9820   16.3099   23.0556 C   0  0  0  0  0  0  0  0  0  0  0  0
   17.0105   16.7884   22.9422 H   0  0  0  0  0  0  0  0  0  0  0  0
   18.0386   15.4395   23.7072 H   0  0  0  0  0  0  0  0  0  0  0  0
   19.0648   16.7708   22.4243 C   0  0  0  0  0  0  0  0  0  0  0  0
   20.0282   16.2777   22.5522 H   0  0  0  0  0  0  0  0  0  0  0  0
   19.0631   17.9717   21.5048 C   0  0  0  0  0  0  0  0  0  0  0  0
   18.0333   18.2424   21.2347 H   0  0  0  0  0  0  0  0  0  0  0  0
   19.5793   17.7186   20.5690 H   0  0  0  0  0  0  0  0  0  0  0  0
   19.7562   19.1811   22.1666 C   0  0  0  0  0  0  0  0  0  0  0  0
   19.2401   19.4283   23.1046 H   0  0  0  0  0  0  0  0  0  0  0  0
   20.7867   18.9085   22.4336 H   0  0  0  0  0  0  0  0  0  0  0  0
   19.7658   20.4168   21.2385 C   0  0  0  0  0  0  0  0  0  0  0  0
   18.7332   20.6720   20.9645 H   0  0  0  0  0  0  0  0  0  0  0  0
   20.2908   20.1761   20.3035 H   0  0  0  0  0  0  0  0  0  0  0  0
   20.4315   21.6525   21.8978 C   0  0  0  0  0  0  0  0  0  0  0  0
   20.3061   22.5267   21.2481 H   0  0  0  0  0  0  0  0  0  0  0  0
   19.9358   21.8886   22.8472 H   0  0  0  0  0  0  0  0  0  0  0  0
   21.9264   21.4872   22.1566 C   0  0  0  0  0  0  0  0  0  0  0  0
   22.6838   21.5711   21.2099 O   0  5  0  0  0  0  0  0  0  0  0  0
   22.2950   21.2903   23.2978 O   0  0  0  0  0  0  0  0  0  0  0  0
  1  2  1  0  0  0  0
  1  3  1  0  0  0  0
  1  4  2  0  0  0  0
  4  5  1  0  0  0  0
  4  6  1  0  0  0  0
  6  7  1  0  0  0  0
  6  8  1  0  0  0  0
  6  9  1  0  0  0  0
  9 10  1  0  0  0  0
  9 11  1  0  0  0  0
  9 12  1  0  0  0  0
 12 13  1  0  0  0  0
 12 14  1  0  0  0  0
 12 15  1  0  0  0  0
 15 16  1  0  0  0  0
 15 17  1  0  0  0  0
 15 18  1  0  0  0  0
 18 19  1  0  0  0  0
 18 20  2  0  0  0  0
M  END
> <VConfSearch Rank>
866

> <Conf_Id>
54

> <Delta U+W>
-0.048

> <U+W>
-51.793

> <U>
8.964

> <W>
-60.756

> <W(PB)>
-63.007

> <W(SA)>
2.251

> <Valence>
9.327

> <Coulomb>
-0.780

> <VdW>
0.417

> <VdW6>
-6.635

> <VdW12>
7.052

> <Bond>
0.105

> <Angle>
2.399

> <Pdih>
6.822

> <Idih>
0.000

> <Tether>
0.000

$$$$
VeraChem MOL file


 20 19  0  0  0  0  0  0  0  0999 V2000     
   16.6729   19.0236   23.3341 C   0  0  0  0  0  0  0  0  0  0  0  0
   15.6994   18.7274   22.9471 H   0  0  0  0  0  0  0  0  0  0  0  0
   16.8912   18.7889   24.3747 H   0  0  0  0  0  0  0  0  0  0  0  0
   17.5631   19.6478   22.5585 C   0  0  0  0  0  0  0  0  0  0  0  0
   17.3229   19.8763   21.5206 H   0  0  0  0  0  0  0  0  0  0  0  0
   18.9308   20.0950   23.0290 C   0  0  0  0  0  0  0  0  0  0  0  0
   18.9420   20.1594   24.1254 H   0  0  0  0  0  0  0  0  0  0  0  0
   19.1413   21.1076   22.6597 H   0  0  0  0  0  0  0  0  0  0  0  0
   20.0527   19.1322   22.5787 C   0  0  0  0  0  0  0  0  0  0  0  0
   20.9906   19.4342   23.0646 H   0  0  0  0  0  0  0  0  0  0  0  0
   19.8283   18.1175   22.9355 H   0  0  0  0  0  0  0  0  0  0  0  0
   20.2522   19.1162   21.0445 C   0  0  0  0  0  0  0  0  0  0  0  0
   20.4621   20.1333   20.6855 H   0  0  0  0  0  0  0  0  0  0  0  0
   19.3224   18.7943   20.5572 H   0  0  0  0  0  0  0  0  0  0  0  0
   21.3979   18.1689   20.6028 C   0  0  0  0  0  0  0  0  0  0  0  0
   21.2193   17.1557   20.9828 H   0  0  0  0  0  0  0  0  0  0  0  0
   21.4143   18.0993   19.5088 H   0  0  0  0  0  0  0  0  0  0  0  0
   22.7848   18.6204   21.0516 C   0  0  0  0  0  0  0  0  0  0  0  0
   23.3102   18.0334   21.9771 O   0  5  0  0  0  0  0  0  0  0  0  0
   23.3077   19.5415   20.4556 O   0  0  0  0  0  0  0  0  0  0  0  0
  1  2  1  0  0  0  0
  1  3  1  0  0  0  0
  1  4  2  0  0  0  0
  4  5  1  0  0  0  0
  4  6  1  0  0  0  0
  6  7  1  0  0  0  0
  6  8  1  0  0  0  0
  6  9  1  0  0  0  0
  9 10  1  0  0  0  0
  9 11  1  0  0  0  0
  9 12  1  0  0  0  0
 12 13  1  0  0  0  0
 12 14  1  0  0  0  0
 12 15  1  0  0  0  0
 15 16  1  0  0  0  0
 15 17  1  0  0  0  0
 15 18  1  0  0  0  0
 18 19  1  0  0  0  0
 18 20  2  0  0  0  0
M  END
> <VConfSearch Rank>
867

> <Conf_Id>
27

> <Delta U+W>
0.478

> <U+W>
-51.267

> <U>
9.192

> <W>
-60.459

> <W(PB)>
-62.649

> <W(SA)>
2.190

> <Valence>
9.572

> <Coulomb>
-0.884

> <VdW>
0.504

> <VdW6>
-7.168

> <VdW12>
7.672

> <Bond>
0.127

> <Angle>
2.504

> <Pdih>
6.941

> <Idih>
0.001

> <Tether>
0.000

$$$$
VeraChem MOL file


 20 19  0  0  0  0  0  0  0  0999 V2000     
   22.4996   17.0080   21.7269 C   0  0  0  0  0  0  0  0  0  0  0  0
   23.3225   17.7176   21.6585 H   0  0  0  0  0  0  0  0  0  0  0  0
   22.6342   16.0372   21.2530 H   0  0  0  0  0  0  0  0  0  0  0  0
   21.3661   17.3137   22.3637 C   0  0  0  0  0  0  0  0  0  0  0  0
   20.5560   16.5874   22.4230 H   0  0  0  0  0  0  0  0  0  0  0  0
   21.1106   18.6386   23.0502 C   0  0  0  0  0  0  0  0  0  0  0  0
   22.0659   19.1434   23.2482 H   0  0  0  0  0  0  0  0  0  0  0  0
   20.6443   18.4686   24.0299 H   0  0  0  0  0  0  0  0  0  0  0  0
   20.2206   19.5772   22.2046 C   0  0  0  0  0  0  0  0  0  0  0  0
   20.1823   20.5614   22.6913 H   0  0  0  0  0  0  0  0  0  0  0  0
   20.6844   19.7308   21.2204 H   0  0  0  0  0  0  0  0  0  0  0  0
   18.7810   19.0423   22.0277 C   0  0  0  0  0  0  0  0  0  0  0  0
   18.3278   18.8647   23.0128 H   0  0  0  0  0  0  0  0  0  0  0  0
   18.8014   18.0756   21.5065 H   0  0  0  0  0  0  0  0  0  0  0  0
   17.8951   20.0288   21.2277 C   0  0  0  0  0  0  0  0  0  0  0  0
   17.8476   20.9971   21.7402 H   0  0  0  0  0  0  0  0  0  0  0  0
   18.3281   20.2074   20.2361 H   0  0  0  0  0  0  0  0  0  0  0  0
   16.4693   19.5235   21.0380 C   0  0  0  0  0  0  0  0  0  0  0  0
   16.2240   18.8541   20.0539 O   0  5  0  0  0  0  0  0  0  0  0  0
   15.6458   19.7977   21.8884 O   0  0  0  0  0  0  0  0  0  0  0  0
  1  2  1  0  0  0  0
  1  3  1  0  0  0  0
  1  4  2  0  0  0  0
  4  5  1  0  0  0  0
  4  6  1  0  0  0  0
  6  7  1  0  0  0  0
  6  8  1  0  0  0  0
  6  9  1  0  0  0  0
  9 10  1  0  0  0  0
  9 11  1  0  0  0  0
  9 12  1  0  0  0  0
 12 13  1  0  0  0  0
 12 14  1  0  0  0  0
 12 15  1  0  0  0  0
 15 16  1  0  0  0  0
 15 17  1  0  0  0  0
 15 18  1  0  0  0  0
 18 19  1  0  0  0  0
 18 20  2  0  0  0  0
M  END
> <VConfSearch Rank>
868

> <Conf_Id>
41

> <Delta U+W>
-0.634

> <U+W>
-52.379

> <U>
7.828

> <W>
-60.207

> <W(PB)>
-62.449

> <W(SA)>
2.242

> <Valence>
9.300

> <Coulomb>
-2.080

> <VdW>
0.608

> <VdW6>
-6.341

> <VdW12>
6.949

> <Bond>
0.103

> <Angle>
2.334

> <Pdih>
6.862

> <Idih>
0.001

> <Tether>
0.000

$$$$
VeraChem MOL file


 20 19  0  0  0  0  0  0  0  0999 V2000     
   20.9557   16.5791   24.5386 C   0  0  0  0  0  0  0  0  0  0  0  0
   21.0649   16.3610   25.5996 H   0  0  0  0  0  0  0  0  0  0  0  0
   20.9498   15.7346   23.8514 H   0  0  0  0  0  0  0  0  0  0  0  0
   20.8318   17.8350   24.1014 C   0  0  0  0  0  0  0  0  0  0  0  0
   20.8395   18.6667   24.8057 H   0  0  0  0  0  0  0  0  0  0  0  0
   20.6777   18.2150   22.6456 C   0  0  0  0  0  0  0  0  0  0  0  0
   20.9364   17.3641   22.0011 H   0  0  0  0  0  0  0  0  0  0  0  0
   21.3831   19.0217   22.4080 H   0  0  0  0  0  0  0  0  0  0  0  0
   19.2335   18.6725   22.3416 C   0  0  0  0  0  0  0  0  0  0  0  0
   18.5364   17.8930   22.6784 H   0  0  0  0  0  0  0  0  0  0  0  0
   19.0008   19.5699   22.9314 H   0  0  0  0  0  0  0  0  0  0  0  0
   18.9753   18.9494   20.8400 C   0  0  0  0  0  0  0  0  0  0  0  0
   17.9124   19.1920   20.7029 H   0  0  0  0  0  0  0  0  0  0  0  0
   19.1573   18.0306   20.2663 H   0  0  0  0  0  0  0  0  0  0  0  0
   19.8303   20.1003   20.2428 C   0  0  0  0  0  0  0  0  0  0  0  0
   20.8976   19.8572   20.2951 H   0  0  0  0  0  0  0  0  0  0  0  0
   19.5907   20.2160   19.1793 H   0  0  0  0  0  0  0  0  0  0  0  0
   19.6042   21.4546   20.9087 C   0  0  0  0  0  0  0  0  0  0  0  0
   18.5555   22.0302   20.6936 O   0  5  0  0  0  0  0  0  0  0  0  0
   20.4882   21.9065   21.6097 O   0  0  0  0  0  0  0  0  0  0  0  0
  1  2  1  0  0  0  0
  1  3  1  0  0  0  0
  1  4  2  0  0  0  0
  4  5  1  0  0  0  0
  4  6  1  0  0  0  0
  6  7  1  0  0  0  0
  6  8  1  0  0  0  0
  6  9  1  0  0  0  0
  9 10  1  0  0  0  0
  9 11  1  0  0  0  0
  9 12  1  0  0  0  0
 12 13  1  0  0  0  0
 12 14  1  0  0  0  0
 12 15  1  0  0  0  0
 15 16  1  0  0  0  0
 15 17  1  0  0  0  0
 15 18  1  0  0  0  0
 18 19  1  0  0  0  0
 18 20  2  0  0  0  0
M  END
> <VConfSearch Rank>
869

> <Conf_Id>
84

> <Delta U+W>
0.942

> <U+W>
-50.803

> <U>
10.196

> <W>
-60.999

> <W(PB)>
-63.182

> <W(SA)>
2.182

> <Valence>
9.837

> <Coulomb>
0.032

> <VdW>
0.328

> <VdW6>
-7.642

> <VdW12>
7.969

> <Bond>
0.151

> <Angle>
2.748

> <Pdih>
6.937

> <Idih>
0.001

> <Tether>
0.000

$$$$
VeraChem MOL file


 20 19  0  0  0  0  0  0  0  0999 V2000     
   16.7567   21.0379   21.3701 C   0  0  0  0  0  0  0  0  0  0  0  0
   15.8421   21.0796   20.7810 H   0  0  0  0  0  0  0  0  0  0  0  0
   16.6764   21.2479   22.4354 H   0  0  0  0  0  0  0  0  0  0  0  0
   17.9288   20.7380   20.8045 C   0  0  0  0  0  0  0  0  0  0  0  0
   17.9873   20.5302   19.7363 H   0  0  0  0  0  0  0  0  0  0  0  0
   19.2386   20.6623   21.5571 C   0  0  0  0  0  0  0  0  0  0  0  0
   19.1361   21.1283   22.5466 H   0  0  0  0  0  0  0  0  0  0  0  0
   20.0060   21.2327   21.0169 H   0  0  0  0  0  0  0  0  0  0  0  0
   19.7018   19.1999   21.7239 C   0  0  0  0  0  0  0  0  0  0  0  0
   18.9268   18.6338   22.2593 H   0  0  0  0  0  0  0  0  0  0  0  0
   19.8084   18.7343   20.7345 H   0  0  0  0  0  0  0  0  0  0  0  0
   21.0415   19.1052   22.4886 C   0  0  0  0  0  0  0  0  0  0  0  0
   20.9344   19.5575   23.4844 H   0  0  0  0  0  0  0  0  0  0  0  0
   21.8044   19.6894   21.9564 H   0  0  0  0  0  0  0  0  0  0  0  0
   21.5405   17.6446   22.6390 C   0  0  0  0  0  0  0  0  0  0  0  0
   21.6266   17.1702   21.6539 H   0  0  0  0  0  0  0  0  0  0  0  0
   22.5439   17.6438   23.0806 H   0  0  0  0  0  0  0  0  0  0  0  0
   20.6523   16.7738   23.5231 C   0  0  0  0  0  0  0  0  0  0  0  0
   19.9338   15.9532   22.9870 O   0  5  0  0  0  0  0  0  0  0  0  0
   20.7130   16.9310   24.7267 O   0  0  0  0  0  0  0  0  0  0  0  0
  1  2  1  0  0  0  0
  1  3  1  0  0  0  0
  1  4  2  0  0  0  0
  4  5  1  0  0  0  0
  4  6  1  0  0  0  0
  6  7  1  0  0  0  0
  6  8  1  0  0  0  0
  6  9  1  0  0  0  0
  9 10  1  0  0  0  0
  9 11  1  0  0  0  0
  9 12  1  0  0  0  0
 12 13  1  0  0  0  0
 12 14  1  0  0  0  0
 12 15  1  0  0  0  0
 15 16  1  0  0  0  0
 15 17  1  0  0  0  0
 15 18  1  0  0  0  0
 18 19  1  0  0  0  0
 18 20  2  0  0  0  0
M  END
> <VConfSearch Rank>
870

> <Conf_Id>
81

> <Delta U+W>
-0.051

> <U+W>
-51.796

> <U>
9.412

> <W>
-61.209

> <W(PB)>
-63.452

> <W(SA)>
2.243

> <Valence>
9.329

> <Coulomb>
-0.323

> <VdW>
0.406

> <VdW6>
-6.640

> <VdW12>
7.046

> <Bond>
0.105

> <Angle>
2.401

> <Pdih>
6.823

> <Idih>
0.000

> <Tether>
0.000

$$$$
VeraChem MOL file


 20 19  0  0  0  0  0  0  0  0999 V2000     
   19.0427   17.1715   19.4895 C   0  0  0  0  0  0  0  0  0  0  0  0
   18.2427   17.6360   18.9153 H   0  0  0  0  0  0  0  0  0  0  0  0
   19.6185   16.3864   19.0024 H   0  0  0  0  0  0  0  0  0  0  0  0
   19.3123   17.5493   20.7418 C   0  0  0  0  0  0  0  0  0  0  0  0
   20.1159   17.0698   21.2999 H   0  0  0  0  0  0  0  0  0  0  0  0
   18.5526   18.6276   21.4846 C   0  0  0  0  0  0  0  0  0  0  0  0
   18.3238   18.2925   22.5045 H   0  0  0  0  0  0  0  0  0  0  0  0
   17.5814   18.7965   21.0004 H   0  0  0  0  0  0  0  0  0  0  0  0
   19.3207   19.9703   21.5258 C   0  0  0  0  0  0  0  0  0  0  0  0
   19.4617   20.3287   20.4969 H   0  0  0  0  0  0  0  0  0  0  0  0
   18.6961   20.7224   22.0269 H   0  0  0  0  0  0  0  0  0  0  0  0
   20.7028   19.9053   22.2256 C   0  0  0  0  0  0  0  0  0  0  0  0
   21.1699   20.8985   22.1746 H   0  0  0  0  0  0  0  0  0  0  0  0
   21.3647   19.2299   21.6675 H   0  0  0  0  0  0  0  0  0  0  0  0
   20.6505   19.4555   23.7112 C   0  0  0  0  0  0  0  0  0  0  0  0
   20.2584   18.4353   23.7922 H   0  0  0  0  0  0  0  0  0  0  0  0
   21.6678   19.4300   24.1187 H   0  0  0  0  0  0  0  0  0  0  0  0
   19.8235   20.3701   24.6101 C   0  0  0  0  0  0  0  0  0  0  0  0
   18.7545   19.9623   25.0200 O   0  5  0  0  0  0  0  0  0  0  0  0
   20.2796   21.4612   24.8911 O   0  0  0  0  0  0  0  0  0  0  0  0
  1  2  1  0  0  0  0
  1  3  1  0  0  0  0
  1  4  2  0  0  0  0
  4  5  1  0  0  0  0
  4  6  1  0  0  0  0
  6  7  1  0  0  0  0
  6  8  1  0  0  0  0
  6  9  1  0  0  0  0
  9 10  1  0  0  0  0
  9 11  1  0  0  0  0
  9 12  1  0  0  0  0
 12 13  1  0  0  0  0
 12 14  1  0  0  0  0
 12 15  1  0  0  0  0
 15 16  1  0  0  0  0
 15 17  1  0  0  0  0
 15 18  1  0  0  0  0
 18 19  1  0  0  0  0
 18 20  2  0  0  0  0
M  END
> <VConfSearch Rank>
871

> <Conf_Id>
86

> <Delta U+W>
1.248

> <U+W>
-50.498

> <U>
10.404

> <W>
-60.901

> <W(PB)>
-63.061

> <W(SA)>
2.159

> <Valence>
10.021

> <Coulomb>
0.094

> <VdW>
0.289

> <VdW6>
-8.409

> <VdW12>
8.698

> <Bond>
0.179

> <Angle>
2.939

> <Pdih>
6.902

> <Idih>
0.001

> <Tether>
0.000

$$$$
VeraChem MOL file


 20 19  0  0  0  0  0  0  0  0999 V2000     
   17.0468   17.9855   23.0085 C   0  0  0  0  0  0  0  0  0  0  0  0
   16.4272   18.0309   23.9024 H   0  0  0  0  0  0  0  0  0  0  0  0
   16.6103   18.3435   22.0774 H   0  0  0  0  0  0  0  0  0  0  0  0
   18.2946   17.5117   23.0567 C   0  0  0  0  0  0  0  0  0  0  0  0
   18.7135   17.1602   23.9993 H   0  0  0  0  0  0  0  0  0  0  0  0
   19.2147   17.4180   21.8580 C   0  0  0  0  0  0  0  0  0  0  0  0
   18.6581   17.5971   20.9281 H   0  0  0  0  0  0  0  0  0  0  0  0
   19.6114   16.3964   21.7896 H   0  0  0  0  0  0  0  0  0  0  0  0
   20.3987   18.4069   21.9487 C   0  0  0  0  0  0  0  0  0  0  0  0
   20.9536   18.2311   22.8804 H   0  0  0  0  0  0  0  0  0  0  0  0
   21.0958   18.1986   21.1255 H   0  0  0  0  0  0  0  0  0  0  0  0
   19.9484   19.8854   21.8780 C   0  0  0  0  0  0  0  0  0  0  0  0
   19.2569   20.0969   22.7045 H   0  0  0  0  0  0  0  0  0  0  0  0
   19.3902   20.0599   20.9478 H   0  0  0  0  0  0  0  0  0  0  0  0
   21.1390   20.8760   21.9574 C   0  0  0  0  0  0  0  0  0  0  0  0
   20.7578   21.9016   22.0268 H   0  0  0  0  0  0  0  0  0  0  0  0
   21.7244   20.6925   22.8664 H   0  0  0  0  0  0  0  0  0  0  0  0
   22.0759   20.8179   20.7542 C   0  0  0  0  0  0  0  0  0  0  0  0
   21.7104   21.3380   19.7183 O   0  5  0  0  0  0  0  0  0  0  0  0
   23.1501   20.2651   20.8869 O   0  0  0  0  0  0  0  0  0  0  0  0
  1  2  1  0  0  0  0
  1  3  1  0  0  0  0
  1  4  2  0  0  0  0
  4  5  1  0  0  0  0
  4  6  1  0  0  0  0
  6  7  1  0  0  0  0
  6  8  1  0  0  0  0
  6  9  1  0  0  0  0
  9 10  1  0  0  0  0
  9 11  1  0  0  0  0
  9 12  1  0  0  0  0
 12 13  1  0  0  0  0
 12 14  1  0  0  0  0
 12 15  1  0  0  0  0
 15 16  1  0  0  0  0
 15 17  1  0  0  0  0
 15 18  1  0  0  0  0
 18 19  1  0  0  0  0
 18 20  2  0  0  0  0
M  END
> <VConfSearch Rank>
872

> <Conf_Id>
28

> <Delta U+W>
0.446

> <U+W>
-51.299

> <U>
9.295

> <W>
-60.594

> <W(PB)>
-62.806

> <W(SA)>
2.212

> <Valence>
9.495

> <Coulomb>
-0.610

> <VdW>
0.409

> <VdW6>
-7.332

> <VdW12>
7.741

> <Bond>
0.126

> <Angle>
2.497

> <Pdih>
6.872

> <Idih>
0.000

> <Tether>
0.000

$$$$
VeraChem MOL file


 20 19  0  0  0  0  0  0  0  0999 V2000     
   18.8432   19.3692   25.1350 C   0  0  0  0  0  0  0  0  0  0  0  0
   19.0515   18.3280   24.8983 H   0  0  0  0  0  0  0  0  0  0  0  0
   18.6279   19.6027   26.1763 H   0  0  0  0  0  0  0  0  0  0  0  0
   18.8503   20.3321   24.2062 C   0  0  0  0  0  0  0  0  0  0  0  0
   18.6362   21.3580   24.5050 H   0  0  0  0  0  0  0  0  0  0  0  0
   19.1298   20.1617   22.7221 C   0  0  0  0  0  0  0  0  0  0  0  0
   20.0225   20.7478   22.4685 H   0  0  0  0  0  0  0  0  0  0  0  0
   18.3044   20.6125   22.1554 H   0  0  0  0  0  0  0  0  0  0  0  0
   19.3188   18.6966   22.2571 C   0  0  0  0  0  0  0  0  0  0  0  0
   20.1980   18.2625   22.7527 H   0  0  0  0  0  0  0  0  0  0  0  0
   18.4516   18.1043   22.5793 H   0  0  0  0  0  0  0  0  0  0  0  0
   19.4615   18.5496   20.7218 C   0  0  0  0  0  0  0  0  0  0  0  0
   18.5574   18.9399   20.2353 H   0  0  0  0  0  0  0  0  0  0  0  0
   19.5070   17.4804   20.4724 H   0  0  0  0  0  0  0  0  0  0  0  0
   20.7080   19.2542   20.1198 C   0  0  0  0  0  0  0  0  0  0  0  0
   20.7188   19.1060   19.0337 H   0  0  0  0  0  0  0  0  0  0  0  0
   20.6584   20.3365   20.2840 H   0  0  0  0  0  0  0  0  0  0  0  0
   22.0384   18.7378   20.6604 C   0  0  0  0  0  0  0  0  0  0  0  0
   22.3964   17.6237   20.3315 O   0  5  0  0  0  0  0  0  0  0  0  0
   22.6914   19.4695   21.3780 O   0  0  0  0  0  0  0  0  0  0  0  0
  1  2  1  0  0  0  0
  1  3  1  0  0  0  0
  1  4  2  0  0  0  0
  4  5  1  0  0  0  0
  4  6  1  0  0  0  0
  6  7  1  0  0  0  0
  6  8  1  0  0  0  0
  6  9  1  0  0  0  0
  9 10  1  0  0  0  0
  9 11  1  0  0  0  0
  9 12  1  0  0  0  0
 12 13  1  0  0  0  0
 12 14  1  0  0  0  0
 12 15  1  0  0  0  0
 15 16  1  0  0  0  0
 15 17  1  0  0  0  0
 15 18  1  0  0  0  0
 18 19  1  0  0  0  0
 18 20  2  0  0  0  0
M  END
> <VConfSearch Rank>
873

> <Conf_Id>
53

> <Delta U+W>
0.549

> <U+W>
-51.197

> <U>
10.870

> <W>
-62.067

> <W(PB)>
-64.228

> <W(SA)>
2.161

> <Valence>
8.803

> <Coulomb>
1.020

> <VdW>
1.048

> <VdW6>
-8.312

> <VdW12>
9.360

> <Bond>
0.212

> <Angle>
3.379

> <Pdih>
5.211

> <Idih>
0.001

> <Tether>
0.000

$$$$
VeraChem MOL file


 20 19  0  0  0  0  0  0  0  0999 V2000     
   17.4880   18.0018   20.5613 C   0  0  0  0  0  0  0  0  0  0  0  0
   18.2995   17.5918   19.9641 H   0  0  0  0  0  0  0  0  0  0  0  0
   16.5660   18.2495   20.0385 H   0  0  0  0  0  0  0  0  0  0  0  0
   17.6007   18.1926   21.8802 C   0  0  0  0  0  0  0  0  0  0  0  0
   16.7560   18.6038   22.4323 H   0  0  0  0  0  0  0  0  0  0  0  0
   18.8239   17.8986   22.7329 C   0  0  0  0  0  0  0  0  0  0  0  0
   18.6834   16.9283   23.2270 H   0  0  0  0  0  0  0  0  0  0  0  0
   18.8702   18.6257   23.5538 H   0  0  0  0  0  0  0  0  0  0  0  0
   20.1845   17.8992   21.9883 C   0  0  0  0  0  0  0  0  0  0  0  0
   20.9705   17.6028   22.6963 H   0  0  0  0  0  0  0  0  0  0  0  0
   20.1772   17.1210   21.2139 H   0  0  0  0  0  0  0  0  0  0  0  0
   20.5739   19.2571   21.3468 C   0  0  0  0  0  0  0  0  0  0  0  0
   19.8343   19.5305   20.5834 H   0  0  0  0  0  0  0  0  0  0  0  0
   21.5280   19.1343   20.8161 H   0  0  0  0  0  0  0  0  0  0  0  0
   20.7137   20.4297   22.3556 C   0  0  0  0  0  0  0  0  0  0  0  0
   20.9847   21.3434   21.8140 H   0  0  0  0  0  0  0  0  0  0  0  0
   19.7548   20.6334   22.8454 H   0  0  0  0  0  0  0  0  0  0  0  0
   21.7749   20.2064   23.4292 C   0  0  0  0  0  0  0  0  0  0  0  0
   21.4071   19.9929   24.5677 O   0  5  0  0  0  0  0  0  0  0  0  0
   22.9435   20.2700   23.1009 O   0  0  0  0  0  0  0  0  0  0  0  0
  1  2  1  0  0  0  0
  1  3  1  0  0  0  0
  1  4  2  0  0  0  0
  4  5  1  0  0  0  0
  4  6  1  0  0  0  0
  6  7  1  0  0  0  0
  6  8  1  0  0  0  0
  6  9  1  0  0  0  0
  9 10  1  0  0  0  0
  9 11  1  0  0  0  0
  9 12  1  0  0  0  0
 12 13  1  0  0  0  0
 12 14  1  0  0  0  0
 12 15  1  0  0  0  0
 15 16  1  0  0  0  0
 15 17  1  0  0  0  0
 15 18  1  0  0  0  0
 18 19  1  0  0  0  0
 18 20  2  0  0  0  0
M  END
> <VConfSearch Rank>
874

> <Conf_Id>
66

> <Delta U+W>
1.737

> <U+W>
-50.008

> <U>
11.091

> <W>
-61.099

> <W(PB)>
-63.213

> <W(SA)>
2.114

> <Valence>
9.664

> <Coulomb>
0.658

> <VdW>
0.769

> <VdW6>
-9.171

> <VdW12>
9.940

> <Bond>
0.244

> <Angle>
3.658

> <Pdih>
5.762

> <Idih>
0.001

> <Tether>
0.000

$$$$
VeraChem MOL file


 20 19  0  0  0  0  0  0  0  0999 V2000     
   19.9256   21.5538   20.9841 C   0  0  0  0  0  0  0  0  0  0  0  0
   20.1030   20.9409   20.1031 H   0  0  0  0  0  0  0  0  0  0  0  0
   19.4439   22.5171   20.8264 H   0  0  0  0  0  0  0  0  0  0  0  0
   20.2822   21.1589   22.2112 C   0  0  0  0  0  0  0  0  0  0  0  0
   20.0827   21.8140   23.0588 H   0  0  0  0  0  0  0  0  0  0  0  0
   20.9533   19.8456   22.5795 C   0  0  0  0  0  0  0  0  0  0  0  0
   20.5903   19.5252   23.5640 H   0  0  0  0  0  0  0  0  0  0  0  0
   22.0264   20.0290   22.7226 H   0  0  0  0  0  0  0  0  0  0  0  0
   20.7666   18.6821   21.5707 C   0  0  0  0  0  0  0  0  0  0  0  0
   21.1806   18.9742   20.5967 H   0  0  0  0  0  0  0  0  0  0  0  0
   21.3700   17.8271   21.9044 H   0  0  0  0  0  0  0  0  0  0  0  0
   19.3007   18.2132   21.3866 C   0  0  0  0  0  0  0  0  0  0  0  0
   19.2739   17.4520   20.5948 H   0  0  0  0  0  0  0  0  0  0  0  0
   18.6772   19.0453   21.0336 H   0  0  0  0  0  0  0  0  0  0  0  0
   18.6754   17.6140   22.6730 C   0  0  0  0  0  0  0  0  0  0  0  0
   19.3129   16.8139   23.0674 H   0  0  0  0  0  0  0  0  0  0  0  0
   18.5916   18.3796   23.4525 H   0  0  0  0  0  0  0  0  0  0  0  0
   17.2842   17.0362   22.4384 C   0  0  0  0  0  0  0  0  0  0  0  0
   16.3241   17.7620   22.6065 O   0  5  0  0  0  0  0  0  0  0  0  0
   17.1976   15.8783   22.0795 O   0  0  0  0  0  0  0  0  0  0  0  0
  1  2  1  0  0  0  0
  1  3  1  0  0  0  0
  1  4  2  0  0  0  0
  4  5  1  0  0  0  0
  4  6  1  0  0  0  0
  6  7  1  0  0  0  0
  6  8  1  0  0  0  0
  6  9  1  0  0  0  0
  9 10  1  0  0  0  0
  9 11  1  0  0  0  0
  9 12  1  0  0  0  0
 12 13  1  0  0  0  0
 12 14  1  0  0  0  0
 12 15  1  0  0  0  0
 15 16  1  0  0  0  0
 15 17  1  0  0  0  0
 15 18  1  0  0  0  0
 18 19  1  0  0  0  0
 18 20  2  0  0  0  0
M  END
> <VConfSearch Rank>
875

> <Conf_Id>
64

> <Delta U+W>
0.366

> <U+W>
-51.379

> <U>
10.000

> <W>
-61.379

> <W(PB)>
-63.541

> <W(SA)>
2.162

> <Valence>
9.398

> <Coulomb>
-0.504

> <VdW>
1.105

> <VdW6>
-7.975

> <VdW12>
9.080

> <Bond>
0.216

> <Angle>
3.417

> <Pdih>
5.765

> <Idih>
0.001

> <Tether>
0.000

$$$$
VeraChem MOL file


 20 19  0  0  0  0  0  0  0  0999 V2000     
   20.3457   20.0911   24.7944 C   0  0  0  0  0  0  0  0  0  0  0  0
   20.5058   21.0823   24.3733 H   0  0  0  0  0  0  0  0  0  0  0  0
   20.9863   19.7883   25.6209 H   0  0  0  0  0  0  0  0  0  0  0  0
   19.4038   19.2739   24.3159 C   0  0  0  0  0  0  0  0  0  0  0  0
   19.2616   18.2846   24.7501 H   0  0  0  0  0  0  0  0  0  0  0  0
   18.4774   19.6239   23.1708 C   0  0  0  0  0  0  0  0  0  0  0  0
   18.5465   20.6936   22.9307 H   0  0  0  0  0  0  0  0  0  0  0  0
   17.4397   19.4426   23.4807 H   0  0  0  0  0  0  0  0  0  0  0  0
   18.7719   18.7906   21.9032 C   0  0  0  0  0  0  0  0  0  0  0  0
   18.7034   17.7207   22.1437 H   0  0  0  0  0  0  0  0  0  0  0  0
   17.9936   18.9954   21.1554 H   0  0  0  0  0  0  0  0  0  0  0  0
   20.1575   19.1026   21.2930 C   0  0  0  0  0  0  0  0  0  0  0  0
   20.9471   18.8762   22.0227 H   0  0  0  0  0  0  0  0  0  0  0  0
   20.2300   20.1759   21.0691 H   0  0  0  0  0  0  0  0  0  0  0  0
   20.4135   18.2909   19.9993 C   0  0  0  0  0  0  0  0  0  0  0  0
   20.3567   17.2161   20.2096 H   0  0  0  0  0  0  0  0  0  0  0  0
   19.6436   18.5165   19.2517 H   0  0  0  0  0  0  0  0  0  0  0  0
   21.7751   18.5812   19.3782 C   0  0  0  0  0  0  0  0  0  0  0  0
   21.8604   19.4994   18.5867 O   0  5  0  0  0  0  0  0  0  0  0  0
   22.7175   17.8907   19.7126 O   0  0  0  0  0  0  0  0  0  0  0  0
  1  2  1  0  0  0  0
  1  3  1  0  0  0  0
  1  4  2  0  0  0  0
  4  5  1  0  0  0  0
  4  6  1  0  0  0  0
  6  7  1  0  0  0  0
  6  8  1  0  0  0  0
  6  9  1  0  0  0  0
  9 10  1  0  0  0  0
  9 11  1  0  0  0  0
  9 12  1  0  0  0  0
 12 13  1  0  0  0  0
 12 14  1  0  0  0  0
 12 15  1  0  0  0  0
 15 16  1  0  0  0  0
 15 17  1  0  0  0  0
 15 18  1  0  0  0  0
 18 19  1  0  0  0  0
 18 20  2  0  0  0  0
M  END
> <VConfSearch Rank>
876

> <Conf_Id>
42

> <Delta U+W>
-0.601

> <U+W>
-52.347

> <U>
8.428

> <W>
-60.774

> <W(PB)>
-62.982

> <W(SA)>
2.208

> <Valence>
9.231

> <Coulomb>
-1.304

> <VdW>
0.501

> <VdW6>
-6.515

> <VdW12>
7.016

> <Bond>
0.103

> <Angle>
2.328

> <Pdih>
6.799

> <Idih>
0.000

> <Tether>
0.000

$$$$
VeraChem MOL file


 20 19  0  0  0  0  0  0  0  0999 V2000     
   19.2195   20.9515   19.6275 C   0  0  0  0  0  0  0  0  0  0  0  0
   18.7144   21.7404   20.1824 H   0  0  0  0  0  0  0  0  0  0  0  0
   18.8478   20.7235   18.6301 H   0  0  0  0  0  0  0  0  0  0  0  0
   20.2528   20.2844   20.1483 C   0  0  0  0  0  0  0  0  0  0  0  0
   20.7426   19.4961   19.5773 H   0  0  0  0  0  0  0  0  0  0  0  0
   20.8236   20.5436   21.5263 C   0  0  0  0  0  0  0  0  0  0  0  0
   20.4088   21.4687   21.9491 H   0  0  0  0  0  0  0  0  0  0  0  0
   21.9072   20.7002   21.4422 H   0  0  0  0  0  0  0  0  0  0  0  0
   20.5639   19.3701   22.4977 C   0  0  0  0  0  0  0  0  0  0  0  0
   20.9855   18.4472   22.0760 H   0  0  0  0  0  0  0  0  0  0  0  0
   21.1023   19.5597   23.4362 H   0  0  0  0  0  0  0  0  0  0  0  0
   19.0608   19.1714   22.8050 C   0  0  0  0  0  0  0  0  0  0  0  0
   18.5159   18.9392   21.8795 H   0  0  0  0  0  0  0  0  0  0  0  0
   18.6427   20.1115   23.1893 H   0  0  0  0  0  0  0  0  0  0  0  0
   18.8082   18.0460   23.8417 C   0  0  0  0  0  0  0  0  0  0  0  0
   19.3641   18.2491   24.7650 H   0  0  0  0  0  0  0  0  0  0  0  0
   17.7451   18.0263   24.1090 H   0  0  0  0  0  0  0  0  0  0  0  0
   19.1809   16.6518   23.3457 C   0  0  0  0  0  0  0  0  0  0  0  0
   20.2169   16.1568   23.7442 O   0  5  0  0  0  0  0  0  0  0  0  0
   18.4150   16.0901   22.5875 O   0  0  0  0  0  0  0  0  0  0  0  0
  1  2  1  0  0  0  0
  1  3  1  0  0  0  0
  1  4  2  0  0  0  0
  4  5  1  0  0  0  0
  4  6  1  0  0  0  0
  6  7  1  0  0  0  0
  6  8  1  0  0  0  0
  6  9  1  0  0  0  0
  9 10  1  0  0  0  0
  9 11  1  0  0  0  0
  9 12  1  0  0  0  0
 12 13  1  0  0  0  0
 12 14  1  0  0  0  0
 12 15  1  0  0  0  0
 15 16  1  0  0  0  0
 15 17  1  0  0  0  0
 15 18  1  0  0  0  0
 18 19  1  0  0  0  0
 18 20  2  0  0  0  0
M  END
> <VConfSearch Rank>
877

> <Conf_Id>
68

> <Delta U+W>
0.492

> <U+W>
-51.253

> <U>
10.179

> <W>
-61.432

> <W(PB)>
-63.627

> <W(SA)>
2.195

> <Valence>
9.483

> <Coulomb>
0.361

> <VdW>
0.335

> <VdW6>
-7.385

> <VdW12>
7.720

> <Bond>
0.125

> <Angle>
2.487

> <Pdih>
6.870

> <Idih>
0.001

> <Tether>
0.000

$$$$
VeraChem MOL file


 20 19  0  0  0  0  0  0  0  0999 V2000     
   18.2667   17.4333   24.3243 C   0  0  0  0  0  0  0  0  0  0  0  0
   17.2299   17.7640   24.2874 H   0  0  0  0  0  0  0  0  0  0  0  0
   18.6532   17.1025   25.2867 H   0  0  0  0  0  0  0  0  0  0  0  0
   19.0385   17.4353   23.2343 C   0  0  0  0  0  0  0  0  0  0  0  0
   20.0728   17.0977   23.2930 H   0  0  0  0  0  0  0  0  0  0  0  0
   18.5689   17.8751   21.8640 C   0  0  0  0  0  0  0  0  0  0  0  0
   17.4713   17.8587   21.8256 H   0  0  0  0  0  0  0  0  0  0  0  0
   18.9136   17.1616   21.1036 H   0  0  0  0  0  0  0  0  0  0  0  0
   19.0555   19.2970   21.5040 C   0  0  0  0  0  0  0  0  0  0  0  0
   18.5784   19.6074   20.5644 H   0  0  0  0  0  0  0  0  0  0  0  0
   18.7168   20.0030   22.2749 H   0  0  0  0  0  0  0  0  0  0  0  0
   20.5921   19.3848   21.3460 C   0  0  0  0  0  0  0  0  0  0  0  0
   20.9238   18.6408   20.6093 H   0  0  0  0  0  0  0  0  0  0  0  0
   21.0832   19.1315   22.2955 H   0  0  0  0  0  0  0  0  0  0  0  0
   21.0638   20.7898   20.8897 C   0  0  0  0  0  0  0  0  0  0  0  0
   22.1399   20.7653   20.6817 H   0  0  0  0  0  0  0  0  0  0  0  0
   20.5660   21.0718   19.9540 H   0  0  0  0  0  0  0  0  0  0  0  0
   20.8225   21.8894   21.9200 C   0  0  0  0  0  0  0  0  0  0  0  0
   21.5819   21.9640   22.8659 O   0  5  0  0  0  0  0  0  0  0  0  0
   19.8948   22.6537   21.7399 O   0  0  0  0  0  0  0  0  0  0  0  0
  1  2  1  0  0  0  0
  1  3  1  0  0  0  0
  1  4  2  0  0  0  0
  4  5  1  0  0  0  0
  4  6  1  0  0  0  0
  6  7  1  0  0  0  0
  6  8  1  0  0  0  0
  6  9  1  0  0  0  0
  9 10  1  0  0  0  0
  9 11  1  0  0  0  0
  9 12  1  0  0  0  0
 12 13  1  0  0  0  0
 12 14  1  0  0  0  0
 12 15  1  0  0  0  0
 15 16  1  0  0  0  0
 15 17  1  0  0  0  0
 15 18  1  0  0  0  0
 18 19  1  0  0  0  0
 18 20  2  0  0  0  0
M  END
> <VConfSearch Rank>
878

> <Conf_Id>
87

> <Delta U+W>
0.339

> <U+W>
-51.407

> <U>
10.461

> <W>
-61.867

> <W(PB)>
-64.045

> <W(SA)>
2.178

> <Valence>
9.555

> <Coulomb>
0.483

> <VdW>
0.423

> <VdW6>
-7.223

> <VdW12>
7.646

> <Bond>
0.126

> <Angle>
2.492

> <Pdih>
6.936

> <Idih>
0.001

> <Tether>
0.000

$$$$
VeraChem MOL file


 20 19  0  0  0  0  0  0  0  0999 V2000     
   18.8210   21.3174   20.6441 C   0  0  0  0  0  0  0  0  0  0  0  0
   18.3727   20.9594   19.7188 H   0  0  0  0  0  0  0  0  0  0  0  0
   18.3833   22.2011   21.1052 H   0  0  0  0  0  0  0  0  0  0  0  0
   19.8668   20.6963   21.1957 C   0  0  0  0  0  0  0  0  0  0  0  0
   20.3072   21.0750   22.1173 H   0  0  0  0  0  0  0  0  0  0  0  0
   20.5326   19.4725   20.6035 C   0  0  0  0  0  0  0  0  0  0  0  0
   21.5437   19.3530   21.0148 H   0  0  0  0  0  0  0  0  0  0  0  0
   20.6670   19.6371   19.5258 H   0  0  0  0  0  0  0  0  0  0  0  0
   19.7213   18.1682   20.8031 C   0  0  0  0  0  0  0  0  0  0  0  0
   18.6631   18.3439   20.5659 H   0  0  0  0  0  0  0  0  0  0  0  0
   20.0770   17.4342   20.0673 H   0  0  0  0  0  0  0  0  0  0  0  0
   19.8525   17.5268   22.2076 C   0  0  0  0  0  0  0  0  0  0  0  0
   20.9126   17.3654   22.4470 H   0  0  0  0  0  0  0  0  0  0  0  0
   19.3897   16.5306   22.1758 H   0  0  0  0  0  0  0  0  0  0  0  0
   19.1821   18.3399   23.3445 C   0  0  0  0  0  0  0  0  0  0  0  0
   19.7129   19.2831   23.5077 H   0  0  0  0  0  0  0  0  0  0  0  0
   18.1485   18.5880   23.0753 H   0  0  0  0  0  0  0  0  0  0  0  0
   19.1599   17.5905   24.6717 C   0  0  0  0  0  0  0  0  0  0  0  0
   20.1139   17.7105   25.4149 O   0  5  0  0  0  0  0  0  0  0  0  0
   18.1985   16.8894   24.9188 O   0  0  0  0  0  0  0  0  0  0  0  0
  1  2  1  0  0  0  0
  1  3  1  0  0  0  0
  1  4  2  0  0  0  0
  4  5  1  0  0  0  0
  4  6  1  0  0  0  0
  6  7  1  0  0  0  0
  6  8  1  0  0  0  0
  6  9  1  0  0  0  0
  9 10  1  0  0  0  0
  9 11  1  0  0  0  0
  9 12  1  0  0  0  0
 12 13  1  0  0  0  0
 12 14  1  0  0  0  0
 12 15  1  0  0  0  0
 15 16  1  0  0  0  0
 15 17  1  0  0  0  0
 15 18  1  0  0  0  0
 18 19  1  0  0  0  0
 18 20  2  0  0  0  0
M  END
> <VConfSearch Rank>
879

> <Conf_Id>
51

> <Delta U+W>
1.709

> <U+W>
-50.036

> <U>
10.643

> <W>
-60.679

> <W(PB)>
-62.882

> <W(SA)>
2.203

> <Valence>
11.231

> <Coulomb>
-1.077

> <VdW>
0.489

> <VdW6>
-7.546

> <VdW12>
8.035

> <Bond>
0.159

> <Angle>
3.005

> <Pdih>
8.065

> <Idih>
0.002

> <Tether>
0.000

$$$$
VeraChem MOL file


 20 19  0  0  0  0  0  0  0  0999 V2000     
   19.8776   21.9233   22.1469 C   0  0  0  0  0  0  0  0  0  0  0  0
   18.9759   22.2890   21.6584 H   0  0  0  0  0  0  0  0  0  0  0  0
   20.7907   22.5006   22.0129 H   0  0  0  0  0  0  0  0  0  0  0  0
   19.8668   20.8077   22.8810 C   0  0  0  0  0  0  0  0  0  0  0  0
   20.7774   20.4627   23.3695 H   0  0  0  0  0  0  0  0  0  0  0  0
   18.6328   19.9640   23.1197 C   0  0  0  0  0  0  0  0  0  0  0  0
   17.7971   20.6325   23.3670 H   0  0  0  0  0  0  0  0  0  0  0  0
   18.7737   19.3248   24.0015 H   0  0  0  0  0  0  0  0  0  0  0  0
   18.2264   19.1014   21.8991 C   0  0  0  0  0  0  0  0  0  0  0  0
   17.1733   18.8150   22.0245 H   0  0  0  0  0  0  0  0  0  0  0  0
   18.2669   19.7052   20.9822 H   0  0  0  0  0  0  0  0  0  0  0  0
   19.0485   17.8007   21.7166 C   0  0  0  0  0  0  0  0  0  0  0  0
   18.5617   17.1914   20.9425 H   0  0  0  0  0  0  0  0  0  0  0  0
   19.0173   17.2064   22.6401 H   0  0  0  0  0  0  0  0  0  0  0  0
   20.5233   18.0325   21.2988 C   0  0  0  0  0  0  0  0  0  0  0  0
   20.5716   18.7021   20.4318 H   0  0  0  0  0  0  0  0  0  0  0  0
   21.0831   18.5077   22.1105 H   0  0  0  0  0  0  0  0  0  0  0  0
   21.2450   16.7387   20.9399 C   0  0  0  0  0  0  0  0  0  0  0  0
   21.7995   16.1246   21.8300 O   0  5  0  0  0  0  0  0  0  0  0  0
   21.2166   16.3677   19.7830 O   0  0  0  0  0  0  0  0  0  0  0  0
  1  2  1  0  0  0  0
  1  3  1  0  0  0  0
  1  4  2  0  0  0  0
  4  5  1  0  0  0  0
  4  6  1  0  0  0  0
  6  7  1  0  0  0  0
  6  8  1  0  0  0  0
  6  9  1  0  0  0  0
  9 10  1  0  0  0  0
  9 11  1  0  0  0  0
  9 12  1  0  0  0  0
 12 13  1  0  0  0  0
 12 14  1  0  0  0  0
 12 15  1  0  0  0  0
 15 16  1  0  0  0  0
 15 17  1  0  0  0  0
 15 18  1  0  0  0  0
 18 19  1  0  0  0  0
 18 20  2  0  0  0  0
M  END
> <VConfSearch Rank>
880

> <Conf_Id>
91

> <Delta U+W>
1.604

> <U+W>
-50.141

> <U>
10.644

> <W>
-60.786

> <W(PB)>
-62.965

> <W(SA)>
2.179

> <Valence>
11.230

> <Coulomb>
-1.075

> <VdW>
0.489

> <VdW6>
-7.547

> <VdW12>
8.036

> <Bond>
0.159

> <Angle>
3.006

> <Pdih>
8.064

> <Idih>
0.002

> <Tether>
0.000

$$$$
VeraChem MOL file


 20 19  0  0  0  0  0  0  0  0999 V2000     
   16.4993   17.3761   22.0294 C   0  0  0  0  0  0  0  0  0  0  0  0
   16.0489   18.3659   22.0833 H   0  0  0  0  0  0  0  0  0  0  0  0
   15.9014   16.5342   22.3745 H   0  0  0  0  0  0  0  0  0  0  0  0
   17.7373   17.1975   21.5614 C   0  0  0  0  0  0  0  0  0  0  0  0
   18.1700   16.1982   21.5166 H   0  0  0  0  0  0  0  0  0  0  0  0
   18.6254   18.3165   21.0646 C   0  0  0  0  0  0  0  0  0  0  0  0
   18.0337   19.2274   20.9008 H   0  0  0  0  0  0  0  0  0  0  0  0
   19.0556   18.0402   20.0926 H   0  0  0  0  0  0  0  0  0  0  0  0
   19.7601   18.6140   22.0671 C   0  0  0  0  0  0  0  0  0  0  0  0
   19.3245   18.8857   23.0386 H   0  0  0  0  0  0  0  0  0  0  0  0
   20.3543   17.7039   22.2271 H   0  0  0  0  0  0  0  0  0  0  0  0
   20.6789   19.7531   21.5737 C   0  0  0  0  0  0  0  0  0  0  0  0
   20.0853   20.6639   21.4139 H   0  0  0  0  0  0  0  0  0  0  0  0
   21.1138   19.4826   20.6015 H   0  0  0  0  0  0  0  0  0  0  0  0
   21.8195   20.0526   22.5825 C   0  0  0  0  0  0  0  0  0  0  0  0
   21.3923   20.3296   23.5535 H   0  0  0  0  0  0  0  0  0  0  0  0
   22.4200   19.1494   22.7419 H   0  0  0  0  0  0  0  0  0  0  0  0
   22.7781   21.1708   22.1703 C   0  0  0  0  0  0  0  0  0  0  0  0
   23.6853   21.4331   22.9347 O   0  5  0  0  0  0  0  0  0  0  0  0
   22.6092   21.7513   21.1153 O   0  0  0  0  0  0  0  0  0  0  0  0
  1  2  1  0  0  0  0
  1  3  1  0  0  0  0
  1  4  2  0  0  0  0
  4  5  1  0  0  0  0
  4  6  1  0  0  0  0
  6  7  1  0  0  0  0
  6  8  1  0  0  0  0
  6  9  1  0  0  0  0
  9 10  1  0  0  0  0
  9 11  1  0  0  0  0
  9 12  1  0  0  0  0
 12 13  1  0  0  0  0
 12 14  1  0  0  0  0
 12 15  1  0  0  0  0
 15 16  1  0  0  0  0
 15 17  1  0  0  0  0
 15 18  1  0  0  0  0
 18 19  1  0  0  0  0
 18 20  2  0  0  0  0
M  END
> <VConfSearch Rank>
881

> <Conf_Id>
33

> <Delta U+W>
0.000

> <U+W>
-51.745

> <U>
7.593

> <W>
-59.338

> <W(PB)>
-61.574

> <W(SA)>
2.236

> <Valence>
9.570

> <Coulomb>
-3.091

> <VdW>
1.114

> <VdW6>
-6.064

> <VdW12>
7.178

> <Bond>
0.117

> <Angle>
2.692

> <Pdih>
6.761

> <Idih>
0.000

> <Tether>
0.000

$$$$
VeraChem MOL file


 20 19  0  0  0  0  0  0  0  0999 V2000     
   18.0538   21.3166   24.1439 C   0  0  0  0  0  0  0  0  0  0  0  0
   17.1911   21.3329   23.4797 H   0  0  0  0  0  0  0  0  0  0  0  0
   18.0769   22.0446   24.9530 H   0  0  0  0  0  0  0  0  0  0  0  0
   19.0480   20.4411   23.9747 C   0  0  0  0  0  0  0  0  0  0  0  0
   19.9031   20.4420   24.6503 H   0  0  0  0  0  0  0  0  0  0  0  0
   19.0850   19.4019   22.8763 C   0  0  0  0  0  0  0  0  0  0  0  0
   18.0930   19.3011   22.4156 H   0  0  0  0  0  0  0  0  0  0  0  0
   19.3332   18.4261   23.3124 H   0  0  0  0  0  0  0  0  0  0  0  0
   20.1201   19.7773   21.7921 C   0  0  0  0  0  0  0  0  0  0  0  0
   19.9015   20.7918   21.4309 H   0  0  0  0  0  0  0  0  0  0  0  0
   21.1238   19.8163   22.2371 H   0  0  0  0  0  0  0  0  0  0  0  0
   20.1240   18.8129   20.5822 C   0  0  0  0  0  0  0  0  0  0  0  0
   20.8011   19.2133   19.8149 H   0  0  0  0  0  0  0  0  0  0  0  0
   19.1240   18.7830   20.1279 H   0  0  0  0  0  0  0  0  0  0  0  0
   20.5734   17.3725   20.9402 C   0  0  0  0  0  0  0  0  0  0  0  0
   21.5525   17.3930   21.4335 H   0  0  0  0  0  0  0  0  0  0  0  0
   19.8668   16.9091   21.6378 H   0  0  0  0  0  0  0  0  0  0  0  0
   20.6787   16.4675   19.7180 C   0  0  0  0  0  0  0  0  0  0  0  0
   19.6892   15.8526   19.3724 O   0  5  0  0  0  0  0  0  0  0  0  0
   21.7420   16.4164   19.1319 O   0  0  0  0  0  0  0  0  0  0  0  0
  1  2  1  0  0  0  0
  1  3  1  0  0  0  0
  1  4  2  0  0  0  0
  4  5  1  0  0  0  0
  4  6  1  0  0  0  0
  6  7  1  0  0  0  0
  6  8  1  0  0  0  0
  6  9  1  0  0  0  0
  9 10  1  0  0  0  0
  9 11  1  0  0  0  0
  9 12  1  0  0  0  0
 12 13  1  0  0  0  0
 12 14  1  0  0  0  0
 12 15  1  0  0  0  0
 15 16  1  0  0  0  0
 15 17  1  0  0  0  0
 15 18  1  0  0  0  0
 18 19  1  0  0  0  0
 18 20  2  0  0  0  0
M  END
> <VConfSearch Rank>
882

> <Conf_Id>
37

> <Delta U+W>
-0.384

> <U+W>
-52.130

> <U>
7.491

> <W>
-59.621

> <W(PB)>
-61.853

> <W(SA)>
2.232

> <Valence>
9.604

> <Coulomb>
-2.799

> <VdW>
0.686

> <VdW6>
-6.435

> <VdW12>
7.121

> <Bond>
0.124

> <Angle>
2.493

> <Pdih>
6.986

> <Idih>
0.001

> <Tether>
0.000

$$$$
VeraChem MOL file


 20 19  0  0  0  0  0  0  0  0999 V2000     
   22.3685   17.1402   20.8814 C   0  0  0  0  0  0  0  0  0  0  0  0
   23.1958   16.5178   20.5446 H   0  0  0  0  0  0  0  0  0  0  0  0
   22.6244   18.1054   21.3130 H   0  0  0  0  0  0  0  0  0  0  0  0
   21.1041   16.7195   20.7613 C   0  0  0  0  0  0  0  0  0  0  0  0
   20.9105   15.7419   20.3204 H   0  0  0  0  0  0  0  0  0  0  0  0
   19.8527   17.4712   21.1830 C   0  0  0  0  0  0  0  0  0  0  0  0
   19.2914   16.8509   21.8946 H   0  0  0  0  0  0  0  0  0  0  0  0
   19.1979   17.5848   20.3087 H   0  0  0  0  0  0  0  0  0  0  0  0
   20.1051   18.8616   21.8116 C   0  0  0  0  0  0  0  0  0  0  0  0
   20.7429   18.7526   22.6995 H   0  0  0  0  0  0  0  0  0  0  0  0
   20.6483   19.4945   21.0964 H   0  0  0  0  0  0  0  0  0  0  0  0
   18.7854   19.5571   22.2113 C   0  0  0  0  0  0  0  0  0  0  0  0
   18.2370   18.9287   22.9268 H   0  0  0  0  0  0  0  0  0  0  0  0
   18.1427   19.6691   21.3270 H   0  0  0  0  0  0  0  0  0  0  0  0
   19.0355   20.9496   22.8409 C   0  0  0  0  0  0  0  0  0  0  0  0
   19.6653   20.8541   23.7336 H   0  0  0  0  0  0  0  0  0  0  0  0
   19.5710   21.5944   22.1338 H   0  0  0  0  0  0  0  0  0  0  0  0
   17.7467   21.6569   23.2442 C   0  0  0  0  0  0  0  0  0  0  0  0
   17.3136   21.4658   24.3634 O   0  5  0  0  0  0  0  0  0  0  0  0
   17.1994   22.3647   22.4219 O   0  0  0  0  0  0  0  0  0  0  0  0
  1  2  1  0  0  0  0
  1  3  1  0  0  0  0
  1  4  2  0  0  0  0
  4  5  1  0  0  0  0
  4  6  1  0  0  0  0
  6  7  1  0  0  0  0
  6  8  1  0  0  0  0
  6  9  1  0  0  0  0
  9 10  1  0  0  0  0
  9 11  1  0  0  0  0
  9 12  1  0  0  0  0
 12 13  1  0  0  0  0
 12 14  1  0  0  0  0
 12 15  1  0  0  0  0
 15 16  1  0  0  0  0
 15 17  1  0  0  0  0
 15 18  1  0  0  0  0
 18 19  1  0  0  0  0
 18 20  2  0  0  0  0
M  END
> <VConfSearch Rank>
883

> <Conf_Id>
44

> <Delta U+W>
-1.440

> <U+W>
-53.185

> <U>
6.572

> <W>
-59.757

> <W(PB)>
-62.007

> <W(SA)>
2.249

> <Valence>
7.989

> <Coulomb>
-2.697

> <VdW>
1.281

> <VdW6>
-6.467

> <VdW12>
7.748

> <Bond>
0.136

> <Angle>
2.854

> <Pdih>
4.997

> <Idih>
0.001

> <Tether>
0.000

$$$$
VeraChem MOL file


 20 19  0  0  0  0  0  0  0  0999 V2000     
   23.1608   19.8477   22.0892 C   0  0  0  0  0  0  0  0  0  0  0  0
   23.2154   18.7941   22.3587 H   0  0  0  0  0  0  0  0  0  0  0  0
   24.0462   20.4563   22.2652 H   0  0  0  0  0  0  0  0  0  0  0  0
   22.0522   20.3774   21.5656 C   0  0  0  0  0  0  0  0  0  0  0  0
   22.0182   21.4346   21.3033 H   0  0  0  0  0  0  0  0  0  0  0  0
   20.7865   19.5956   21.2919 C   0  0  0  0  0  0  0  0  0  0  0  0
   20.9984   18.5193   21.3266 H   0  0  0  0  0  0  0  0  0  0  0  0
   20.4315   19.8166   20.2765 H   0  0  0  0  0  0  0  0  0  0  0  0
   19.6836   19.9490   22.3150 C   0  0  0  0  0  0  0  0  0  0  0  0
   20.0187   19.6768   23.3254 H   0  0  0  0  0  0  0  0  0  0  0  0
   19.5387   21.0381   22.3196 H   0  0  0  0  0  0  0  0  0  0  0  0
   18.3245   19.2723   22.0166 C   0  0  0  0  0  0  0  0  0  0  0  0
   17.9834   19.5514   21.0100 H   0  0  0  0  0  0  0  0  0  0  0  0
   17.5746   19.6643   22.7176 H   0  0  0  0  0  0  0  0  0  0  0  0
   18.3618   17.7269   22.1408 C   0  0  0  0  0  0  0  0  0  0  0  0
   19.0340   17.2946   21.3912 H   0  0  0  0  0  0  0  0  0  0  0  0
   18.7427   17.4355   23.1269 H   0  0  0  0  0  0  0  0  0  0  0  0
   16.9901   17.0878   21.9561 C   0  0  0  0  0  0  0  0  0  0  0  0
   16.2943   16.9286   22.9396 O   0  5  0  0  0  0  0  0  0  0  0  0
   16.6453   16.7843   20.8311 O   0  0  0  0  0  0  0  0  0  0  0  0
  1  2  1  0  0  0  0
  1  3  1  0  0  0  0
  1  4  2  0  0  0  0
  4  5  1  0  0  0  0
  4  6  1  0  0  0  0
  6  7  1  0  0  0  0
  6  8  1  0  0  0  0
  6  9  1  0  0  0  0
  9 10  1  0  0  0  0
  9 11  1  0  0  0  0
  9 12  1  0  0  0  0
 12 13  1  0  0  0  0
 12 14  1  0  0  0  0
 12 15  1  0  0  0  0
 15 16  1  0  0  0  0
 15 17  1  0  0  0  0
 15 18  1  0  0  0  0
 18 19  1  0  0  0  0
 18 20  2  0  0  0  0
M  END
> <VConfSearch Rank>
884

> <Conf_Id>
38

> <Delta U+W>
-0.381

> <U+W>
-52.126

> <U>
7.601

> <W>
-59.727

> <W(PB)>
-61.964

> <W(SA)>
2.236

> <Valence>
9.602

> <Coulomb>
-2.686

> <VdW>
0.685

> <VdW6>
-6.453

> <VdW12>
7.139

> <Bond>
0.125

> <Angle>
2.485

> <Pdih>
6.991

> <Idih>
0.001

> <Tether>
0.000

$$$$
VeraChem MOL file


 20 19  0  0  0  0  0  0  0  0999 V2000     
   19.4514   15.7085   21.5678 C   0  0  0  0  0  0  0  0  0  0  0  0
   19.9670   15.4885   22.5012 H   0  0  0  0  0  0  0  0  0  0  0  0
   18.8139   14.9300   21.1521 H   0  0  0  0  0  0  0  0  0  0  0  0
   19.5907   16.8868   20.9547 C   0  0  0  0  0  0  0  0  0  0  0  0
   19.0649   17.0873   20.0214 H   0  0  0  0  0  0  0  0  0  0  0  0
   20.4575   18.0138   21.4707 C   0  0  0  0  0  0  0  0  0  0  0  0
   21.0908   18.3922   20.6572 H   0  0  0  0  0  0  0  0  0  0  0  0
   21.1346   17.6451   22.2532 H   0  0  0  0  0  0  0  0  0  0  0  0
   19.5978   19.1645   22.0346 C   0  0  0  0  0  0  0  0  0  0  0  0
   18.9232   19.5330   21.2493 H   0  0  0  0  0  0  0  0  0  0  0  0
   18.9623   18.7810   22.8447 H   0  0  0  0  0  0  0  0  0  0  0  0
   20.4685   20.3264   22.5638 C   0  0  0  0  0  0  0  0  0  0  0  0
   21.0979   20.7193   21.7531 H   0  0  0  0  0  0  0  0  0  0  0  0
   21.1499   19.9455   23.3366 H   0  0  0  0  0  0  0  0  0  0  0  0
   19.6231   21.4802   23.1627 C   0  0  0  0  0  0  0  0  0  0  0  0
   18.9684   21.0984   23.9554 H   0  0  0  0  0  0  0  0  0  0  0  0
   20.2873   22.2183   23.6275 H   0  0  0  0  0  0  0  0  0  0  0  0
   18.7671   22.2186   22.1374 C   0  0  0  0  0  0  0  0  0  0  0  0
   17.5712   22.0032   22.1235 O   0  5  0  0  0  0  0  0  0  0  0  0
   19.3191   22.9987   21.3866 O   0  0  0  0  0  0  0  0  0  0  0  0
  1  2  1  0  0  0  0
  1  3  1  0  0  0  0
  1  4  2  0  0  0  0
  4  5  1  0  0  0  0
  4  6  1  0  0  0  0
  6  7  1  0  0  0  0
  6  8  1  0  0  0  0
  6  9  1  0  0  0  0
  9 10  1  0  0  0  0
  9 11  1  0  0  0  0
  9 12  1  0  0  0  0
 12 13  1  0  0  0  0
 12 14  1  0  0  0  0
 12 15  1  0  0  0  0
 15 16  1  0  0  0  0
 15 17  1  0  0  0  0
 15 18  1  0  0  0  0
 18 19  1  0  0  0  0
 18 20  2  0  0  0  0
M  END
> <VConfSearch Rank>
885

> <Conf_Id>
58

> <Delta U+W>
0.019

> <U+W>
-51.727

> <U>
8.963

> <W>
-60.690

> <W(PB)>
-62.934

> <W(SA)>
2.244

> <Valence>
9.327

> <Coulomb>
-0.780

> <VdW>
0.417

> <VdW6>
-6.635

> <VdW12>
7.052

> <Bond>
0.105

> <Angle>
2.399

> <Pdih>
6.822

> <Idih>
0.000

> <Tether>
0.000

$$$$
VeraChem MOL file


 20 19  0  0  0  0  0  0  0  0999 V2000     
   20.3100   20.4979   18.7572 C   0  0  0  0  0  0  0  0  0  0  0  0
   19.5093   19.8972   18.3286 H   0  0  0  0  0  0  0  0  0  0  0  0
   21.0854   20.8546   18.0814 H   0  0  0  0  0  0  0  0  0  0  0  0
   20.3447   20.7861   20.0609 C   0  0  0  0  0  0  0  0  0  0  0  0
   21.1556   21.3883   20.4701 H   0  0  0  0  0  0  0  0  0  0  0  0
   19.3046   20.3273   21.0586 C   0  0  0  0  0  0  0  0  0  0  0  0
   18.4122   19.9583   20.5350 H   0  0  0  0  0  0  0  0  0  0  0  0
   18.9820   21.1798   21.6712 H   0  0  0  0  0  0  0  0  0  0  0  0
   19.8614   19.2155   21.9723 C   0  0  0  0  0  0  0  0  0  0  0  0
   20.1875   18.3665   21.3557 H   0  0  0  0  0  0  0  0  0  0  0  0
   20.7525   19.5878   22.4965 H   0  0  0  0  0  0  0  0  0  0  0  0
   18.8115   18.7371   23.0005 C   0  0  0  0  0  0  0  0  0  0  0  0
   17.9190   18.3816   22.4680 H   0  0  0  0  0  0  0  0  0  0  0  0
   18.4911   19.5818   23.6261 H   0  0  0  0  0  0  0  0  0  0  0  0
   19.3425   17.5978   23.9088 C   0  0  0  0  0  0  0  0  0  0  0  0
   18.5265   17.2172   24.5342 H   0  0  0  0  0  0  0  0  0  0  0  0
   19.6925   16.7574   23.2971 H   0  0  0  0  0  0  0  0  0  0  0  0
   20.4719   18.0244   24.8423 C   0  0  0  0  0  0  0  0  0  0  0  0
   20.1863   18.6859   25.8210 O   0  5  0  0  0  0  0  0  0  0  0  0
   21.6045   17.6755   24.5730 O   0  0  0  0  0  0  0  0  0  0  0  0
  1  2  1  0  0  0  0
  1  3  1  0  0  0  0
  1  4  2  0  0  0  0
  4  5  1  0  0  0  0
  4  6  1  0  0  0  0
  6  7  1  0  0  0  0
  6  8  1  0  0  0  0
  6  9  1  0  0  0  0
  9 10  1  0  0  0  0
  9 11  1  0  0  0  0
  9 12  1  0  0  0  0
 12 13  1  0  0  0  0
 12 14  1  0  0  0  0
 12 15  1  0  0  0  0
 15 16  1  0  0  0  0
 15 17  1  0  0  0  0
 15 18  1  0  0  0  0
 18 19  1  0  0  0  0
 18 20  2  0  0  0  0
M  END
> <VConfSearch Rank>
886

> <Conf_Id>
54

> <Delta U+W>
-0.048

> <U+W>
-51.793

> <U>
8.964

> <W>
-60.756

> <W(PB)>
-63.007

> <W(SA)>
2.251

> <Valence>
9.327

> <Coulomb>
-0.780

> <VdW>
0.417

> <VdW6>
-6.635

> <VdW12>
7.052

> <Bond>
0.105

> <Angle>
2.399

> <Pdih>
6.822

> <Idih>
0.000

> <Tether>
0.000

$$$$
VeraChem MOL file


 20 19  0  0  0  0  0  0  0  0999 V2000     
   20.3778   22.1698   20.7534 C   0  0  0  0  0  0  0  0  0  0  0  0
   19.9223   23.1447   20.9189 H   0  0  0  0  0  0  0  0  0  0  0  0
   21.4571   22.1381   20.6138 H   0  0  0  0  0  0  0  0  0  0  0  0
   19.6382   21.0581   20.7264 C   0  0  0  0  0  0  0  0  0  0  0  0
   18.5588   21.1127   20.8649 H   0  0  0  0  0  0  0  0  0  0  0  0
   20.2005   19.6717   20.4948 C   0  0  0  0  0  0  0  0  0  0  0  0
   21.1861   19.7475   20.0158 H   0  0  0  0  0  0  0  0  0  0  0  0
   19.5600   19.1201   19.7937 H   0  0  0  0  0  0  0  0  0  0  0  0
   20.3488   18.8692   21.8072 C   0  0  0  0  0  0  0  0  0  0  0  0
   20.8857   17.9358   21.5893 H   0  0  0  0  0  0  0  0  0  0  0  0
   20.9757   19.4333   22.5115 H   0  0  0  0  0  0  0  0  0  0  0  0
   18.9890   18.5367   22.4662 C   0  0  0  0  0  0  0  0  0  0  0  0
   18.3563   17.9852   21.7570 H   0  0  0  0  0  0  0  0  0  0  0  0
   18.4594   19.4685   22.7044 H   0  0  0  0  0  0  0  0  0  0  0  0
   19.1449   17.7076   23.7676 C   0  0  0  0  0  0  0  0  0  0  0  0
   19.8020   18.2303   24.4731 H   0  0  0  0  0  0  0  0  0  0  0  0
   18.1690   17.6076   24.2572 H   0  0  0  0  0  0  0  0  0  0  0  0
   19.6898   16.2996   23.5454 C   0  0  0  0  0  0  0  0  0  0  0  0
   20.8475   16.0768   23.8405 O   0  5  0  0  0  0  0  0  0  0  0  0
   18.9373   15.4595   23.0924 O   0  0  0  0  0  0  0  0  0  0  0  0
  1  2  1  0  0  0  0
  1  3  1  0  0  0  0
  1  4  2  0  0  0  0
  4  5  1  0  0  0  0
  4  6  1  0  0  0  0
  6  7  1  0  0  0  0
  6  8  1  0  0  0  0
  6  9  1  0  0  0  0
  9 10  1  0  0  0  0
  9 11  1  0  0  0  0
  9 12  1  0  0  0  0
 12 13  1  0  0  0  0
 12 14  1  0  0  0  0
 12 15  1  0  0  0  0
 15 16  1  0  0  0  0
 15 17  1  0  0  0  0
 15 18  1  0  0  0  0
 18 19  1  0  0  0  0
 18 20  2  0  0  0  0
M  END
> <VConfSearch Rank>
887

> <Conf_Id>
27

> <Delta U+W>
0.478

> <U+W>
-51.267

> <U>
9.192

> <W>
-60.459

> <W(PB)>
-62.649

> <W(SA)>
2.190

> <Valence>
9.572

> <Coulomb>
-0.884

> <VdW>
0.504

> <VdW6>
-7.168

> <VdW12>
7.672

> <Bond>
0.127

> <Angle>
2.504

> <Pdih>
6.941

> <Idih>
0.001

> <Tether>
0.000

$$$$
VeraChem MOL file


 20 19  0  0  0  0  0  0  0  0999 V2000     
   16.7746   17.4313   22.8743 C   0  0  0  0  0  0  0  0  0  0  0  0
   16.5053   16.7070   22.1073 H   0  0  0  0  0  0  0  0  0  0  0  0
   15.9627   17.9055   23.4230 H   0  0  0  0  0  0  0  0  0  0  0  0
   18.0501   17.7315   23.1329 C   0  0  0  0  0  0  0  0  0  0  0  0
   18.2976   18.4572   23.9071 H   0  0  0  0  0  0  0  0  0  0  0  0
   19.2293   17.1089   22.4164 C   0  0  0  0  0  0  0  0  0  0  0  0
   18.9182   16.1706   21.9373 H   0  0  0  0  0  0  0  0  0  0  0  0
   20.0084   16.8396   23.1421 H   0  0  0  0  0  0  0  0  0  0  0  0
   19.8220   18.0429   21.3373 C   0  0  0  0  0  0  0  0  0  0  0  0
   20.5808   17.4889   20.7681 H   0  0  0  0  0  0  0  0  0  0  0  0
   19.0344   18.3214   20.6235 H   0  0  0  0  0  0  0  0  0  0  0  0
   20.4642   19.3172   21.9322 C   0  0  0  0  0  0  0  0  0  0  0  0
   21.2336   19.0370   22.6650 H   0  0  0  0  0  0  0  0  0  0  0  0
   19.7069   19.9020   22.4719 H   0  0  0  0  0  0  0  0  0  0  0  0
   21.1016   20.2057   20.8358 C   0  0  0  0  0  0  0  0  0  0  0  0
   21.8735   19.6453   20.2948 H   0  0  0  0  0  0  0  0  0  0  0  0
   20.3430   20.5040   20.1022 H   0  0  0  0  0  0  0  0  0  0  0  0
   21.7412   21.4706   21.3970 C   0  0  0  0  0  0  0  0  0  0  0  0
   21.0535   22.4681   21.4914 O   0  5  0  0  0  0  0  0  0  0  0  0
   22.9055   21.4203   21.7414 O   0  0  0  0  0  0  0  0  0  0  0  0
  1  2  1  0  0  0  0
  1  3  1  0  0  0  0
  1  4  2  0  0  0  0
  4  5  1  0  0  0  0
  4  6  1  0  0  0  0
  6  7  1  0  0  0  0
  6  8  1  0  0  0  0
  6  9  1  0  0  0  0
  9 10  1  0  0  0  0
  9 11  1  0  0  0  0
  9 12  1  0  0  0  0
 12 13  1  0  0  0  0
 12 14  1  0  0  0  0
 12 15  1  0  0  0  0
 15 16  1  0  0  0  0
 15 17  1  0  0  0  0
 15 18  1  0  0  0  0
 18 19  1  0  0  0  0
 18 20  2  0  0  0  0
M  END
> <VConfSearch Rank>
888

> <Conf_Id>
41

> <Delta U+W>
-0.634

> <U+W>
-52.379

> <U>
7.828

> <W>
-60.207

> <W(PB)>
-62.449

> <W(SA)>
2.242

> <Valence>
9.300

> <Coulomb>
-2.080

> <VdW>
0.608

> <VdW6>
-6.341

> <VdW12>
6.949

> <Bond>
0.103

> <Angle>
2.334

> <Pdih>
6.862

> <Idih>
0.001

> <Tether>
0.000

$$$$
VeraChem MOL file


 20 19  0  0  0  0  0  0  0  0999 V2000     
   23.1315   19.8618   23.1900 C   0  0  0  0  0  0  0  0  0  0  0  0
   23.8548   19.8788   24.0034 H   0  0  0  0  0  0  0  0  0  0  0  0
   23.5068   20.0311   22.1820 H   0  0  0  0  0  0  0  0  0  0  0  0
   21.8354   19.6394   23.4235 C   0  0  0  0  0  0  0  0  0  0  0  0
   21.4798   19.4714   24.4399 H   0  0  0  0  0  0  0  0  0  0  0  0
   20.7738   19.6022   22.3469 C   0  0  0  0  0  0  0  0  0  0  0  0
   21.1641   20.0287   21.4130 H   0  0  0  0  0  0  0  0  0  0  0  0
   19.9272   20.2293   22.6550 H   0  0  0  0  0  0  0  0  0  0  0  0
   20.2922   18.1564   22.0924 C   0  0  0  0  0  0  0  0  0  0  0  0
   21.1656   17.5233   21.8836 H   0  0  0  0  0  0  0  0  0  0  0  0
   19.8327   17.7560   23.0066 H   0  0  0  0  0  0  0  0  0  0  0  0
   19.3006   18.0337   20.9092 C   0  0  0  0  0  0  0  0  0  0  0  0
   19.0711   16.9712   20.7489 H   0  0  0  0  0  0  0  0  0  0  0  0
   19.7889   18.3847   19.9901 H   0  0  0  0  0  0  0  0  0  0  0  0
   17.9681   18.8073   21.1051 C   0  0  0  0  0  0  0  0  0  0  0  0
   18.1545   19.8836   21.1935 H   0  0  0  0  0  0  0  0  0  0  0  0
   17.3375   18.6739   20.2183 H   0  0  0  0  0  0  0  0  0  0  0  0
   17.1547   18.3513   22.3130 C   0  0  0  0  0  0  0  0  0  0  0  0
   16.5987   17.2720   22.2543 O   0  5  0  0  0  0  0  0  0  0  0  0
   17.0832   19.0934   23.2728 O   0  0  0  0  0  0  0  0  0  0  0  0
  1  2  1  0  0  0  0
  1  3  1  0  0  0  0
  1  4  2  0  0  0  0
  4  5  1  0  0  0  0
  4  6  1  0  0  0  0
  6  7  1  0  0  0  0
  6  8  1  0  0  0  0
  6  9  1  0  0  0  0
  9 10  1  0  0  0  0
  9 11  1  0  0  0  0
  9 12  1  0  0  0  0
 12 13  1  0  0  0  0
 12 14  1  0  0  0  0
 12 15  1  0  0  0  0
 15 16  1  0  0  0  0
 15 17  1  0  0  0  0
 15 18  1  0  0  0  0
 18 19  1  0  0  0  0
 18 20  2  0  0  0  0
M  END
> <VConfSearch Rank>
889

> <Conf_Id>
84

> <Delta U+W>
0.942

> <U+W>
-50.803

> <U>
10.196

> <W>
-60.999

> <W(PB)>
-63.182

> <W(SA)>
2.182

> <Valence>
9.837

> <Coulomb>
0.032

> <VdW>
0.328

> <VdW6>
-7.642

> <VdW12>
7.969

> <Bond>
0.151

> <Angle>
2.748

> <Pdih>
6.937

> <Idih>
0.001

> <Tether>
0.000

$$$$
VeraChem MOL file


 20 19  0  0  0  0  0  0  0  0999 V2000     
   19.2570   21.9902   19.9962 C   0  0  0  0  0  0  0  0  0  0  0  0
   19.7326   22.8757   19.5778 H   0  0  0  0  0  0  0  0  0  0  0  0
   18.7070   21.3462   19.3119 H   0  0  0  0  0  0  0  0  0  0  0  0
   19.3492   21.7074   21.2982 C   0  0  0  0  0  0  0  0  0  0  0  0
   19.9053   22.3649   21.9662 H   0  0  0  0  0  0  0  0  0  0  0  0
   18.7156   20.4986   21.9502 C   0  0  0  0  0  0  0  0  0  0  0  0
   17.9775   20.0453   21.2746 H   0  0  0  0  0  0  0  0  0  0  0  0
   18.1701   20.8108   22.8507 H   0  0  0  0  0  0  0  0  0  0  0  0
   19.7799   19.4471   22.3278 C   0  0  0  0  0  0  0  0  0  0  0  0
   20.3259   19.1441   21.4234 H   0  0  0  0  0  0  0  0  0  0  0  0
   20.5162   19.8986   23.0067 H   0  0  0  0  0  0  0  0  0  0  0  0
   19.1488   18.2061   22.9986 C   0  0  0  0  0  0  0  0  0  0  0  0
   18.4218   17.7436   22.3165 H   0  0  0  0  0  0  0  0  0  0  0  0
   18.5897   18.5212   23.8901 H   0  0  0  0  0  0  0  0  0  0  0  0
   20.2060   17.1507   23.4148 C   0  0  0  0  0  0  0  0  0  0  0  0
   20.9550   17.6044   24.0750 H   0  0  0  0  0  0  0  0  0  0  0  0
   19.7205   16.3516   23.9873 H   0  0  0  0  0  0  0  0  0  0  0  0
   20.9257   16.4965   22.2387 C   0  0  0  0  0  0  0  0  0  0  0  0
   22.0703   16.8317   22.0055 O   0  5  0  0  0  0  0  0  0  0  0  0
   20.3254   15.6586   21.5948 O   0  0  0  0  0  0  0  0  0  0  0  0
  1  2  1  0  0  0  0
  1  3  1  0  0  0  0
  1  4  2  0  0  0  0
  4  5  1  0  0  0  0
  4  6  1  0  0  0  0
  6  7  1  0  0  0  0
  6  8  1  0  0  0  0
  6  9  1  0  0  0  0
  9 10  1  0  0  0  0
  9 11  1  0  0  0  0
  9 12  1  0  0  0  0
 12 13  1  0  0  0  0
 12 14  1  0  0  0  0
 12 15  1  0  0  0  0
 15 16  1  0  0  0  0
 15 17  1  0  0  0  0
 15 18  1  0  0  0  0
 18 19  1  0  0  0  0
 18 20  2  0  0  0  0
M  END
> <VConfSearch Rank>
890

> <Conf_Id>
81

> <Delta U+W>
-0.051

> <U+W>
-51.796

> <U>
9.412

> <W>
-61.209

> <W(PB)>
-63.452

> <W(SA)>
2.243

> <Valence>
9.329

> <Coulomb>
-0.323

> <VdW>
0.406

> <VdW6>
-6.640

> <VdW12>
7.046

> <Bond>
0.105

> <Angle>
2.401

> <Pdih>
6.823

> <Idih>
0.000

> <Tether>
0.000

$$$$
VeraChem MOL file


 20 19  0  0  0  0  0  0  0  0999 V2000     
   19.4829   22.0173   20.6637 C   0  0  0  0  0  0  0  0  0  0  0  0
   18.5584   22.0574   20.0899 H   0  0  0  0  0  0  0  0  0  0  0  0
   19.9822   22.9611   20.8762 H   0  0  0  0  0  0  0  0  0  0  0  0
   19.9864   20.8578   21.0945 C   0  0  0  0  0  0  0  0  0  0  0  0
   20.9143   20.8394   21.6654 H   0  0  0  0  0  0  0  0  0  0  0  0
   19.3521   19.5084   20.8335 C   0  0  0  0  0  0  0  0  0  0  0  0
   20.1178   18.7861   20.5222 H   0  0  0  0  0  0  0  0  0  0  0  0
   18.6528   19.5850   19.9900 H   0  0  0  0  0  0  0  0  0  0  0  0
   18.5814   18.9697   22.0625 C   0  0  0  0  0  0  0  0  0  0  0  0
   17.7661   19.6661   22.3016 H   0  0  0  0  0  0  0  0  0  0  0  0
   18.1005   18.0195   21.7927 H   0  0  0  0  0  0  0  0  0  0  0  0
   19.4483   18.7616   23.3311 C   0  0  0  0  0  0  0  0  0  0  0  0
   18.8014   18.4057   24.1448 H   0  0  0  0  0  0  0  0  0  0  0  0
   19.8496   19.7282   23.6633 H   0  0  0  0  0  0  0  0  0  0  0  0
   20.6198   17.7578   23.1514 C   0  0  0  0  0  0  0  0  0  0  0  0
   21.3273   18.1209   22.3973 H   0  0  0  0  0  0  0  0  0  0  0  0
   21.1797   17.6816   24.0907 H   0  0  0  0  0  0  0  0  0  0  0  0
   20.1788   16.3478   22.7695 C   0  0  0  0  0  0  0  0  0  0  0  0
   20.3986   15.9617   21.6383 O   0  5  0  0  0  0  0  0  0  0  0  0
   19.6419   15.6658   23.6204 O   0  0  0  0  0  0  0  0  0  0  0  0
  1  2  1  0  0  0  0
  1  3  1  0  0  0  0
  1  4  2  0  0  0  0
  4  5  1  0  0  0  0
  4  6  1  0  0  0  0
  6  7  1  0  0  0  0
  6  8  1  0  0  0  0
  6  9  1  0  0  0  0
  9 10  1  0  0  0  0
  9 11  1  0  0  0  0
  9 12  1  0  0  0  0
 12 13  1  0  0  0  0
 12 14  1  0  0  0  0
 12 15  1  0  0  0  0
 15 16  1  0  0  0  0
 15 17  1  0  0  0  0
 15 18  1  0  0  0  0
 18 19  1  0  0  0  0
 18 20  2  0  0  0  0
M  END
> <VConfSearch Rank>
891

> <Conf_Id>
86

> <Delta U+W>
1.248

> <U+W>
-50.498

> <U>
10.404

> <W>
-60.901

> <W(PB)>
-63.061

> <W(SA)>
2.159

> <Valence>
10.021

> <Coulomb>
0.094

> <VdW>
0.289

> <VdW6>
-8.409

> <VdW12>
8.698

> <Bond>
0.179

> <Angle>
2.939

> <Pdih>
6.902

> <Idih>
0.001

> <Tether>
0.000

$$$$
VeraChem MOL file


 20 19  0  0  0  0  0  0  0  0999 V2000     
   19.5811   22.1291   22.5666 C   0  0  0  0  0  0  0  0  0  0  0  0
   20.1708   22.9218   23.0239 H   0  0  0  0  0  0  0  0  0  0  0  0
   19.2860   22.2601   21.5268 H   0  0  0  0  0  0  0  0  0  0  0  0
   19.2382   21.0381   23.2567 C   0  0  0  0  0  0  0  0  0  0  0  0
   19.5457   20.9254   24.2960 H   0  0  0  0  0  0  0  0  0  0  0  0
   18.4218   19.8961   22.6897 C   0  0  0  0  0  0  0  0  0  0  0  0
   17.9869   20.1753   21.7204 H   0  0  0  0  0  0  0  0  0  0  0  0
   17.5769   19.6917   23.3607 H   0  0  0  0  0  0  0  0  0  0  0  0
   19.2537   18.6038   22.5285 C   0  0  0  0  0  0  0  0  0  0  0  0
   19.6922   18.3261   23.4967 H   0  0  0  0  0  0  0  0  0  0  0  0
   18.5799   17.7842   22.2437 H   0  0  0  0  0  0  0  0  0  0  0  0
   20.3711   18.7417   21.4673 C   0  0  0  0  0  0  0  0  0  0  0  0
   21.0494   19.5563   21.7543 H   0  0  0  0  0  0  0  0  0  0  0  0
   19.9324   19.0232   20.5000 H   0  0  0  0  0  0  0  0  0  0  0  0
   21.1973   17.4402   21.2985 C   0  0  0  0  0  0  0  0  0  0  0  0
   22.0458   17.6293   20.6305 H   0  0  0  0  0  0  0  0  0  0  0  0
   21.6158   17.1295   22.2634 H   0  0  0  0  0  0  0  0  0  0  0  0
   20.4061   16.2745   20.7122 C   0  0  0  0  0  0  0  0  0  0  0  0
   20.1732   16.2830   19.5194 O   0  5  0  0  0  0  0  0  0  0  0  0
   20.0535   15.3837   21.4600 O   0  0  0  0  0  0  0  0  0  0  0  0
  1  2  1  0  0  0  0
  1  3  1  0  0  0  0
  1  4  2  0  0  0  0
  4  5  1  0  0  0  0
  4  6  1  0  0  0  0
  6  7  1  0  0  0  0
  6  8  1  0  0  0  0
  6  9  1  0  0  0  0
  9 10  1  0  0  0  0
  9 11  1  0  0  0  0
  9 12  1  0  0  0  0
 12 13  1  0  0  0  0
 12 14  1  0  0  0  0
 12 15  1  0  0  0  0
 15 16  1  0  0  0  0
 15 17  1  0  0  0  0
 15 18  1  0  0  0  0
 18 19  1  0  0  0  0
 18 20  2  0  0  0  0
M  END
> <VConfSearch Rank>
892

> <Conf_Id>
28

> <Delta U+W>
0.446

> <U+W>
-51.299

> <U>
9.295

> <W>
-60.594

> <W(PB)>
-62.806

> <W(SA)>
2.212

> <Valence>
9.495

> <Coulomb>
-0.610

> <VdW>
0.409

> <VdW6>
-7.332

> <VdW12>
7.741

> <Bond>
0.126

> <Angle>
2.497

> <Pdih>
6.872

> <Idih>
0.000

> <Tether>
0.000

$$$$
VeraChem MOL file


 20 19  0  0  0  0  0  0  0  0999 V2000     
   21.5633   21.5917   21.0224 C   0  0  0  0  0  0  0  0  0  0  0  0
   21.3651   21.8085   22.0699 H   0  0  0  0  0  0  0  0  0  0  0  0
   22.2768   22.2376   20.5135 H   0  0  0  0  0  0  0  0  0  0  0  0
   20.9719   20.5821   20.3736 C   0  0  0  0  0  0  0  0  0  0  0  0
   21.2130   20.4131   19.3244 H   0  0  0  0  0  0  0  0  0  0  0  0
   19.9603   19.6026   20.9453 C   0  0  0  0  0  0  0  0  0  0  0  0
   20.3855   18.5925   20.8871 H   0  0  0  0  0  0  0  0  0  0  0  0
   19.0751   19.5931   20.2957 H   0  0  0  0  0  0  0  0  0  0  0  0
   19.5149   19.8976   22.3990 C   0  0  0  0  0  0  0  0  0  0  0  0
   20.3796   19.8221   23.0725 H   0  0  0  0  0  0  0  0  0  0  0  0
   19.1580   20.9347   22.4603 H   0  0  0  0  0  0  0  0  0  0  0  0
   18.3829   18.9661   22.8990 C   0  0  0  0  0  0  0  0  0  0  0  0
   17.5043   19.0840   22.2506 H   0  0  0  0  0  0  0  0  0  0  0  0
   18.0718   19.2949   23.9003 H   0  0  0  0  0  0  0  0  0  0  0  0
   18.7678   17.4628   22.9665 C   0  0  0  0  0  0  0  0  0  0  0  0
   17.9061   16.8836   23.3182 H   0  0  0  0  0  0  0  0  0  0  0  0
   19.0116   17.0800   21.9691 H   0  0  0  0  0  0  0  0  0  0  0  0
   19.9317   17.1582   23.9054 C   0  0  0  0  0  0  0  0  0  0  0  0
   19.7430   17.2573   25.1021 O   0  5  0  0  0  0  0  0  0  0  0  0
   20.9889   16.8100   23.4178 O   0  0  0  0  0  0  0  0  0  0  0  0
  1  2  1  0  0  0  0
  1  3  1  0  0  0  0
  1  4  2  0  0  0  0
  4  5  1  0  0  0  0
  4  6  1  0  0  0  0
  6  7  1  0  0  0  0
  6  8  1  0  0  0  0
  6  9  1  0  0  0  0
  9 10  1  0  0  0  0
  9 11  1  0  0  0  0
  9 12  1  0  0  0  0
 12 13  1  0  0  0  0
 12 14  1  0  0  0  0
 12 15  1  0  0  0  0
 15 16  1  0  0  0  0
 15 17  1  0  0  0  0
 15 18  1  0  0  0  0
 18 19  1  0  0  0  0
 18 20  2  0  0  0  0
M  END
> <VConfSearch Rank>
893

> <Conf_Id>
53

> <Delta U+W>
0.549

> <U+W>
-51.197

> <U>
10.870

> <W>
-62.067

> <W(PB)>
-64.228

> <W(SA)>
2.161

> <Valence>
8.803

> <Coulomb>
1.020

> <VdW>
1.048

> <VdW6>
-8.312

> <VdW12>
9.360

> <Bond>
0.212

> <Angle>
3.379

> <Pdih>
5.211

> <Idih>
0.001

> <Tether>
0.000

$$$$
VeraChem MOL file


 20 19  0  0  0  0  0  0  0  0999 V2000     
   18.7732   20.6689   20.1051 C   0  0  0  0  0  0  0  0  0  0  0  0
   18.4020   21.1554   21.0044 H   0  0  0  0  0  0  0  0  0  0  0  0
   18.2107   20.8313   19.1873 H   0  0  0  0  0  0  0  0  0  0  0  0
   19.8730   19.9080   20.1094 C   0  0  0  0  0  0  0  0  0  0  0  0
   20.2037   19.4456   19.1798 H   0  0  0  0  0  0  0  0  0  0  0  0
   20.7470   19.5929   21.3122 C   0  0  0  0  0  0  0  0  0  0  0  0
   21.6186   20.2603   21.2984 H   0  0  0  0  0  0  0  0  0  0  0  0
   21.1655   18.5850   21.1953 H   0  0  0  0  0  0  0  0  0  0  0  0
   20.0539   19.6881   22.6965 C   0  0  0  0  0  0  0  0  0  0  0  0
   20.8065   19.5111   23.4770 H   0  0  0  0  0  0  0  0  0  0  0  0
   19.6990   20.7145   22.8572 H   0  0  0  0  0  0  0  0  0  0  0  0
   18.8758   18.7000   22.9030 C   0  0  0  0  0  0  0  0  0  0  0  0
   18.0827   18.9136   22.1750 H   0  0  0  0  0  0  0  0  0  0  0  0
   18.4360   18.8796   23.8936 H   0  0  0  0  0  0  0  0  0  0  0  0
   19.2663   17.2005   22.7970 C   0  0  0  0  0  0  0  0  0  0  0  0
   18.3746   16.5820   22.9511 H   0  0  0  0  0  0  0  0  0  0  0  0
   19.6340   16.9679   21.7912 H   0  0  0  0  0  0  0  0  0  0  0  0
   20.3106   16.7539   23.8160 C   0  0  0  0  0  0  0  0  0  0  0  0
   21.4338   16.5096   23.4211 O   0  5  0  0  0  0  0  0  0  0  0  0
   19.9675   16.6446   24.9770 O   0  0  0  0  0  0  0  0  0  0  0  0
  1  2  1  0  0  0  0
  1  3  1  0  0  0  0
  1  4  2  0  0  0  0
  4  5  1  0  0  0  0
  4  6  1  0  0  0  0
  6  7  1  0  0  0  0
  6  8  1  0  0  0  0
  6  9  1  0  0  0  0
  9 10  1  0  0  0  0
  9 11  1  0  0  0  0
  9 12  1  0  0  0  0
 12 13  1  0  0  0  0
 12 14  1  0  0  0  0
 12 15  1  0  0  0  0
 15 16  1  0  0  0  0
 15 17  1  0  0  0  0
 15 18  1  0  0  0  0
 18 19  1  0  0  0  0
 18 20  2  0  0  0  0
M  END
> <VConfSearch Rank>
894

> <Conf_Id>
66

> <Delta U+W>
1.737

> <U+W>
-50.008

> <U>
11.091

> <W>
-61.099

> <W(PB)>
-63.213

> <W(SA)>
2.114

> <Valence>
9.664

> <Coulomb>
0.658

> <VdW>
0.769

> <VdW6>
-9.171

> <VdW12>
9.940

> <Bond>
0.244

> <Angle>
3.658

> <Pdih>
5.762

> <Idih>
0.001

> <Tether>
0.000

$$$$
VeraChem MOL file


 20 19  0  0  0  0  0  0  0  0999 V2000     
   19.0379   21.5128   20.9592 C   0  0  0  0  0  0  0  0  0  0  0  0
   19.5446   21.0347   20.1239 H   0  0  0  0  0  0  0  0  0  0  0  0
   18.2413   22.2141   20.7173 H   0  0  0  0  0  0  0  0  0  0  0  0
   19.3701   21.2656   22.2310 C   0  0  0  0  0  0  0  0  0  0  0  0
   18.8306   21.7746   23.0293 H   0  0  0  0  0  0  0  0  0  0  0  0
   20.4507   20.3123   22.7147 C   0  0  0  0  0  0  0  0  0  0  0  0
   20.1261   19.8570   23.6586 H   0  0  0  0  0  0  0  0  0  0  0  0
   21.3417   20.8976   22.9778 H   0  0  0  0  0  0  0  0  0  0  0  0
   20.8552   19.1875   21.7260 C   0  0  0  0  0  0  0  0  0  0  0  0
   21.2363   19.6364   20.7993 H   0  0  0  0  0  0  0  0  0  0  0  0
   21.6996   18.6301   22.1538 H   0  0  0  0  0  0  0  0  0  0  0  0
   19.7219   18.1867   21.3844 C   0  0  0  0  0  0  0  0  0  0  0  0
   20.0895   17.4905   20.6179 H   0  0  0  0  0  0  0  0  0  0  0  0
   18.8706   18.7155   20.9358 H   0  0  0  0  0  0  0  0  0  0  0  0
   19.2303   17.3667   22.6053 C   0  0  0  0  0  0  0  0  0  0  0  0
   20.0770   16.8720   23.0958 H   0  0  0  0  0  0  0  0  0  0  0  0
   18.7616   18.0238   23.3465 H   0  0  0  0  0  0  0  0  0  0  0  0
   18.2138   16.2958   22.2257 C   0  0  0  0  0  0  0  0  0  0  0  0
   17.0340   16.5855   22.2578 O   0  5  0  0  0  0  0  0  0  0  0  0
   18.6294   15.2031   21.8937 O   0  0  0  0  0  0  0  0  0  0  0  0
  1  2  1  0  0  0  0
  1  3  1  0  0  0  0
  1  4  2  0  0  0  0
  4  5  1  0  0  0  0
  4  6  1  0  0  0  0
  6  7  1  0  0  0  0
  6  8  1  0  0  0  0
  6  9  1  0  0  0  0
  9 10  1  0  0  0  0
  9 11  1  0  0  0  0
  9 12  1  0  0  0  0
 12 13  1  0  0  0  0
 12 14  1  0  0  0  0
 12 15  1  0  0  0  0
 15 16  1  0  0  0  0
 15 17  1  0  0  0  0
 15 18  1  0  0  0  0
 18 19  1  0  0  0  0
 18 20  2  0  0  0  0
M  END
> <VConfSearch Rank>
895

> <Conf_Id>
64

> <Delta U+W>
0.366

> <U+W>
-51.379

> <U>
10.000

> <W>
-61.379

> <W(PB)>
-63.541

> <W(SA)>
2.162

> <Valence>
9.398

> <Coulomb>
-0.504

> <VdW>
1.105

> <VdW6>
-7.975

> <VdW12>
9.080

> <Bond>
0.216

> <Angle>
3.417

> <Pdih>
5.765

> <Idih>
0.001

> <Tether>
0.000

$$$$
VeraChem MOL file


 20 19  0  0  0  0  0  0  0  0999 V2000     
   19.9836   20.8718   24.4110 C   0  0  0  0  0  0  0  0  0  0  0  0
   19.0875   21.3549   24.0250 H   0  0  0  0  0  0  0  0  0  0  0  0
   20.7393   21.5087   24.8674 H   0  0  0  0  0  0  0  0  0  0  0  0
   20.1547   19.5498   24.3262 C   0  0  0  0  0  0  0  0  0  0  0  0
   21.0602   19.0863   24.7166 H   0  0  0  0  0  0  0  0  0  0  0  0
   19.1507   18.6015   23.7060 C   0  0  0  0  0  0  0  0  0  0  0  0
   18.1951   19.1129   23.5270 H   0  0  0  0  0  0  0  0  0  0  0  0
   18.9393   17.7894   24.4143 H   0  0  0  0  0  0  0  0  0  0  0  0
   19.6634   17.9885   22.3834 C   0  0  0  0  0  0  0  0  0  0  0  0
   20.6194   17.4776   22.5624 H   0  0  0  0  0  0  0  0  0  0  0  0
   18.9532   17.2193   22.0502 H   0  0  0  0  0  0  0  0  0  0  0  0
   19.8337   19.0415   21.2645 C   0  0  0  0  0  0  0  0  0  0  0  0
   20.5626   19.8027   21.5751 H   0  0  0  0  0  0  0  0  0  0  0  0
   18.8808   19.5629   21.0990 H   0  0  0  0  0  0  0  0  0  0  0  0
   20.3042   18.3999   19.9360 C   0  0  0  0  0  0  0  0  0  0  0  0
   21.2616   17.8856   20.0825 H   0  0  0  0  0  0  0  0  0  0  0  0
   19.5798   17.6479   19.6009 H   0  0  0  0  0  0  0  0  0  0  0  0
   20.4799   19.4193   18.8161 C   0  0  0  0  0  0  0  0  0  0  0  0
   19.5170   19.6810   18.1226 O   0  5  0  0  0  0  0  0  0  0  0  0
   21.5712   19.9351   18.6756 O   0  0  0  0  0  0  0  0  0  0  0  0
  1  2  1  0  0  0  0
  1  3  1  0  0  0  0
  1  4  2  0  0  0  0
  4  5  1  0  0  0  0
  4  6  1  0  0  0  0
  6  7  1  0  0  0  0
  6  8  1  0  0  0  0
  6  9  1  0  0  0  0
  9 10  1  0  0  0  0
  9 11  1  0  0  0  0
  9 12  1  0  0  0  0
 12 13  1  0  0  0  0
 12 14  1  0  0  0  0
 12 15  1  0  0  0  0
 15 16  1  0  0  0  0
 15 17  1  0  0  0  0
 15 18  1  0  0  0  0
 18 19  1  0  0  0  0
 18 20  2  0  0  0  0
M  END
> <VConfSearch Rank>
896

> <Conf_Id>
42

> <Delta U+W>
-0.601

> <U+W>
-52.347

> <U>
8.428

> <W>
-60.774

> <W(PB)>
-62.982

> <W(SA)>
2.208

> <Valence>
9.231

> <Coulomb>
-1.304

> <VdW>
0.501

> <VdW6>
-6.515

> <VdW12>
7.016

> <Bond>
0.103

> <Angle>
2.328

> <Pdih>
6.799

> <Idih>
0.000

> <Tether>
0.000

$$$$
VeraChem MOL file


 20 19  0  0  0  0  0  0  0  0999 V2000     
   21.0825   21.8856   22.3982 C   0  0  0  0  0  0  0  0  0  0  0  0
   20.9464   21.9099   23.4781 H   0  0  0  0  0  0  0  0  0  0  0  0
   21.0035   22.8296   21.8618 H   0  0  0  0  0  0  0  0  0  0  0  0
   21.3326   20.7436   21.7522 C   0  0  0  0  0  0  0  0  0  0  0  0
   21.4627   20.7407   20.6704 H   0  0  0  0  0  0  0  0  0  0  0  0
   21.4548   19.3946   22.4283 C   0  0  0  0  0  0  0  0  0  0  0  0
   21.5068   19.5119   23.5192 H   0  0  0  0  0  0  0  0  0  0  0  0
   22.3985   18.9239   22.1221 H   0  0  0  0  0  0  0  0  0  0  0  0
   20.2866   18.4502   22.0657 C   0  0  0  0  0  0  0  0  0  0  0  0
   20.2407   18.3289   20.9746 H   0  0  0  0  0  0  0  0  0  0  0  0
   20.4916   17.4548   22.4828 H   0  0  0  0  0  0  0  0  0  0  0  0
   18.9245   18.9542   22.5986 C   0  0  0  0  0  0  0  0  0  0  0  0
   18.6868   19.9316   22.1565 H   0  0  0  0  0  0  0  0  0  0  0  0
   18.9951   19.1081   23.6837 H   0  0  0  0  0  0  0  0  0  0  0  0
   17.7666   17.9657   22.3036 C   0  0  0  0  0  0  0  0  0  0  0  0
   17.9973   16.9767   22.7176 H   0  0  0  0  0  0  0  0  0  0  0  0
   16.8532   18.3128   22.8009 H   0  0  0  0  0  0  0  0  0  0  0  0
   17.4480   17.8098   20.8194 C   0  0  0  0  0  0  0  0  0  0  0  0
   17.8358   16.8089   20.2493 O   0  5  0  0  0  0  0  0  0  0  0  0
   16.8040   18.6861   20.2769 O   0  0  0  0  0  0  0  0  0  0  0  0
  1  2  1  0  0  0  0
  1  3  1  0  0  0  0
  1  4  2  0  0  0  0
  4  5  1  0  0  0  0
  4  6  1  0  0  0  0
  6  7  1  0  0  0  0
  6  8  1  0  0  0  0
  6  9  1  0  0  0  0
  9 10  1  0  0  0  0
  9 11  1  0  0  0  0
  9 12  1  0  0  0  0
 12 13  1  0  0  0  0
 12 14  1  0  0  0  0
 12 15  1  0  0  0  0
 15 16  1  0  0  0  0
 15 17  1  0  0  0  0
 15 18  1  0  0  0  0
 18 19  1  0  0  0  0
 18 20  2  0  0  0  0
M  END
> <VConfSearch Rank>
897

> <Conf_Id>
68

> <Delta U+W>
0.492

> <U+W>
-51.253

> <U>
10.179

> <W>
-61.432

> <W(PB)>
-63.627

> <W(SA)>
2.195

> <Valence>
9.483

> <Coulomb>
0.361

> <VdW>
0.335

> <VdW6>
-7.385

> <VdW12>
7.720

> <Bond>
0.125

> <Angle>
2.487

> <Pdih>
6.870

> <Idih>
0.001

> <Tether>
0.000

$$$$
VeraChem MOL file


 20 19  0  0  0  0  0  0  0  0999 V2000     
   20.5199   16.6680   20.4120 C   0  0  0  0  0  0  0  0  0  0  0  0
   20.2976   16.9650   19.3884 H   0  0  0  0  0  0  0  0  0  0  0  0
   20.4148   15.6137   20.6620 H   0  0  0  0  0  0  0  0  0  0  0  0
   20.9036   17.5598   21.3292 C   0  0  0  0  0  0  0  0  0  0  0  0
   21.1238   17.2406   22.3475 H   0  0  0  0  0  0  0  0  0  0  0  0
   21.0768   19.0383   21.0534 C   0  0  0  0  0  0  0  0  0  0  0  0
   21.1765   19.2043   19.9722 H   0  0  0  0  0  0  0  0  0  0  0  0
   22.0108   19.3964   21.5067 H   0  0  0  0  0  0  0  0  0  0  0  0
   19.8884   19.8770   21.5754 C   0  0  0  0  0  0  0  0  0  0  0  0
   20.0089   20.9137   21.2327 H   0  0  0  0  0  0  0  0  0  0  0  0
   18.9566   19.5055   21.1267 H   0  0  0  0  0  0  0  0  0  0  0  0
   19.7738   19.8626   23.1183 C   0  0  0  0  0  0  0  0  0  0  0  0
   20.7271   20.1886   23.5556 H   0  0  0  0  0  0  0  0  0  0  0  0
   19.5963   18.8382   23.4730 H   0  0  0  0  0  0  0  0  0  0  0  0
   18.6402   20.7837   23.6391 C   0  0  0  0  0  0  0  0  0  0  0  0
   18.6775   20.8272   24.7340 H   0  0  0  0  0  0  0  0  0  0  0  0
   18.7864   21.8080   23.2756 H   0  0  0  0  0  0  0  0  0  0  0  0
   17.2388   20.3236   23.2476 C   0  0  0  0  0  0  0  0  0  0  0  0
   16.7457   19.4009   23.8661 O   0  5  0  0  0  0  0  0  0  0  0  0
   16.6699   20.9116   22.3488 O   0  0  0  0  0  0  0  0  0  0  0  0
  1  2  1  0  0  0  0
  1  3  1  0  0  0  0
  1  4  2  0  0  0  0
  4  5  1  0  0  0  0
  4  6  1  0  0  0  0
  6  7  1  0  0  0  0
  6  8  1  0  0  0  0
  6  9  1  0  0  0  0
  9 10  1  0  0  0  0
  9 11  1  0  0  0  0
  9 12  1  0  0  0  0
 12 13  1  0  0  0  0
 12 14  1  0  0  0  0
 12 15  1  0  0  0  0
 15 16  1  0  0  0  0
 15 17  1  0  0  0  0
 15 18  1  0  0  0  0
 18 19  1  0  0  0  0
 18 20  2  0  0  0  0
M  END
> <VConfSearch Rank>
898

> <Conf_Id>
87

> <Delta U+W>
0.339

> <U+W>
-51.407

> <U>
10.461

> <W>
-61.867

> <W(PB)>
-64.045

> <W(SA)>
2.178

> <Valence>
9.555

> <Coulomb>
0.483

> <VdW>
0.423

> <VdW6>
-7.223

> <VdW12>
7.646

> <Bond>
0.126

> <Angle>
2.492

> <Pdih>
6.936

> <Idih>
0.001

> <Tether>
0.000

$$$$
VeraChem MOL file


 20 19  0  0  0  0  0  0  0  0999 V2000     
   21.9624   17.5720   22.6841 C   0  0  0  0  0  0  0  0  0  0  0  0
   22.7354   18.3148   22.4945 H   0  0  0  0  0  0  0  0  0  0  0  0
   22.0998   16.9109   23.5380 H   0  0  0  0  0  0  0  0  0  0  0  0
   20.8844   17.4752   21.9017 C   0  0  0  0  0  0  0  0  0  0  0  0
   20.1260   16.7193   22.1024 H   0  0  0  0  0  0  0  0  0  0  0  0
   20.6353   18.3514   20.6926 C   0  0  0  0  0  0  0  0  0  0  0  0
   19.9016   17.8796   20.0255 H   0  0  0  0  0  0  0  0  0  0  0  0
   21.5660   18.4168   20.1129 H   0  0  0  0  0  0  0  0  0  0  0  0
   20.1790   19.7874   21.0517 C   0  0  0  0  0  0  0  0  0  0  0  0
   20.8062   20.1902   21.8587 H   0  0  0  0  0  0  0  0  0  0  0  0
   20.3638   20.4279   20.1786 H   0  0  0  0  0  0  0  0  0  0  0  0
   18.6810   19.9220   21.4243 C   0  0  0  0  0  0  0  0  0  0  0  0
   18.0574   19.5056   20.6213 H   0  0  0  0  0  0  0  0  0  0  0  0
   18.4350   20.9914   21.4811 H   0  0  0  0  0  0  0  0  0  0  0  0
   18.2982   19.2613   22.7735 C   0  0  0  0  0  0  0  0  0  0  0  0
   18.3885   18.1724   22.7081 H   0  0  0  0  0  0  0  0  0  0  0  0
   18.9751   19.5990   23.5672 H   0  0  0  0  0  0  0  0  0  0  0  0
   16.8699   19.5782   23.2012 C   0  0  0  0  0  0  0  0  0  0  0  0
   15.9792   18.8471   22.8151 O   0  5  0  0  0  0  0  0  0  0  0  0
   16.6823   20.5601   23.8923 O   0  0  0  0  0  0  0  0  0  0  0  0
  1  2  1  0  0  0  0
  1  3  1  0  0  0  0
  1  4  2  0  0  0  0
  4  5  1  0  0  0  0
  4  6  1  0  0  0  0
  6  7  1  0  0  0  0
  6  8  1  0  0  0  0
  6  9  1  0  0  0  0
  9 10  1  0  0  0  0
  9 11  1  0  0  0  0
  9 12  1  0  0  0  0
 12 13  1  0  0  0  0
 12 14  1  0  0  0  0
 12 15  1  0  0  0  0
 15 16  1  0  0  0  0
 15 17  1  0  0  0  0
 15 18  1  0  0  0  0
 18 19  1  0  0  0  0
 18 20  2  0  0  0  0
M  END
> <VConfSearch Rank>
899

> <Conf_Id>
51

> <Delta U+W>
1.709

> <U+W>
-50.036

> <U>
10.643

> <W>
-60.679

> <W(PB)>
-62.882

> <W(SA)>
2.203

> <Valence>
11.231

> <Coulomb>
-1.077

> <VdW>
0.489

> <VdW6>
-7.546

> <VdW12>
8.035

> <Bond>
0.159

> <Angle>
3.005

> <Pdih>
8.065

> <Idih>
0.002

> <Tether>
0.000

$$$$
VeraChem MOL file


 20 19  0  0  0  0  0  0  0  0999 V2000     
   19.8381   21.9305   21.8373 C   0  0  0  0  0  0  0  0  0  0  0  0
   20.4739   22.0891   20.9678 H   0  0  0  0  0  0  0  0  0  0  0  0
   19.9601   22.6097   22.6792 H   0  0  0  0  0  0  0  0  0  0  0  0
   18.9436   20.9394   21.8729 C   0  0  0  0  0  0  0  0  0  0  0  0
   18.3101   20.8024   22.7486 H   0  0  0  0  0  0  0  0  0  0  0  0
   18.7123   19.9674   20.7357 C   0  0  0  0  0  0  0  0  0  0  0  0
   18.6662   20.5354   19.7967 H   0  0  0  0  0  0  0  0  0  0  0  0
   17.7311   19.4857   20.8406 H   0  0  0  0  0  0  0  0  0  0  0  0
   19.8195   18.8922   20.6048 C   0  0  0  0  0  0  0  0  0  0  0  0
   19.7670   18.4763   19.5894 H   0  0  0  0  0  0  0  0  0  0  0  0
   20.8098   19.3607   20.6873 H   0  0  0  0  0  0  0  0  0  0  0  0
   19.7042   17.7121   21.6023 C   0  0  0  0  0  0  0  0  0  0  0  0
   20.4217   16.9359   21.3020 H   0  0  0  0  0  0  0  0  0  0  0  0
   18.7079   17.2551   21.5269 H   0  0  0  0  0  0  0  0  0  0  0  0
   19.9888   18.0947   23.0774 C   0  0  0  0  0  0  0  0  0  0  0  0
   20.9396   18.6357   23.1527 H   0  0  0  0  0  0  0  0  0  0  0  0
   19.2053   18.7553   23.4618 H   0  0  0  0  0  0  0  0  0  0  0  0
   20.0588   16.8820   23.9984 C   0  0  0  0  0  0  0  0  0  0  0  0
   19.0279   16.4861   24.5058 O   0  5  0  0  0  0  0  0  0  0  0  0
   21.1392   16.3521   24.1683 O   0  0  0  0  0  0  0  0  0  0  0  0
  1  2  1  0  0  0  0
  1  3  1  0  0  0  0
  1  4  2  0  0  0  0
  4  5  1  0  0  0  0
  4  6  1  0  0  0  0
  6  7  1  0  0  0  0
  6  8  1  0  0  0  0
  6  9  1  0  0  0  0
  9 10  1  0  0  0  0
  9 11  1  0  0  0  0
  9 12  1  0  0  0  0
 12 13  1  0  0  0  0
 12 14  1  0  0  0  0
 12 15  1  0  0  0  0
 15 16  1  0  0  0  0
 15 17  1  0  0  0  0
 15 18  1  0  0  0  0
 18 19  1  0  0  0  0
 18 20  2  0  0  0  0
M  END
> <VConfSearch Rank>
900

> <Conf_Id>
91

> <Delta U+W>
1.604

> <U+W>
-50.141

> <U>
10.644

> <W>
-60.786

> <W(PB)>
-62.965

> <W(SA)>
2.179

> <Valence>
11.230

> <Coulomb>
-1.075

> <VdW>
0.489

> <VdW6>
-7.547

> <VdW12>
8.036

> <Bond>
0.159

> <Angle>
3.006

> <Pdih>
8.064

> <Idih>
0.002

> <Tether>
0.000

$$$$
VeraChem MOL file


 20 19  0  0  0  0  0  0  0  0999 V2000     
   17.2306   20.4944   24.0734 C   0  0  0  0  0  0  0  0  0  0  0  0
   17.0914   21.2743   23.3265 H   0  0  0  0  0  0  0  0  0  0  0  0
   16.8913   20.7047   25.0863 H   0  0  0  0  0  0  0  0  0  0  0  0
   17.7971   19.3252   23.7642 C   0  0  0  0  0  0  0  0  0  0  0  0
   17.9277   18.5580   24.5270 H   0  0  0  0  0  0  0  0  0  0  0  0
   18.2910   18.9619   22.3815 C   0  0  0  0  0  0  0  0  0  0  0  0
   17.8917   19.6653   21.6380 H   0  0  0  0  0  0  0  0  0  0  0  0
   17.9168   17.9664   22.1074 H   0  0  0  0  0  0  0  0  0  0  0  0
   19.8327   18.9703   22.3206 C   0  0  0  0  0  0  0  0  0  0  0  0
   20.2019   19.9669   22.5997 H   0  0  0  0  0  0  0  0  0  0  0  0
   20.2315   18.2634   23.0611 H   0  0  0  0  0  0  0  0  0  0  0  0
   20.3545   18.5984   20.9154 C   0  0  0  0  0  0  0  0  0  0  0  0
   19.9564   19.3054   20.1742 H   0  0  0  0  0  0  0  0  0  0  0  0
   19.9846   17.6023   20.6352 H   0  0  0  0  0  0  0  0  0  0  0  0
   21.9052   18.6077   20.8544 C   0  0  0  0  0  0  0  0  0  0  0  0
   22.2809   19.6009   21.1267 H   0  0  0  0  0  0  0  0  0  0  0  0
   22.3092   17.8995   21.5873 H   0  0  0  0  0  0  0  0  0  0  0  0
   22.5067   18.2496   19.4945 C   0  0  0  0  0  0  0  0  0  0  0  0
   23.7186   18.2450   19.4083 O   0  5  0  0  0  0  0  0  0  0  0  0
   21.7731   17.9863   18.5612 O   0  0  0  0  0  0  0  0  0  0  0  0
  1  2  1  0  0  0  0
  1  3  1  0  0  0  0
  1  4  2  0  0  0  0
  4  5  1  0  0  0  0
  4  6  1  0  0  0  0
  6  7  1  0  0  0  0
  6  8  1  0  0  0  0
  6  9  1  0  0  0  0
  9 10  1  0  0  0  0
  9 11  1  0  0  0  0
  9 12  1  0  0  0  0
 12 13  1  0  0  0  0
 12 14  1  0  0  0  0
 12 15  1  0  0  0  0
 15 16  1  0  0  0  0
 15 17  1  0  0  0  0
 15 18  1  0  0  0  0
 18 19  1  0  0  0  0
 18 20  2  0  0  0  0
M  END
> <VConfSearch Rank>
901

> <Conf_Id>
33

> <Delta U+W>
0.000

> <U+W>
-51.745

> <U>
7.593

> <W>
-59.338

> <W(PB)>
-61.574

> <W(SA)>
2.236

> <Valence>
9.570

> <Coulomb>
-3.091

> <VdW>
1.114

> <VdW6>
-6.064

> <VdW12>
7.178

> <Bond>
0.117

> <Angle>
2.692

> <Pdih>
6.761

> <Idih>
0.000

> <Tether>
0.000

$$$$
VeraChem MOL file


 20 19  0  0  0  0  0  0  0  0999 V2000     
   17.3057   18.9034   19.2026 C   0  0  0  0  0  0  0  0  0  0  0  0
   16.4975   18.9821   19.9281 H   0  0  0  0  0  0  0  0  0  0  0  0
   17.0346   18.6713   18.1741 H   0  0  0  0  0  0  0  0  0  0  0  0
   18.5810   19.0816   19.5569 C   0  0  0  0  0  0  0  0  0  0  0  0
   19.3751   18.9976   18.8153 H   0  0  0  0  0  0  0  0  0  0  0  0
   19.0329   19.4066   20.9632 C   0  0  0  0  0  0  0  0  0  0  0  0
   18.1761   19.7225   21.5738 H   0  0  0  0  0  0  0  0  0  0  0  0
   19.7292   20.2540   20.9306 H   0  0  0  0  0  0  0  0  0  0  0  0
   19.7130   18.1862   21.6234 C   0  0  0  0  0  0  0  0  0  0  0  0
   19.0292   17.3278   21.5683 H   0  0  0  0  0  0  0  0  0  0  0  0
   20.6078   17.9069   21.0505 H   0  0  0  0  0  0  0  0  0  0  0  0
   20.0946   18.4186   23.1048 C   0  0  0  0  0  0  0  0  0  0  0  0
   20.4645   17.4733   23.5257 H   0  0  0  0  0  0  0  0  0  0  0  0
   19.1983   18.6850   23.6818 H   0  0  0  0  0  0  0  0  0  0  0  0
   21.1797   19.5092   23.3006 C   0  0  0  0  0  0  0  0  0  0  0  0
   22.0641   19.2763   22.6956 H   0  0  0  0  0  0  0  0  0  0  0  0
   20.8089   20.4868   22.9727 H   0  0  0  0  0  0  0  0  0  0  0  0
   21.6228   19.6451   24.7529 C   0  0  0  0  0  0  0  0  0  0  0  0
   21.0129   20.4141   25.4693 O   0  5  0  0  0  0  0  0  0  0  0  0
   22.5536   18.9636   25.1347 O   0  0  0  0  0  0  0  0  0  0  0  0
  1  2  1  0  0  0  0
  1  3  1  0  0  0  0
  1  4  2  0  0  0  0
  4  5  1  0  0  0  0
  4  6  1  0  0  0  0
  6  7  1  0  0  0  0
  6  8  1  0  0  0  0
  6  9  1  0  0  0  0
  9 10  1  0  0  0  0
  9 11  1  0  0  0  0
  9 12  1  0  0  0  0
 12 13  1  0  0  0  0
 12 14  1  0  0  0  0
 12 15  1  0  0  0  0
 15 16  1  0  0  0  0
 15 17  1  0  0  0  0
 15 18  1  0  0  0  0
 18 19  1  0  0  0  0
 18 20  2  0  0  0  0
M  END
> <VConfSearch Rank>
902

> <Conf_Id>
37

> <Delta U+W>
-0.384

> <U+W>
-52.130

> <U>
7.491

> <W>
-59.621

> <W(PB)>
-61.853

> <W(SA)>
2.232

> <Valence>
9.604

> <Coulomb>
-2.799

> <VdW>
0.686

> <VdW6>
-6.435

> <VdW12>
7.121

> <Bond>
0.124

> <Angle>
2.493

> <Pdih>
6.986

> <Idih>
0.001

> <Tether>
0.000

$$$$
VeraChem MOL file


 20 19  0  0  0  0  0  0  0  0999 V2000     
   23.0034   19.5382   21.1296 C   0  0  0  0  0  0  0  0  0  0  0  0
   24.0443   19.7245   20.8707 H   0  0  0  0  0  0  0  0  0  0  0  0
   22.7888   18.6175   21.6681 H   0  0  0  0  0  0  0  0  0  0  0  0
   22.0484   20.4123   20.7923 C   0  0  0  0  0  0  0  0  0  0  0  0
   22.3254   21.3177   20.2528 H   0  0  0  0  0  0  0  0  0  0  0  0
   20.5618   20.2907   21.0825 C   0  0  0  0  0  0  0  0  0  0  0  0
   20.0121   20.3363   20.1329 H   0  0  0  0  0  0  0  0  0  0  0  0
   20.2404   21.1722   21.6532 H   0  0  0  0  0  0  0  0  0  0  0  0
   20.1469   19.0123   21.8478 C   0  0  0  0  0  0  0  0  0  0  0  0
   20.4472   18.1261   21.2718 H   0  0  0  0  0  0  0  0  0  0  0  0
   20.6780   18.9712   22.8087 H   0  0  0  0  0  0  0  0  0  0  0  0
   18.6243   18.9661   22.1018 C   0  0  0  0  0  0  0  0  0  0  0  0
   18.0871   19.0070   21.1441 H   0  0  0  0  0  0  0  0  0  0  0  0
   18.3175   19.8503   22.6777 H   0  0  0  0  0  0  0  0  0  0  0  0
   18.2064   17.6869   22.8680 C   0  0  0  0  0  0  0  0  0  0  0  0
   18.4937   16.7941   22.2997 H   0  0  0  0  0  0  0  0  0  0  0  0
   18.7242   17.6374   23.8334 H   0  0  0  0  0  0  0  0  0  0  0  0
   16.7064   17.6182   23.1312 C   0  0  0  0  0  0  0  0  0  0  0  0
   16.0010   17.0895   22.2948 O   0  5  0  0  0  0  0  0  0  0  0  0
   16.2807   18.1126   24.1564 O   0  0  0  0  0  0  0  0  0  0  0  0
  1  2  1  0  0  0  0
  1  3  1  0  0  0  0
  1  4  2  0  0  0  0
  4  5  1  0  0  0  0
  4  6  1  0  0  0  0
  6  7  1  0  0  0  0
  6  8  1  0  0  0  0
  6  9  1  0  0  0  0
  9 10  1  0  0  0  0
  9 11  1  0  0  0  0
  9 12  1  0  0  0  0
 12 13  1  0  0  0  0
 12 14  1  0  0  0  0
 12 15  1  0  0  0  0
 15 16  1  0  0  0  0
 15 17  1  0  0  0  0
 15 18  1  0  0  0  0
 18 19  1  0  0  0  0
 18 20  2  0  0  0  0
M  END
> <VConfSearch Rank>
903

> <Conf_Id>
44

> <Delta U+W>
-1.440

> <U+W>
-53.185

> <U>
6.572

> <W>
-59.757

> <W(PB)>
-62.007

> <W(SA)>
2.249

> <Valence>
7.989

> <Coulomb>
-2.697

> <VdW>
1.281

> <VdW6>
-6.467

> <VdW12>
7.748

> <Bond>
0.136

> <Angle>
2.854

> <Pdih>
4.997

> <Idih>
0.001

> <Tether>
0.000

$$$$
VeraChem MOL file


 20 19  0  0  0  0  0  0  0  0999 V2000     
   16.4984   19.2750   22.9566 C   0  0  0  0  0  0  0  0  0  0  0  0
   16.3380   18.9963   21.9163 H   0  0  0  0  0  0  0  0  0  0  0  0
   15.6388   19.6413   23.5153 H   0  0  0  0  0  0  0  0  0  0  0  0
   17.7014   19.1755   23.5280 C   0  0  0  0  0  0  0  0  0  0  0  0
   17.8406   19.4602   24.5706 H   0  0  0  0  0  0  0  0  0  0  0  0
   18.9390   18.6751   22.8168 C   0  0  0  0  0  0  0  0  0  0  0  0
   18.6545   18.1666   21.8867 H   0  0  0  0  0  0  0  0  0  0  0  0
   19.4460   17.9295   23.4438 H   0  0  0  0  0  0  0  0  0  0  0  0
   19.9091   19.8373   22.5067 C   0  0  0  0  0  0  0  0  0  0  0  0
   19.4193   20.5555   21.8348 H   0  0  0  0  0  0  0  0  0  0  0  0
   20.1228   20.3800   23.4377 H   0  0  0  0  0  0  0  0  0  0  0  0
   21.2494   19.3746   21.8873 C   0  0  0  0  0  0  0  0  0  0  0  0
   21.7451   18.6635   22.5626 H   0  0  0  0  0  0  0  0  0  0  0  0
   21.9181   20.2428   21.8064 H   0  0  0  0  0  0  0  0  0  0  0  0
   21.0943   18.7337   20.4836 C   0  0  0  0  0  0  0  0  0  0  0  0
   20.5064   17.8109   20.5426 H   0  0  0  0  0  0  0  0  0  0  0  0
   20.5613   19.4174   19.8122 H   0  0  0  0  0  0  0  0  0  0  0  0
   22.4336   18.3894   19.8420 C   0  0  0  0  0  0  0  0  0  0  0  0
   22.9734   19.2327   19.1534 O   0  5  0  0  0  0  0  0  0  0  0  0
   22.9114   17.2943   20.0637 O   0  0  0  0  0  0  0  0  0  0  0  0
  1  2  1  0  0  0  0
  1  3  1  0  0  0  0
  1  4  2  0  0  0  0
  4  5  1  0  0  0  0
  4  6  1  0  0  0  0
  6  7  1  0  0  0  0
  6  8  1  0  0  0  0
  6  9  1  0  0  0  0
  9 10  1  0  0  0  0
  9 11  1  0  0  0  0
  9 12  1  0  0  0  0
 12 13  1  0  0  0  0
 12 14  1  0  0  0  0
 12 15  1  0  0  0  0
 15 16  1  0  0  0  0
 15 17  1  0  0  0  0
 15 18  1  0  0  0  0
 18 19  1  0  0  0  0
 18 20  2  0  0  0  0
M  END
> <VConfSearch Rank>
904

> <Conf_Id>
38

> <Delta U+W>
-0.381

> <U+W>
-52.126

> <U>
7.601

> <W>
-59.727

> <W(PB)>
-61.964

> <W(SA)>
2.236

> <Valence>
9.602

> <Coulomb>
-2.686

> <VdW>
0.685

> <VdW6>
-6.453

> <VdW12>
7.139

> <Bond>
0.125

> <Angle>
2.485

> <Pdih>
6.991

> <Idih>
0.001

> <Tether>
0.000

$$$$
VeraChem MOL file


 20 19  0  0  0  0  0  0  0  0999 V2000     
   17.0372   21.4811   22.7262 C   0  0  0  0  0  0  0  0  0  0  0  0
   17.7114   22.2788   23.0341 H   0  0  0  0  0  0  0  0  0  0  0  0
   16.0353   21.7663   22.4097 H   0  0  0  0  0  0  0  0  0  0  0  0
   17.4209   20.2019   22.7327 C   0  0  0  0  0  0  0  0  0  0  0  0
   16.7308   19.4187   22.4198 H   0  0  0  0  0  0  0  0  0  0  0  0
   18.7934   19.7306   23.1591 C   0  0  0  0  0  0  0  0  0  0  0  0
   18.6921   18.8963   23.8661 H   0  0  0  0  0  0  0  0  0  0  0  0
   19.3229   20.5331   23.6906 H   0  0  0  0  0  0  0  0  0  0  0  0
   19.6300   19.2794   21.9436 C   0  0  0  0  0  0  0  0  0  0  0  0
   19.0994   18.4752   21.4152 H   0  0  0  0  0  0  0  0  0  0  0  0
   19.7251   20.1150   21.2365 H   0  0  0  0  0  0  0  0  0  0  0  0
   21.0354   18.7916   22.3623 C   0  0  0  0  0  0  0  0  0  0  0  0
   20.9440   17.9487   23.0616 H   0  0  0  0  0  0  0  0  0  0  0  0
   21.5519   19.5963   22.9030 H   0  0  0  0  0  0  0  0  0  0  0  0
   21.9029   18.3620   21.1509 C   0  0  0  0  0  0  0  0  0  0  0  0
   21.9805   19.1846   20.4296 H   0  0  0  0  0  0  0  0  0  0  0  0
   22.9216   18.1399   21.4899 H   0  0  0  0  0  0  0  0  0  0  0  0
   21.3839   17.1244   20.4243 C   0  0  0  0  0  0  0  0  0  0  0  0
   20.8313   17.2752   19.3525 O   0  5  0  0  0  0  0  0  0  0  0  0
   21.5565   16.0402   20.9458 O   0  0  0  0  0  0  0  0  0  0  0  0
  1  2  1  0  0  0  0
  1  3  1  0  0  0  0
  1  4  2  0  0  0  0
  4  5  1  0  0  0  0
  4  6  1  0  0  0  0
  6  7  1  0  0  0  0
  6  8  1  0  0  0  0
  6  9  1  0  0  0  0
  9 10  1  0  0  0  0
  9 11  1  0  0  0  0
  9 12  1  0  0  0  0
 12 13  1  0  0  0  0
 12 14  1  0  0  0  0
 12 15  1  0  0  0  0
 15 16  1  0  0  0  0
 15 17  1  0  0  0  0
 15 18  1  0  0  0  0
 18 19  1  0  0  0  0
 18 20  2  0  0  0  0
M  END
> <VConfSearch Rank>
905

> <Conf_Id>
58

> <Delta U+W>
0.019

> <U+W>
-51.727

> <U>
8.963

> <W>
-60.690

> <W(PB)>
-62.934

> <W(SA)>
2.244

> <Valence>
9.327

> <Coulomb>
-0.780

> <VdW>
0.417

> <VdW6>
-6.635

> <VdW12>
7.052

> <Bond>
0.105

> <Angle>
2.399

> <Pdih>
6.822

> <Idih>
0.000

> <Tether>
0.000

$$$$
VeraChem MOL file


 20 19  0  0  0  0  0  0  0  0999 V2000     
   22.4183   17.9964   24.0518 C   0  0  0  0  0  0  0  0  0  0  0  0
   22.9418   18.9511   24.0443 H   0  0  0  0  0  0  0  0  0  0  0  0
   23.0048   17.1052   24.2687 H   0  0  0  0  0  0  0  0  0  0  0  0
   21.1086   17.9169   23.8025 C   0  0  0  0  0  0  0  0  0  0  0  0
   20.6038   16.9512   23.8139 H   0  0  0  0  0  0  0  0  0  0  0  0
   20.2303   19.1092   23.4945 C   0  0  0  0  0  0  0  0  0  0  0  0
   20.7506   20.0415   23.7529 H   0  0  0  0  0  0  0  0  0  0  0  0
   19.3257   19.0692   24.1159 H   0  0  0  0  0  0  0  0  0  0  0  0
   19.8327   19.1379   22.0038 C   0  0  0  0  0  0  0  0  0  0  0  0
   20.7402   19.1730   21.3854 H   0  0  0  0  0  0  0  0  0  0  0  0
   19.3106   18.2054   21.7486 H   0  0  0  0  0  0  0  0  0  0  0  0
   18.9319   20.3492   21.6726 C   0  0  0  0  0  0  0  0  0  0  0  0
   19.4557   21.2754   21.9455 H   0  0  0  0  0  0  0  0  0  0  0  0
   18.0181   20.3114   22.2819 H   0  0  0  0  0  0  0  0  0  0  0  0
   18.5462   20.4128   20.1719 C   0  0  0  0  0  0  0  0  0  0  0  0
   18.0106   21.3480   19.9704 H   0  0  0  0  0  0  0  0  0  0  0  0
   19.4487   20.4230   19.5488 H   0  0  0  0  0  0  0  0  0  0  0  0
   17.6502   19.2659   19.7129 C   0  0  0  0  0  0  0  0  0  0  0  0
   16.4764   19.2958   20.0267 O   0  5  0  0  0  0  0  0  0  0  0  0
   18.1458   18.3795   19.0454 O   0  0  0  0  0  0  0  0  0  0  0  0
  1  2  1  0  0  0  0
  1  3  1  0  0  0  0
  1  4  2  0  0  0  0
  4  5  1  0  0  0  0
  4  6  1  0  0  0  0
  6  7  1  0  0  0  0
  6  8  1  0  0  0  0
  6  9  1  0  0  0  0
  9 10  1  0  0  0  0
  9 11  1  0  0  0  0
  9 12  1  0  0  0  0
 12 13  1  0  0  0  0
 12 14  1  0  0  0  0
 12 15  1  0  0  0  0
 15 16  1  0  0  0  0
 15 17  1  0  0  0  0
 15 18  1  0  0  0  0
 18 19  1  0  0  0  0
 18 20  2  0  0  0  0
M  END
> <VConfSearch Rank>
906

> <Conf_Id>
54

> <Delta U+W>
-0.048

> <U+W>
-51.793

> <U>
8.964

> <W>
-60.756

> <W(PB)>
-63.007

> <W(SA)>
2.251

> <Valence>
9.327

> <Coulomb>
-0.780

> <VdW>
0.417

> <VdW6>
-6.635

> <VdW12>
7.052

> <Bond>
0.105

> <Angle>
2.399

> <Pdih>
6.822

> <Idih>
0.000

> <Tether>
0.000

$$$$
VeraChem MOL file


 20 19  0  0  0  0  0  0  0  0999 V2000     
   16.6841   19.8650   20.8810 C   0  0  0  0  0  0  0  0  0  0  0  0
   15.8335   20.3750   21.3300 H   0  0  0  0  0  0  0  0  0  0  0  0
   16.8768   20.0464   19.8248 H   0  0  0  0  0  0  0  0  0  0  0  0
   17.4603   19.0517   21.6018 C   0  0  0  0  0  0  0  0  0  0  0  0
   17.2476   18.8813   22.6568 H   0  0  0  0  0  0  0  0  0  0  0  0
   18.6535   18.3049   21.0444 C   0  0  0  0  0  0  0  0  0  0  0  0
   18.5729   18.2426   19.9507 H   0  0  0  0  0  0  0  0  0  0  0  0
   18.6525   17.2700   21.4118 H   0  0  0  0  0  0  0  0  0  0  0  0
   19.9942   18.9844   21.4035 C   0  0  0  0  0  0  0  0  0  0  0  0
   20.8020   18.4773   20.8584 H   0  0  0  0  0  0  0  0  0  0  0  0
   19.9830   20.0245   21.0496 H   0  0  0  0  0  0  0  0  0  0  0  0
   20.2990   18.9502   22.9201 C   0  0  0  0  0  0  0  0  0  0  0  0
   20.2957   17.9110   23.2773 H   0  0  0  0  0  0  0  0  0  0  0  0
   19.5037   19.4748   23.4658 H   0  0  0  0  0  0  0  0  0  0  0  0
   21.6587   19.6092   23.2693 C   0  0  0  0  0  0  0  0  0  0  0  0
   21.6900   20.6374   22.8890 H   0  0  0  0  0  0  0  0  0  0  0  0
   21.7671   19.6702   24.3586 H   0  0  0  0  0  0  0  0  0  0  0  0
   22.8710   18.8537   22.7322 C   0  0  0  0  0  0  0  0  0  0  0  0
   23.4505   19.3075   21.7651 O   0  5  0  0  0  0  0  0  0  0  0  0
   23.2102   17.8358   23.3032 O   0  0  0  0  0  0  0  0  0  0  0  0
  1  2  1  0  0  0  0
  1  3  1  0  0  0  0
  1  4  2  0  0  0  0
  4  5  1  0  0  0  0
  4  6  1  0  0  0  0
  6  7  1  0  0  0  0
  6  8  1  0  0  0  0
  6  9  1  0  0  0  0
  9 10  1  0  0  0  0
  9 11  1  0  0  0  0
  9 12  1  0  0  0  0
 12 13  1  0  0  0  0
 12 14  1  0  0  0  0
 12 15  1  0  0  0  0
 15 16  1  0  0  0  0
 15 17  1  0  0  0  0
 15 18  1  0  0  0  0
 18 19  1  0  0  0  0
 18 20  2  0  0  0  0
M  END
> <VConfSearch Rank>
907

> <Conf_Id>
27

> <Delta U+W>
0.478

> <U+W>
-51.267

> <U>
9.192

> <W>
-60.459

> <W(PB)>
-62.649

> <W(SA)>
2.190

> <Valence>
9.572

> <Coulomb>
-0.884

> <VdW>
0.504

> <VdW6>
-7.168

> <VdW12>
7.672

> <Bond>
0.127

> <Angle>
2.504

> <Pdih>
6.941

> <Idih>
0.001

> <Tether>
0.000

$$$$
VeraChem MOL file


 20 19  0  0  0  0  0  0  0  0999 V2000     
   21.3484   19.4864   24.7568 C   0  0  0  0  0  0  0  0  0  0  0  0
   22.1182   18.7232   24.8591 H   0  0  0  0  0  0  0  0  0  0  0  0
   20.9535   19.9256   25.6714 H   0  0  0  0  0  0  0  0  0  0  0  0
   20.9008   19.8693   23.5582 C   0  0  0  0  0  0  0  0  0  0  0  0
   20.1319   20.6372   23.4784 H   0  0  0  0  0  0  0  0  0  0  0  0
   21.4065   19.3087   22.2460 C   0  0  0  0  0  0  0  0  0  0  0  0
   22.3860   18.8354   22.3985 H   0  0  0  0  0  0  0  0  0  0  0  0
   21.5678   20.1240   21.5282 H   0  0  0  0  0  0  0  0  0  0  0  0
   20.4409   18.2647   21.6413 C   0  0  0  0  0  0  0  0  0  0  0  0
   20.9215   17.8024   20.7683 H   0  0  0  0  0  0  0  0  0  0  0  0
   20.2711   17.4599   22.3698 H   0  0  0  0  0  0  0  0  0  0  0  0
   19.0876   18.8759   21.2109 C   0  0  0  0  0  0  0  0  0  0  0  0
   19.2607   19.6976   20.5023 H   0  0  0  0  0  0  0  0  0  0  0  0
   18.5771   19.3078   22.0824 H   0  0  0  0  0  0  0  0  0  0  0  0
   18.1627   17.8212   20.5550 C   0  0  0  0  0  0  0  0  0  0  0  0
   18.6475   17.3887   19.6716 H   0  0  0  0  0  0  0  0  0  0  0  0
   17.9704   16.9991   21.2549 H   0  0  0  0  0  0  0  0  0  0  0  0
   16.8199   18.3990   20.1226 C   0  0  0  0  0  0  0  0  0  0  0  0
   15.9034   18.3802   20.9203 O   0  5  0  0  0  0  0  0  0  0  0  0
   16.7308   18.8688   19.0054 O   0  0  0  0  0  0  0  0  0  0  0  0
  1  2  1  0  0  0  0
  1  3  1  0  0  0  0
  1  4  2  0  0  0  0
  4  5  1  0  0  0  0
  4  6  1  0  0  0  0
  6  7  1  0  0  0  0
  6  8  1  0  0  0  0
  6  9  1  0  0  0  0
  9 10  1  0  0  0  0
  9 11  1  0  0  0  0
  9 12  1  0  0  0  0
 12 13  1  0  0  0  0
 12 14  1  0  0  0  0
 12 15  1  0  0  0  0
 15 16  1  0  0  0  0
 15 17  1  0  0  0  0
 15 18  1  0  0  0  0
 18 19  1  0  0  0  0
 18 20  2  0  0  0  0
M  END
> <VConfSearch Rank>
908

> <Conf_Id>
41

> <Delta U+W>
-0.634

> <U+W>
-52.379

> <U>
7.828

> <W>
-60.207

> <W(PB)>
-62.449

> <W(SA)>
2.242

> <Valence>
9.300

> <Coulomb>
-2.080

> <VdW>
0.608

> <VdW6>
-6.341

> <VdW12>
6.949

> <Bond>
0.103

> <Angle>
2.334

> <Pdih>
6.862

> <Idih>
0.001

> <Tether>
0.000

$$$$
VeraChem MOL file


 20 19  0  0  0  0  0  0  0  0999 V2000     
   19.2808   15.6682   23.2537 C   0  0  0  0  0  0  0  0  0  0  0  0
   19.4963   14.6052   23.1603 H   0  0  0  0  0  0  0  0  0  0  0  0
   18.7980   16.0029   24.1705 H   0  0  0  0  0  0  0  0  0  0  0  0
   19.5999   16.5252   22.2804 C   0  0  0  0  0  0  0  0  0  0  0  0
   20.0835   16.1702   21.3705 H   0  0  0  0  0  0  0  0  0  0  0  0
   19.3313   18.0125   22.3382 C   0  0  0  0  0  0  0  0  0  0  0  0
   18.6265   18.2405   23.1491 H   0  0  0  0  0  0  0  0  0  0  0  0
   18.8536   18.3282   21.4016 H   0  0  0  0  0  0  0  0  0  0  0  0
   20.6402   18.8046   22.5540 C   0  0  0  0  0  0  0  0  0  0  0  0
   21.1536   18.4063   23.4400 H   0  0  0  0  0  0  0  0  0  0  0  0
   21.3161   18.6358   21.7043 H   0  0  0  0  0  0  0  0  0  0  0  0
   20.4181   20.3240   22.7546 C   0  0  0  0  0  0  0  0  0  0  0  0
   21.3849   20.7963   22.9774 H   0  0  0  0  0  0  0  0  0  0  0  0
   19.7869   20.4836   23.6392 H   0  0  0  0  0  0  0  0  0  0  0  0
   19.7797   21.0461   21.5366 C   0  0  0  0  0  0  0  0  0  0  0  0
   18.7789   20.6493   21.3321 H   0  0  0  0  0  0  0  0  0  0  0  0
   19.6496   22.1088   21.7722 H   0  0  0  0  0  0  0  0  0  0  0  0
   20.6090   20.9630   20.2582 C   0  0  0  0  0  0  0  0  0  0  0  0
   21.6320   21.6165   20.1962 O   0  5  0  0  0  0  0  0  0  0  0  0
   20.2022   20.2625   19.3523 O   0  0  0  0  0  0  0  0  0  0  0  0
  1  2  1  0  0  0  0
  1  3  1  0  0  0  0
  1  4  2  0  0  0  0
  4  5  1  0  0  0  0
  4  6  1  0  0  0  0
  6  7  1  0  0  0  0
  6  8  1  0  0  0  0
  6  9  1  0  0  0  0
  9 10  1  0  0  0  0
  9 11  1  0  0  0  0
  9 12  1  0  0  0  0
 12 13  1  0  0  0  0
 12 14  1  0  0  0  0
 12 15  1  0  0  0  0
 15 16  1  0  0  0  0
 15 17  1  0  0  0  0
 15 18  1  0  0  0  0
 18 19  1  0  0  0  0
 18 20  2  0  0  0  0
M  END
> <VConfSearch Rank>
909

> <Conf_Id>
84

> <Delta U+W>
0.942

> <U+W>
-50.803

> <U>
10.196

> <W>
-60.999

> <W(PB)>
-63.182

> <W(SA)>
2.182

> <Valence>
9.837

> <Coulomb>
0.032

> <VdW>
0.328

> <VdW6>
-7.642

> <VdW12>
7.969

> <Bond>
0.151

> <Angle>
2.748

> <Pdih>
6.937

> <Idih>
0.001

> <Tether>
0.000

$$$$
VeraChem MOL file


 20 19  0  0  0  0  0  0  0  0999 V2000     
   20.6039   16.0929   20.9517 C   0  0  0  0  0  0  0  0  0  0  0  0
   21.1394   15.5360   20.1847 H   0  0  0  0  0  0  0  0  0  0  0  0
   20.7935   15.8248   21.9898 H   0  0  0  0  0  0  0  0  0  0  0  0
   19.7506   17.0679   20.6276 C   0  0  0  0  0  0  0  0  0  0  0  0
   19.5757   17.3213   19.5822 H   0  0  0  0  0  0  0  0  0  0  0  0
   18.9716   17.8826   21.6361 C   0  0  0  0  0  0  0  0  0  0  0  0
   19.0072   17.4012   22.6229 H   0  0  0  0  0  0  0  0  0  0  0  0
   17.9146   17.9197   21.3404 H   0  0  0  0  0  0  0  0  0  0  0  0
   19.5298   19.3171   21.7443 C   0  0  0  0  0  0  0  0  0  0  0  0
   20.5889   19.2722   22.0342 H   0  0  0  0  0  0  0  0  0  0  0  0
   19.4908   19.8006   20.7586 H   0  0  0  0  0  0  0  0  0  0  0  0
   18.7421   20.1644   22.7690 C   0  0  0  0  0  0  0  0  0  0  0  0
   18.7909   19.6908   23.7594 H   0  0  0  0  0  0  0  0  0  0  0  0
   17.6822   20.1874   22.4815 H   0  0  0  0  0  0  0  0  0  0  0  0
   19.2679   21.6198   22.8692 C   0  0  0  0  0  0  0  0  0  0  0  0
   19.2508   22.0978   21.8822 H   0  0  0  0  0  0  0  0  0  0  0  0
   18.6048   22.2052   23.5170 H   0  0  0  0  0  0  0  0  0  0  0  0
   20.6787   21.7316   23.4403 C   0  0  0  0  0  0  0  0  0  0  0  0
   21.5915   21.9762   22.6762 O   0  5  0  0  0  0  0  0  0  0  0  0
   20.8247   21.5838   24.6378 O   0  0  0  0  0  0  0  0  0  0  0  0
  1  2  1  0  0  0  0
  1  3  1  0  0  0  0
  1  4  2  0  0  0  0
  4  5  1  0  0  0  0
  4  6  1  0  0  0  0
  6  7  1  0  0  0  0
  6  8  1  0  0  0  0
  6  9  1  0  0  0  0
  9 10  1  0  0  0  0
  9 11  1  0  0  0  0
  9 12  1  0  0  0  0
 12 13  1  0  0  0  0
 12 14  1  0  0  0  0
 12 15  1  0  0  0  0
 15 16  1  0  0  0  0
 15 17  1  0  0  0  0
 15 18  1  0  0  0  0
 18 19  1  0  0  0  0
 18 20  2  0  0  0  0
M  END
> <VConfSearch Rank>
910

> <Conf_Id>
81

> <Delta U+W>
-0.051

> <U+W>
-51.796

> <U>
9.412

> <W>
-61.209

> <W(PB)>
-63.452

> <W(SA)>
2.243

> <Valence>
9.329

> <Coulomb>
-0.323

> <VdW>
0.406

> <VdW6>
-6.640

> <VdW12>
7.046

> <Bond>
0.105

> <Angle>
2.401

> <Pdih>
6.823

> <Idih>
0.000

> <Tether>
0.000

$$$$
VeraChem MOL file


 20 19  0  0  0  0  0  0  0  0999 V2000     
   22.8874   19.0632   21.9638 C   0  0  0  0  0  0  0  0  0  0  0  0
   23.2295   18.5423   22.8566 H   0  0  0  0  0  0  0  0  0  0  0  0
   23.6097   19.2125   21.1630 H   0  0  0  0  0  0  0  0  0  0  0  0
   21.6308   19.5010   21.8502 C   0  0  0  0  0  0  0  0  0  0  0  0
   21.3093   20.0222   20.9490 H   0  0  0  0  0  0  0  0  0  0  0  0
   20.5747   19.3349   22.9220 C   0  0  0  0  0  0  0  0  0  0  0  0
   20.0233   20.2744   23.0562 H   0  0  0  0  0  0  0  0  0  0  0  0
   21.0562   19.1302   23.8876 H   0  0  0  0  0  0  0  0  0  0  0  0
   19.5916   18.1814   22.6094 C   0  0  0  0  0  0  0  0  0  0  0  0
   20.1546   17.2390   22.5658 H   0  0  0  0  0  0  0  0  0  0  0  0
   18.8880   18.0767   23.4467 H   0  0  0  0  0  0  0  0  0  0  0  0
   18.7947   18.3484   21.2899 C   0  0  0  0  0  0  0  0  0  0  0  0
   18.1522   17.4677   21.1531 H   0  0  0  0  0  0  0  0  0  0  0  0
   19.4898   18.3517   20.4400 H   0  0  0  0  0  0  0  0  0  0  0  0
   17.9103   19.6237   21.2303 C   0  0  0  0  0  0  0  0  0  0  0  0
   18.5294   20.5261   21.2880 H   0  0  0  0  0  0  0  0  0  0  0  0
   17.3945   19.6628   20.2638 H   0  0  0  0  0  0  0  0  0  0  0  0
   16.8426   19.6928   22.3183 C   0  0  0  0  0  0  0  0  0  0  0  0
   16.9859   20.4993   23.2161 O   0  5  0  0  0  0  0  0  0  0  0  0
   15.8856   18.9486   22.2292 O   0  0  0  0  0  0  0  0  0  0  0  0
  1  2  1  0  0  0  0
  1  3  1  0  0  0  0
  1  4  2  0  0  0  0
  4  5  1  0  0  0  0
  4  6  1  0  0  0  0
  6  7  1  0  0  0  0
  6  8  1  0  0  0  0
  6  9  1  0  0  0  0
  9 10  1  0  0  0  0
  9 11  1  0  0  0  0
  9 12  1  0  0  0  0
 12 13  1  0  0  0  0
 12 14  1  0  0  0  0
 12 15  1  0  0  0  0
 15 16  1  0  0  0  0
 15 17  1  0  0  0  0
 15 18  1  0  0  0  0
 18 19  1  0  0  0  0
 18 20  2  0  0  0  0
M  END
> <VConfSearch Rank>
911

> <Conf_Id>
86

> <Delta U+W>
1.248

> <U+W>
-50.498

> <U>
10.404

> <W>
-60.901

> <W(PB)>
-63.061

> <W(SA)>
2.159

> <Valence>
10.021

> <Coulomb>
0.094

> <VdW>
0.289

> <VdW6>
-8.409

> <VdW12>
8.698

> <Bond>
0.179

> <Angle>
2.939

> <Pdih>
6.902

> <Idih>
0.001

> <Tether>
0.000

$$$$
VeraChem MOL file


 20 19  0  0  0  0  0  0  0  0999 V2000     
   21.1545   20.1369   24.6238 C   0  0  0  0  0  0  0  0  0  0  0  0
   21.9034   20.8728   24.9114 H   0  0  0  0  0  0  0  0  0  0  0  0
   20.1600   20.2389   25.0550 H   0  0  0  0  0  0  0  0  0  0  0  0
   21.4473   19.1508   23.7718 C   0  0  0  0  0  0  0  0  0  0  0  0
   22.4484   19.0678   23.3496 H   0  0  0  0  0  0  0  0  0  0  0  0
   20.4605   18.0929   23.3254 C   0  0  0  0  0  0  0  0  0  0  0  0
   19.5520   18.1263   23.9420 H   0  0  0  0  0  0  0  0  0  0  0  0
   20.9040   17.1005   23.4811 H   0  0  0  0  0  0  0  0  0  0  0  0
   20.0778   18.2391   21.8353 C   0  0  0  0  0  0  0  0  0  0  0  0
   20.9863   18.2097   21.2182 H   0  0  0  0  0  0  0  0  0  0  0  0
   19.4712   17.3719   21.5405 H   0  0  0  0  0  0  0  0  0  0  0  0
   19.2897   19.5387   21.5462 C   0  0  0  0  0  0  0  0  0  0  0  0
   19.8977   20.4067   21.8341 H   0  0  0  0  0  0  0  0  0  0  0  0
   18.3832   19.5695   22.1663 H   0  0  0  0  0  0  0  0  0  0  0  0
   18.8964   19.6780   20.0525 C   0  0  0  0  0  0  0  0  0  0  0  0
   18.4520   20.6655   19.8815 H   0  0  0  0  0  0  0  0  0  0  0  0
   19.7892   19.6174   19.4186 H   0  0  0  0  0  0  0  0  0  0  0  0
   17.8887   18.6357   19.5763 C   0  0  0  0  0  0  0  0  0  0  0  0
   16.7249   18.7760   19.8973 O   0  5  0  0  0  0  0  0  0  0  0  0
   18.2907   17.7181   18.8882 O   0  0  0  0  0  0  0  0  0  0  0  0
  1  2  1  0  0  0  0
  1  3  1  0  0  0  0
  1  4  2  0  0  0  0
  4  5  1  0  0  0  0
  4  6  1  0  0  0  0
  6  7  1  0  0  0  0
  6  8  1  0  0  0  0
  6  9  1  0  0  0  0
  9 10  1  0  0  0  0
  9 11  1  0  0  0  0
  9 12  1  0  0  0  0
 12 13  1  0  0  0  0
 12 14  1  0  0  0  0
 12 15  1  0  0  0  0
 15 16  1  0  0  0  0
 15 17  1  0  0  0  0
 15 18  1  0  0  0  0
 18 19  1  0  0  0  0
 18 20  2  0  0  0  0
M  END
> <VConfSearch Rank>
912

> <Conf_Id>
28

> <Delta U+W>
0.446

> <U+W>
-51.299

> <U>
9.295

> <W>
-60.594

> <W(PB)>
-62.806

> <W(SA)>
2.212

> <Valence>
9.495

> <Coulomb>
-0.610

> <VdW>
0.409

> <VdW6>
-7.332

> <VdW12>
7.741

> <Bond>
0.126

> <Angle>
2.497

> <Pdih>
6.872

> <Idih>
0.000

> <Tether>
0.000

$$$$
VeraChem MOL file


 20 19  0  0  0  0  0  0  0  0999 V2000     
   19.5313   20.3799   19.2422 C   0  0  0  0  0  0  0  0  0  0  0  0
   20.5552   20.5553   19.5651 H   0  0  0  0  0  0  0  0  0  0  0  0
   19.3028   20.5886   18.1984 H   0  0  0  0  0  0  0  0  0  0  0  0
   18.5846   19.9260   20.0714 C   0  0  0  0  0  0  0  0  0  0  0  0
   17.5767   19.7674   19.6886 H   0  0  0  0  0  0  0  0  0  0  0  0
   18.7501   19.5930   21.5449 C   0  0  0  0  0  0  0  0  0  0  0  0
   18.5329   18.5263   21.6853 H   0  0  0  0  0  0  0  0  0  0  0  0
   17.9825   20.1327   22.1152 H   0  0  0  0  0  0  0  0  0  0  0  0
   20.1425   19.9236   22.1369 C   0  0  0  0  0  0  0  0  0  0  0  0
   20.9106   19.3213   21.6323 H   0  0  0  0  0  0  0  0  0  0  0  0
   20.3797   20.9755   21.9274 H   0  0  0  0  0  0  0  0  0  0  0  0
   20.2310   19.7034   23.6675 C   0  0  0  0  0  0  0  0  0  0  0  0
   19.4945   20.3458   24.1687 H   0  0  0  0  0  0  0  0  0  0  0  0
   21.2179   20.0382   24.0157 H   0  0  0  0  0  0  0  0  0  0  0  0
   20.0162   18.2333   24.1206 C   0  0  0  0  0  0  0  0  0  0  0  0
   20.0852   18.1771   25.2132 H   0  0  0  0  0  0  0  0  0  0  0  0
   19.0100   17.8892   23.8560 H   0  0  0  0  0  0  0  0  0  0  0  0
   21.0349   17.2497   23.5517 C   0  0  0  0  0  0  0  0  0  0  0  0
   22.1770   17.3058   23.9639 O   0  5  0  0  0  0  0  0  0  0  0  0
   20.6562   16.4406   22.7278 O   0  0  0  0  0  0  0  0  0  0  0  0
  1  2  1  0  0  0  0
  1  3  1  0  0  0  0
  1  4  2  0  0  0  0
  4  5  1  0  0  0  0
  4  6  1  0  0  0  0
  6  7  1  0  0  0  0
  6  8  1  0  0  0  0
  6  9  1  0  0  0  0
  9 10  1  0  0  0  0
  9 11  1  0  0  0  0
  9 12  1  0  0  0  0
 12 13  1  0  0  0  0
 12 14  1  0  0  0  0
 12 15  1  0  0  0  0
 15 16  1  0  0  0  0
 15 17  1  0  0  0  0
 15 18  1  0  0  0  0
 18 19  1  0  0  0  0
 18 20  2  0  0  0  0
M  END
> <VConfSearch Rank>
913

> <Conf_Id>
53

> <Delta U+W>
0.549

> <U+W>
-51.197

> <U>
10.870

> <W>
-62.067

> <W(PB)>
-64.228

> <W(SA)>
2.161

> <Valence>
8.803

> <Coulomb>
1.020

> <VdW>
1.048

> <VdW6>
-8.312

> <VdW12>
9.360

> <Bond>
0.212

> <Angle>
3.379

> <Pdih>
5.211

> <Idih>
0.001

> <Tether>
0.000

$$$$
VeraChem MOL file


 20 19  0  0  0  0  0  0  0  0999 V2000     
   17.9113   16.8761   21.2240 C   0  0  0  0  0  0  0  0  0  0  0  0
   18.1039   16.5495   22.2435 H   0  0  0  0  0  0  0  0  0  0  0  0
   17.6547   16.1062   20.4985 H   0  0  0  0  0  0  0  0  0  0  0  0
   17.9766   18.1626   20.8640 C   0  0  0  0  0  0  0  0  0  0  0  0
   17.7715   18.4366   19.8296 H   0  0  0  0  0  0  0  0  0  0  0  0
   18.3267   19.3348   21.7658 C   0  0  0  0  0  0  0  0  0  0  0  0
   17.3966   19.8221   22.0865 H   0  0  0  0  0  0  0  0  0  0  0  0
   18.8511   20.0962   21.1743 H   0  0  0  0  0  0  0  0  0  0  0  0
   19.1820   18.9966   23.0148 C   0  0  0  0  0  0  0  0  0  0  0  0
   19.3004   19.9092   23.6147 H   0  0  0  0  0  0  0  0  0  0  0  0
   18.6323   18.2933   23.6540 H   0  0  0  0  0  0  0  0  0  0  0  0
   20.5865   18.4160   22.7031 C   0  0  0  0  0  0  0  0  0  0  0  0
   20.4819   17.4643   22.1665 H   0  0  0  0  0  0  0  0  0  0  0  0
   21.0865   18.1772   23.6517 H   0  0  0  0  0  0  0  0  0  0  0  0
   21.5058   19.3597   21.8805 C   0  0  0  0  0  0  0  0  0  0  0  0
   22.4687   18.8660   21.7060 H   0  0  0  0  0  0  0  0  0  0  0  0
   21.0740   19.5536   20.8921 H   0  0  0  0  0  0  0  0  0  0  0  0
   21.7965   20.6953   22.5590 C   0  0  0  0  0  0  0  0  0  0  0  0
   21.2813   21.6974   22.1035 O   0  5  0  0  0  0  0  0  0  0  0  0
   22.5462   20.7001   23.5157 O   0  0  0  0  0  0  0  0  0  0  0  0
  1  2  1  0  0  0  0
  1  3  1  0  0  0  0
  1  4  2  0  0  0  0
  4  5  1  0  0  0  0
  4  6  1  0  0  0  0
  6  7  1  0  0  0  0
  6  8  1  0  0  0  0
  6  9  1  0  0  0  0
  9 10  1  0  0  0  0
  9 11  1  0  0  0  0
  9 12  1  0  0  0  0
 12 13  1  0  0  0  0
 12 14  1  0  0  0  0
 12 15  1  0  0  0  0
 15 16  1  0  0  0  0
 15 17  1  0  0  0  0
 15 18  1  0  0  0  0
 18 19  1  0  0  0  0
 18 20  2  0  0  0  0
M  END
> <VConfSearch Rank>
914

> <Conf_Id>
66

> <Delta U+W>
1.737

> <U+W>
-50.008

> <U>
11.091

> <W>
-61.099

> <W(PB)>
-63.213

> <W(SA)>
2.114

> <Valence>
9.664

> <Coulomb>
0.658

> <VdW>
0.769

> <VdW6>
-9.171

> <VdW12>
9.940

> <Bond>
0.244

> <Angle>
3.658

> <Pdih>
5.762

> <Idih>
0.001

> <Tether>
0.000

$$$$
VeraChem MOL file


 20 19  0  0  0  0  0  0  0  0999 V2000     
   19.3178   19.1866   19.2749 C   0  0  0  0  0  0  0  0  0  0  0  0
   18.5304   19.8615   19.6031 H   0  0  0  0  0  0  0  0  0  0  0  0
   19.8357   19.4437   18.3527 H   0  0  0  0  0  0  0  0  0  0  0  0
   19.6429   18.0840   19.9587 C   0  0  0  0  0  0  0  0  0  0  0  0
   20.4387   17.4415   19.5828 H   0  0  0  0  0  0  0  0  0  0  0  0
   19.0129   17.6059   21.2568 C   0  0  0  0  0  0  0  0  0  0  0  0
   19.7835   17.1186   21.8671 H   0  0  0  0  0  0  0  0  0  0  0  0
   18.2941   16.8091   21.0244 H   0  0  0  0  0  0  0  0  0  0  0  0
   18.3082   18.6933   22.1096 C   0  0  0  0  0  0  0  0  0  0  0  0
   17.4967   19.1460   21.5248 H   0  0  0  0  0  0  0  0  0  0  0  0
   17.8206   18.2076   22.9657 H   0  0  0  0  0  0  0  0  0  0  0  0
   19.2447   19.8091   22.6393 C   0  0  0  0  0  0  0  0  0  0  0  0
   18.6335   20.5643   23.1524 H   0  0  0  0  0  0  0  0  0  0  0  0
   19.7316   20.3258   21.8016 H   0  0  0  0  0  0  0  0  0  0  0  0
   20.3274   19.2944   23.6231 C   0  0  0  0  0  0  0  0  0  0  0  0
   19.8607   18.7318   24.4402 H   0  0  0  0  0  0  0  0  0  0  0  0
   21.0196   18.6156   23.1124 H   0  0  0  0  0  0  0  0  0  0  0  0
   21.1505   20.4216   24.2364 C   0  0  0  0  0  0  0  0  0  0  0  0
   22.1739   20.7582   23.6741 O   0  5  0  0  0  0  0  0  0  0  0  0
   20.7388   20.9438   25.2537 O   0  0  0  0  0  0  0  0  0  0  0  0
  1  2  1  0  0  0  0
  1  3  1  0  0  0  0
  1  4  2  0  0  0  0
  4  5  1  0  0  0  0
  4  6  1  0  0  0  0
  6  7  1  0  0  0  0
  6  8  1  0  0  0  0
  6  9  1  0  0  0  0
  9 10  1  0  0  0  0
  9 11  1  0  0  0  0
  9 12  1  0  0  0  0
 12 13  1  0  0  0  0
 12 14  1  0  0  0  0
 12 15  1  0  0  0  0
 15 16  1  0  0  0  0
 15 17  1  0  0  0  0
 15 18  1  0  0  0  0
 18 19  1  0  0  0  0
 18 20  2  0  0  0  0
M  END
> <VConfSearch Rank>
915

> <Conf_Id>
64

> <Delta U+W>
0.366

> <U+W>
-51.379

> <U>
10.000

> <W>
-61.379

> <W(PB)>
-63.541

> <W(SA)>
2.162

> <Valence>
9.398

> <Coulomb>
-0.504

> <VdW>
1.105

> <VdW6>
-7.975

> <VdW12>
9.080

> <Bond>
0.216

> <Angle>
3.417

> <Pdih>
5.765

> <Idih>
0.001

> <Tether>
0.000

$$$$
VeraChem MOL file


 20 19  0  0  0  0  0  0  0  0999 V2000     
   22.2455   20.2740   23.4798 C   0  0  0  0  0  0  0  0  0  0  0  0
   21.5455   20.5803   24.2554 H   0  0  0  0  0  0  0  0  0  0  0  0
   23.0378   20.9723   23.2155 H   0  0  0  0  0  0  0  0  0  0  0  0
   22.1373   19.0901   22.8709 C   0  0  0  0  0  0  0  0  0  0  0  0
   22.8470   18.8037   22.0952 H   0  0  0  0  0  0  0  0  0  0  0  0
   21.0641   18.0692   23.1834 C   0  0  0  0  0  0  0  0  0  0  0  0
   20.5254   18.3428   24.1008 H   0  0  0  0  0  0  0  0  0  0  0  0
   21.5386   17.0988   23.3808 H   0  0  0  0  0  0  0  0  0  0  0  0
   20.0566   17.9045   22.0233 C   0  0  0  0  0  0  0  0  0  0  0  0
   20.5954   17.6314   21.1056 H   0  0  0  0  0  0  0  0  0  0  0  0
   19.3838   17.0672   22.2540 H   0  0  0  0  0  0  0  0  0  0  0  0
   19.2163   19.1786   21.7778 C   0  0  0  0  0  0  0  0  0  0  0  0
   19.8765   20.0180   21.5195 H   0  0  0  0  0  0  0  0  0  0  0  0
   18.6917   19.4596   22.7015 H   0  0  0  0  0  0  0  0  0  0  0  0
   18.1826   18.9774   20.6424 C   0  0  0  0  0  0  0  0  0  0  0  0
   18.6928   18.7084   19.7097 H   0  0  0  0  0  0  0  0  0  0  0  0
   17.5032   18.1530   20.8902 H   0  0  0  0  0  0  0  0  0  0  0  0
   17.3411   20.2214   20.3809 C   0  0  0  0  0  0  0  0  0  0  0  0
   16.3187   20.3671   21.0213 O   0  5  0  0  0  0  0  0  0  0  0  0
   17.7372   21.0188   19.5539 O   0  0  0  0  0  0  0  0  0  0  0  0
  1  2  1  0  0  0  0
  1  3  1  0  0  0  0
  1  4  2  0  0  0  0
  4  5  1  0  0  0  0
  4  6  1  0  0  0  0
  6  7  1  0  0  0  0
  6  8  1  0  0  0  0
  6  9  1  0  0  0  0
  9 10  1  0  0  0  0
  9 11  1  0  0  0  0
  9 12  1  0  0  0  0
 12 13  1  0  0  0  0
 12 14  1  0  0  0  0
 12 15  1  0  0  0  0
 15 16  1  0  0  0  0
 15 17  1  0  0  0  0
 15 18  1  0  0  0  0
 18 19  1  0  0  0  0
 18 20  2  0  0  0  0
M  END
> <VConfSearch Rank>
916

> <Conf_Id>
42

> <Delta U+W>
-0.601

> <U+W>
-52.347

> <U>
8.428

> <W>
-60.774

> <W(PB)>
-62.982

> <W(SA)>
2.208

> <Valence>
9.231

> <Coulomb>
-1.304

> <VdW>
0.501

> <VdW6>
-6.515

> <VdW12>
7.016

> <Bond>
0.103

> <Angle>
2.328

> <Pdih>
6.799

> <Idih>
0.000

> <Tether>
0.000

$$$$
VeraChem MOL file


 20 19  0  0  0  0  0  0  0  0999 V2000     
   21.5797   20.9181   20.4390 C   0  0  0  0  0  0  0  0  0  0  0  0
   21.3124   20.4437   19.4962 H   0  0  0  0  0  0  0  0  0  0  0  0
   22.6230   21.1929   20.5838 H   0  0  0  0  0  0  0  0  0  0  0  0
   20.6666   21.1518   21.3855 C   0  0  0  0  0  0  0  0  0  0  0  0
   20.9555   21.6252   22.3235 H   0  0  0  0  0  0  0  0  0  0  0  0
   19.2004   20.7972   21.2574 C   0  0  0  0  0  0  0  0  0  0  0  0
   18.9607   20.5107   20.2244 H   0  0  0  0  0  0  0  0  0  0  0  0
   18.5955   21.6860   21.4806 H   0  0  0  0  0  0  0  0  0  0  0  0
   18.7873   19.6594   22.2179 C   0  0  0  0  0  0  0  0  0  0  0  0
   19.0218   19.9509   23.2511 H   0  0  0  0  0  0  0  0  0  0  0  0
   17.6975   19.5309   22.1689 H   0  0  0  0  0  0  0  0  0  0  0  0
   19.4735   18.3147   21.8802 C   0  0  0  0  0  0  0  0  0  0  0  0
   20.5641   18.4177   21.9663 H   0  0  0  0  0  0  0  0  0  0  0  0
   19.2634   18.0540   20.8342 H   0  0  0  0  0  0  0  0  0  0  0  0
   18.9968   17.1562   22.7943 C   0  0  0  0  0  0  0  0  0  0  0  0
   17.9063   17.0539   22.7394 H   0  0  0  0  0  0  0  0  0  0  0  0
   19.4227   16.2105   22.4391 H   0  0  0  0  0  0  0  0  0  0  0  0
   19.3975   17.3170   24.2580 C   0  0  0  0  0  0  0  0  0  0  0  0
   18.5502   17.6794   25.0504 O   0  5  0  0  0  0  0  0  0  0  0  0
   20.5431   17.0574   24.5698 O   0  0  0  0  0  0  0  0  0  0  0  0
  1  2  1  0  0  0  0
  1  3  1  0  0  0  0
  1  4  2  0  0  0  0
  4  5  1  0  0  0  0
  4  6  1  0  0  0  0
  6  7  1  0  0  0  0
  6  8  1  0  0  0  0
  6  9  1  0  0  0  0
  9 10  1  0  0  0  0
  9 11  1  0  0  0  0
  9 12  1  0  0  0  0
 12 13  1  0  0  0  0
 12 14  1  0  0  0  0
 12 15  1  0  0  0  0
 15 16  1  0  0  0  0
 15 17  1  0  0  0  0
 15 18  1  0  0  0  0
 18 19  1  0  0  0  0
 18 20  2  0  0  0  0
M  END
> <VConfSearch Rank>
917

> <Conf_Id>
68

> <Delta U+W>
0.492

> <U+W>
-51.253

> <U>
10.179

> <W>
-61.432

> <W(PB)>
-63.627

> <W(SA)>
2.195

> <Valence>
9.483

> <Coulomb>
0.361

> <VdW>
0.335

> <VdW6>
-7.385

> <VdW12>
7.720

> <Bond>
0.125

> <Angle>
2.487

> <Pdih>
6.870

> <Idih>
0.001

> <Tether>
0.000

$$$$
VeraChem MOL file


 20 19  0  0  0  0  0  0  0  0999 V2000     
   20.1228   18.7963   25.2230 C   0  0  0  0  0  0  0  0  0  0  0  0
   19.1188   18.9032   25.6305 H   0  0  0  0  0  0  0  0  0  0  0  0
   20.9547   19.1104   25.8510 H   0  0  0  0  0  0  0  0  0  0  0  0
   20.3298   18.3027   23.9994 C   0  0  0  0  0  0  0  0  0  0  0  0
   21.3432   18.2017   23.6119 H   0  0  0  0  0  0  0  0  0  0  0  0
   19.2247   17.8410   23.0735 C   0  0  0  0  0  0  0  0  0  0  0  0
   18.3103   17.6535   23.6526 H   0  0  0  0  0  0  0  0  0  0  0  0
   19.4986   16.8824   22.6129 H   0  0  0  0  0  0  0  0  0  0  0  0
   18.9089   18.8778   21.9719 C   0  0  0  0  0  0  0  0  0  0  0  0
   18.0195   18.5469   21.4185 H   0  0  0  0  0  0  0  0  0  0  0  0
   18.6471   19.8369   22.4400 H   0  0  0  0  0  0  0  0  0  0  0  0
   20.0793   19.0765   20.9797 C   0  0  0  0  0  0  0  0  0  0  0  0
   20.3641   18.1041   20.5559 H   0  0  0  0  0  0  0  0  0  0  0  0
   20.9610   19.4616   21.5099 H   0  0  0  0  0  0  0  0  0  0  0  0
   19.7201   20.0441   19.8223 C   0  0  0  0  0  0  0  0  0  0  0  0
   20.5362   20.0587   19.0904 H   0  0  0  0  0  0  0  0  0  0  0  0
   18.8267   19.6892   19.2944 H   0  0  0  0  0  0  0  0  0  0  0  0
   19.4815   21.4835   20.2695 C   0  0  0  0  0  0  0  0  0  0  0  0
   20.4505   22.1735   20.5186 O   0  5  0  0  0  0  0  0  0  0  0  0
   18.3356   21.8827   20.3382 O   0  0  0  0  0  0  0  0  0  0  0  0
  1  2  1  0  0  0  0
  1  3  1  0  0  0  0
  1  4  2  0  0  0  0
  4  5  1  0  0  0  0
  4  6  1  0  0  0  0
  6  7  1  0  0  0  0
  6  8  1  0  0  0  0
  6  9  1  0  0  0  0
  9 10  1  0  0  0  0
  9 11  1  0  0  0  0
  9 12  1  0  0  0  0
 12 13  1  0  0  0  0
 12 14  1  0  0  0  0
 12 15  1  0  0  0  0
 15 16  1  0  0  0  0
 15 17  1  0  0  0  0
 15 18  1  0  0  0  0
 18 19  1  0  0  0  0
 18 20  2  0  0  0  0
M  END
> <VConfSearch Rank>
918

> <Conf_Id>
87

> <Delta U+W>
0.339

> <U+W>
-51.407

> <U>
10.461

> <W>
-61.867

> <W(PB)>
-64.045

> <W(SA)>
2.178

> <Valence>
9.555

> <Coulomb>
0.483

> <VdW>
0.423

> <VdW6>
-7.223

> <VdW12>
7.646

> <Bond>
0.126

> <Angle>
2.492

> <Pdih>
6.936

> <Idih>
0.001

> <Tether>
0.000

$$$$
VeraChem MOL file


 20 19  0  0  0  0  0  0  0  0999 V2000     
   18.8284   21.4571   22.9784 C   0  0  0  0  0  0  0  0  0  0  0  0
   17.7641   21.3374   23.1740 H   0  0  0  0  0  0  0  0  0  0  0  0
   19.3994   22.0758   23.6684 H   0  0  0  0  0  0  0  0  0  0  0  0
   19.4139   20.8662   21.9335 C   0  0  0  0  0  0  0  0  0  0  0  0
   20.4785   21.0054   21.7492 H   0  0  0  0  0  0  0  0  0  0  0  0
   18.6799   20.0043   20.9285 C   0  0  0  0  0  0  0  0  0  0  0  0
   19.2620   19.9221   20.0009 H   0  0  0  0  0  0  0  0  0  0  0  0
   17.7467   20.5125   20.6504 H   0  0  0  0  0  0  0  0  0  0  0  0
   18.3298   18.5928   21.4616 C   0  0  0  0  0  0  0  0  0  0  0  0
   17.9152   18.6666   22.4762 H   0  0  0  0  0  0  0  0  0  0  0  0
   17.5236   18.1866   20.8357 H   0  0  0  0  0  0  0  0  0  0  0  0
   19.5001   17.5774   21.4375 C   0  0  0  0  0  0  0  0  0  0  0  0
   19.9212   17.5167   20.4245 H   0  0  0  0  0  0  0  0  0  0  0  0
   19.0959   16.5807   21.6624 H   0  0  0  0  0  0  0  0  0  0  0  0
   20.6315   17.8851   22.4516 C   0  0  0  0  0  0  0  0  0  0  0  0
   21.1598   18.8021   22.1724 H   0  0  0  0  0  0  0  0  0  0  0  0
   20.2121   18.0405   23.4528 H   0  0  0  0  0  0  0  0  0  0  0  0
   21.6655   16.7684   22.5385 C   0  0  0  0  0  0  0  0  0  0  0  0
   22.6099   16.7996   21.7742 O   0  5  0  0  0  0  0  0  0  0  0  0
   21.4889   15.8850   23.3541 O   0  0  0  0  0  0  0  0  0  0  0  0
  1  2  1  0  0  0  0
  1  3  1  0  0  0  0
  1  4  2  0  0  0  0
  4  5  1  0  0  0  0
  4  6  1  0  0  0  0
  6  7  1  0  0  0  0
  6  8  1  0  0  0  0
  6  9  1  0  0  0  0
  9 10  1  0  0  0  0
  9 11  1  0  0  0  0
  9 12  1  0  0  0  0
 12 13  1  0  0  0  0
 12 14  1  0  0  0  0
 12 15  1  0  0  0  0
 15 16  1  0  0  0  0
 15 17  1  0  0  0  0
 15 18  1  0  0  0  0
 18 19  1  0  0  0  0
 18 20  2  0  0  0  0
M  END
> <VConfSearch Rank>
919

> <Conf_Id>
51

> <Delta U+W>
1.709

> <U+W>
-50.036

> <U>
10.643

> <W>
-60.679

> <W(PB)>
-62.882

> <W(SA)>
2.203

> <Valence>
11.231

> <Coulomb>
-1.077

> <VdW>
0.489

> <VdW6>
-7.546

> <VdW12>
8.035

> <Bond>
0.159

> <Angle>
3.005

> <Pdih>
8.065

> <Idih>
0.002

> <Tether>
0.000

$$$$
VeraChem MOL file


 20 19  0  0  0  0  0  0  0  0999 V2000     
   17.5925   17.1875   22.4587 C   0  0  0  0  0  0  0  0  0  0  0  0
   17.8162   16.4026   21.7380 H   0  0  0  0  0  0  0  0  0  0  0  0
   16.5444   17.3864   22.6755 H   0  0  0  0  0  0  0  0  0  0  0  0
   18.5652   17.8829   23.0535 C   0  0  0  0  0  0  0  0  0  0  0  0
   18.3216   18.6585   23.7787 H   0  0  0  0  0  0  0  0  0  0  0  0
   20.0412   17.6515   22.8095 C   0  0  0  0  0  0  0  0  0  0  0  0
   20.2316   16.5700   22.8293 H   0  0  0  0  0  0  0  0  0  0  0  0
   20.6336   18.0732   23.6325 H   0  0  0  0  0  0  0  0  0  0  0  0
   20.5407   18.2128   21.4550 C   0  0  0  0  0  0  0  0  0  0  0  0
   21.4857   17.7094   21.2095 H   0  0  0  0  0  0  0  0  0  0  0  0
   19.8387   17.9425   20.6544 H   0  0  0  0  0  0  0  0  0  0  0  0
   20.8040   19.7398   21.4387 C   0  0  0  0  0  0  0  0  0  0  0  0
   21.3184   19.9905   20.5006 H   0  0  0  0  0  0  0  0  0  0  0  0
   21.4953   20.0083   22.2493 H   0  0  0  0  0  0  0  0  0  0  0  0
   19.5238   20.6081   21.5401 C   0  0  0  0  0  0  0  0  0  0  0  0
   18.7868   20.2865   20.7946 H   0  0  0  0  0  0  0  0  0  0  0  0
   19.0611   20.4980   22.5259 H   0  0  0  0  0  0  0  0  0  0  0  0
   19.7990   22.0920   21.3256 C   0  0  0  0  0  0  0  0  0  0  0  0
   20.0958   22.7664   22.2920 O   0  5  0  0  0  0  0  0  0  0  0  0
   19.7296   22.5309   20.1945 O   0  0  0  0  0  0  0  0  0  0  0  0
  1  2  1  0  0  0  0
  1  3  1  0  0  0  0
  1  4  2  0  0  0  0
  4  5  1  0  0  0  0
  4  6  1  0  0  0  0
  6  7  1  0  0  0  0
  6  8  1  0  0  0  0
  6  9  1  0  0  0  0
  9 10  1  0  0  0  0
  9 11  1  0  0  0  0
  9 12  1  0  0  0  0
 12 13  1  0  0  0  0
 12 14  1  0  0  0  0
 12 15  1  0  0  0  0
 15 16  1  0  0  0  0
 15 17  1  0  0  0  0
 15 18  1  0  0  0  0
 18 19  1  0  0  0  0
 18 20  2  0  0  0  0
M  END
> <VConfSearch Rank>
920

> <Conf_Id>
91

> <Delta U+W>
1.604

> <U+W>
-50.141

> <U>
10.644

> <W>
-60.786

> <W(PB)>
-62.965

> <W(SA)>
2.179

> <Valence>
11.230

> <Coulomb>
-1.075

> <VdW>
0.489

> <VdW6>
-7.547

> <VdW12>
8.036

> <Bond>
0.159

> <Angle>
3.006

> <Pdih>
8.064

> <Idih>
0.002

> <Tether>
0.000

$$$$
VeraChem MOL file


 20 19  0  0  0  0  0  0  0  0999 V2000     
   20.4625   18.7410   25.5040 C   0  0  0  0  0  0  0  0  0  0  0  0
   19.5863   18.0993   25.5812 H   0  0  0  0  0  0  0  0  0  0  0  0
   20.8142   19.2204   26.4160 H   0  0  0  0  0  0  0  0  0  0  0  0
   21.0831   18.9371   24.3378 C   0  0  0  0  0  0  0  0  0  0  0  0
   21.9583   19.5841   24.2820 H   0  0  0  0  0  0  0  0  0  0  0  0
   20.6537   18.3056   23.0323 C   0  0  0  0  0  0  0  0  0  0  0  0
   19.9482   17.4849   23.2208 H   0  0  0  0  0  0  0  0  0  0  0  0
   21.5265   17.8635   22.5333 H   0  0  0  0  0  0  0  0  0  0  0  0
   19.9960   19.3448   22.1004 C   0  0  0  0  0  0  0  0  0  0  0  0
   19.1262   19.7869   22.6058 H   0  0  0  0  0  0  0  0  0  0  0  0
   20.7036   20.1631   21.9085 H   0  0  0  0  0  0  0  0  0  0  0  0
   19.5538   18.7168   20.7606 C   0  0  0  0  0  0  0  0  0  0  0  0
   18.8456   17.8986   20.9516 H   0  0  0  0  0  0  0  0  0  0  0  0
   20.4230   18.2734   20.2552 H   0  0  0  0  0  0  0  0  0  0  0  0
   18.8917   19.7622   19.8239 C   0  0  0  0  0  0  0  0  0  0  0  0
   18.0195   20.2042   20.3196 H   0  0  0  0  0  0  0  0  0  0  0  0
   19.5953   20.5788   19.6237 H   0  0  0  0  0  0  0  0  0  0  0  0
   18.4229   19.2224   18.4718 C   0  0  0  0  0  0  0  0  0  0  0  0
   17.9005   20.0120   17.7105 O   0  5  0  0  0  0  0  0  0  0  0  0
   18.5824   18.0470   18.2038 O   0  0  0  0  0  0  0  0  0  0  0  0
  1  2  1  0  0  0  0
  1  3  1  0  0  0  0
  1  4  2  0  0  0  0
  4  5  1  0  0  0  0
  4  6  1  0  0  0  0
  6  7  1  0  0  0  0
  6  8  1  0  0  0  0
  6  9  1  0  0  0  0
  9 10  1  0  0  0  0
  9 11  1  0  0  0  0
  9 12  1  0  0  0  0
 12 13  1  0  0  0  0
 12 14  1  0  0  0  0
 12 15  1  0  0  0  0
 15 16  1  0  0  0  0
 15 17  1  0  0  0  0
 15 18  1  0  0  0  0
 18 19  1  0  0  0  0
 18 20  2  0  0  0  0
M  END
> <VConfSearch Rank>
921

> <Conf_Id>
33

> <Delta U+W>
0.000

> <U+W>
-51.745

> <U>
7.593

> <W>
-59.338

> <W(PB)>
-61.574

> <W(SA)>
2.236

> <Valence>
9.570

> <Coulomb>
-3.091

> <VdW>
1.114

> <VdW6>
-6.064

> <VdW12>
7.178

> <Bond>
0.117

> <Angle>
2.692

> <Pdih>
6.761

> <Idih>
0.000

> <Tether>
0.000

$$$$
VeraChem MOL file


 20 19  0  0  0  0  0  0  0  0999 V2000     
   21.1846   16.4510   23.9697 C   0  0  0  0  0  0  0  0  0  0  0  0
   20.2205   16.2934   24.4506 H   0  0  0  0  0  0  0  0  0  0  0  0
   22.0509   15.9618   24.4118 H   0  0  0  0  0  0  0  0  0  0  0  0
   21.3046   17.2158   22.8814 C   0  0  0  0  0  0  0  0  0  0  0  0
   22.2791   17.3615   22.4158 H   0  0  0  0  0  0  0  0  0  0  0  0
   20.1487   17.9251   22.2119 C   0  0  0  0  0  0  0  0  0  0  0  0
   19.1938   17.5250   22.5789 H   0  0  0  0  0  0  0  0  0  0  0  0
   20.1818   17.7280   21.1329 H   0  0  0  0  0  0  0  0  0  0  0  0
   20.2040   19.4468   22.4752 C   0  0  0  0  0  0  0  0  0  0  0  0
   20.2555   19.6162   23.5596 H   0  0  0  0  0  0  0  0  0  0  0  0
   21.1292   19.8616   22.0523 H   0  0  0  0  0  0  0  0  0  0  0  0
   18.9843   20.2153   21.9131 C   0  0  0  0  0  0  0  0  0  0  0  0
   19.0466   21.2625   22.2402 H   0  0  0  0  0  0  0  0  0  0  0  0
   18.0588   19.8102   22.3454 H   0  0  0  0  0  0  0  0  0  0  0  0
   18.8910   20.1817   20.3655 C   0  0  0  0  0  0  0  0  0  0  0  0
   19.8261   20.5440   19.9219 H   0  0  0  0  0  0  0  0  0  0  0  0
   18.7373   19.1568   20.0095 H   0  0  0  0  0  0  0  0  0  0  0  0
   17.7495   21.0358   19.8256 C   0  0  0  0  0  0  0  0  0  0  0  0
   16.6571   20.5191   19.6976 O   0  5  0  0  0  0  0  0  0  0  0  0
   17.9780   22.2007   19.5658 O   0  0  0  0  0  0  0  0  0  0  0  0
  1  2  1  0  0  0  0
  1  3  1  0  0  0  0
  1  4  2  0  0  0  0
  4  5  1  0  0  0  0
  4  6  1  0  0  0  0
  6  7  1  0  0  0  0
  6  8  1  0  0  0  0
  6  9  1  0  0  0  0
  9 10  1  0  0  0  0
  9 11  1  0  0  0  0
  9 12  1  0  0  0  0
 12 13  1  0  0  0  0
 12 14  1  0  0  0  0
 12 15  1  0  0  0  0
 15 16  1  0  0  0  0
 15 17  1  0  0  0  0
 15 18  1  0  0  0  0
 18 19  1  0  0  0  0
 18 20  2  0  0  0  0
M  END
> <VConfSearch Rank>
922

> <Conf_Id>
37

> <Delta U+W>
-0.384

> <U+W>
-52.130

> <U>
7.491

> <W>
-59.621

> <W(PB)>
-61.853

> <W(SA)>
2.232

> <Valence>
9.604

> <Coulomb>
-2.799

> <VdW>
0.686

> <VdW6>
-6.435

> <VdW12>
7.121

> <Bond>
0.124

> <Angle>
2.493

> <Pdih>
6.986

> <Idih>
0.001

> <Tether>
0.000

$$$$
VeraChem MOL file


 20 19  0  0  0  0  0  0  0  0999 V2000     
   20.4343   15.9556   20.7002 C   0  0  0  0  0  0  0  0  0  0  0  0
   20.6308   14.9545   20.3199 H   0  0  0  0  0  0  0  0  0  0  0  0
   21.0847   16.7520   20.3448 H   0  0  0  0  0  0  0  0  0  0  0  0
   19.4357   16.1749   21.5631 C   0  0  0  0  0  0  0  0  0  0  0  0
   18.8179   15.3360   21.8828 H   0  0  0  0  0  0  0  0  0  0  0  0
   19.0421   17.5078   22.1773 C   0  0  0  0  0  0  0  0  0  0  0  0
   19.0811   17.4175   23.2711 H   0  0  0  0  0  0  0  0  0  0  0  0
   17.9906   17.7114   21.9344 H   0  0  0  0  0  0  0  0  0  0  0  0
   19.9067   18.7121   21.7368 C   0  0  0  0  0  0  0  0  0  0  0  0
   20.9576   18.5237   21.9960 H   0  0  0  0  0  0  0  0  0  0  0  0
   19.8553   18.8208   20.6447 H   0  0  0  0  0  0  0  0  0  0  0  0
   19.4421   20.0249   22.4044 C   0  0  0  0  0  0  0  0  0  0  0  0
   19.4911   19.9226   23.4975 H   0  0  0  0  0  0  0  0  0  0  0  0
   18.3911   20.2191   22.1490 H   0  0  0  0  0  0  0  0  0  0  0  0
   20.3063   21.2323   21.9649 C   0  0  0  0  0  0  0  0  0  0  0  0
   21.3577   21.0603   22.2250 H   0  0  0  0  0  0  0  0  0  0  0  0
   20.2577   21.3567   20.8764 H   0  0  0  0  0  0  0  0  0  0  0  0
   19.8668   22.5412   22.6111 C   0  0  0  0  0  0  0  0  0  0  0  0
   20.3615   22.8489   23.6776 O   0  5  0  0  0  0  0  0  0  0  0  0
   19.0268   23.2088   22.0407 O   0  0  0  0  0  0  0  0  0  0  0  0
  1  2  1  0  0  0  0
  1  3  1  0  0  0  0
  1  4  2  0  0  0  0
  4  5  1  0  0  0  0
  4  6  1  0  0  0  0
  6  7  1  0  0  0  0
  6  8  1  0  0  0  0
  6  9  1  0  0  0  0
  9 10  1  0  0  0  0
  9 11  1  0  0  0  0
  9 12  1  0  0  0  0
 12 13  1  0  0  0  0
 12 14  1  0  0  0  0
 12 15  1  0  0  0  0
 15 16  1  0  0  0  0
 15 17  1  0  0  0  0
 15 18  1  0  0  0  0
 18 19  1  0  0  0  0
 18 20  2  0  0  0  0
M  END
> <VConfSearch Rank>
923

> <Conf_Id>
44

> <Delta U+W>
-1.440

> <U+W>
-53.185

> <U>
6.572

> <W>
-59.757

> <W(PB)>
-62.007

> <W(SA)>
2.249

> <Valence>
7.989

> <Coulomb>
-2.697

> <VdW>
1.281

> <VdW6>
-6.467

> <VdW12>
7.748

> <Bond>
0.136

> <Angle>
2.854

> <Pdih>
4.997

> <Idih>
0.001

> <Tether>
0.000

$$$$
VeraChem MOL file


 20 19  0  0  0  0  0  0  0  0999 V2000     
   20.9906   22.0465   20.6489 C   0  0  0  0  0  0  0  0  0  0  0  0
   20.0563   22.4041   21.0787 H   0  0  0  0  0  0  0  0  0  0  0  0
   21.5136   22.7114   19.9635 H   0  0  0  0  0  0  0  0  0  0  0  0
   21.4783   20.8392   20.9460 C   0  0  0  0  0  0  0  0  0  0  0  0
   22.4151   20.5002   20.5043 H   0  0  0  0  0  0  0  0  0  0  0  0
   20.8098   19.8632   21.8885 C   0  0  0  0  0  0  0  0  0  0  0  0
   20.0441   20.3813   22.4801 H   0  0  0  0  0  0  0  0  0  0  0  0
   21.5508   19.4741   22.5995 H   0  0  0  0  0  0  0  0  0  0  0  0
   20.1712   18.6900   21.1114 C   0  0  0  0  0  0  0  0  0  0  0  0
   19.3916   19.0751   20.4397 H   0  0  0  0  0  0  0  0  0  0  0  0
   20.9352   18.2316   20.4686 H   0  0  0  0  0  0  0  0  0  0  0  0
   19.5755   17.5941   22.0271 C   0  0  0  0  0  0  0  0  0  0  0  0
   20.3564   17.2012   22.6928 H   0  0  0  0  0  0  0  0  0  0  0  0
   19.2490   16.7518   21.4015 H   0  0  0  0  0  0  0  0  0  0  0  0
   18.3707   18.0817   22.8731 C   0  0  0  0  0  0  0  0  0  0  0  0
   18.6823   18.8624   23.5761 H   0  0  0  0  0  0  0  0  0  0  0  0
   17.6026   18.5167   22.2225 H   0  0  0  0  0  0  0  0  0  0  0  0
   17.7265   16.9611   23.6814 C   0  0  0  0  0  0  0  0  0  0  0  0
   16.8253   16.3282   23.1675 O   0  5  0  0  0  0  0  0  0  0  0  0
   18.1560   16.7375   24.7959 O   0  0  0  0  0  0  0  0  0  0  0  0
  1  2  1  0  0  0  0
  1  3  1  0  0  0  0
  1  4  2  0  0  0  0
  4  5  1  0  0  0  0
  4  6  1  0  0  0  0
  6  7  1  0  0  0  0
  6  8  1  0  0  0  0
  6  9  1  0  0  0  0
  9 10  1  0  0  0  0
  9 11  1  0  0  0  0
  9 12  1  0  0  0  0
 12 13  1  0  0  0  0
 12 14  1  0  0  0  0
 12 15  1  0  0  0  0
 15 16  1  0  0  0  0
 15 17  1  0  0  0  0
 15 18  1  0  0  0  0
 18 19  1  0  0  0  0
 18 20  2  0  0  0  0
M  END
> <VConfSearch Rank>
924

> <Conf_Id>
38

> <Delta U+W>
-0.381

> <U+W>
-52.126

> <U>
7.601

> <W>
-59.727

> <W(PB)>
-61.964

> <W(SA)>
2.236

> <Valence>
9.602

> <Coulomb>
-2.686

> <VdW>
0.685

> <VdW6>
-6.453

> <VdW12>
7.139

> <Bond>
0.125

> <Angle>
2.485

> <Pdih>
6.991

> <Idih>
0.001

> <Tether>
0.000

$$$$
VeraChem MOL file


 20 19  0  0  0  0  0  0  0  0999 V2000     
   21.5158   16.6297   23.6784 C   0  0  0  0  0  0  0  0  0  0  0  0
   20.6527   15.9662   23.6952 H   0  0  0  0  0  0  0  0  0  0  0  0
   22.5002   16.1735   23.7680 H   0  0  0  0  0  0  0  0  0  0  0  0
   21.3770   17.9519   23.5505 C   0  0  0  0  0  0  0  0  0  0  0  0
   22.2541   18.5985   23.5349 H   0  0  0  0  0  0  0  0  0  0  0  0
   20.0445   18.6559   23.4219 C   0  0  0  0  0  0  0  0  0  0  0  0
   20.0065   19.5010   24.1223 H   0  0  0  0  0  0  0  0  0  0  0  0
   19.2272   17.9770   23.7007 H   0  0  0  0  0  0  0  0  0  0  0  0
   19.8209   19.1667   21.9831 C   0  0  0  0  0  0  0  0  0  0  0  0
   20.6383   19.8473   21.7075 H   0  0  0  0  0  0  0  0  0  0  0  0
   19.8644   18.3193   21.2849 H   0  0  0  0  0  0  0  0  0  0  0  0
   18.4641   19.8917   21.8350 C   0  0  0  0  0  0  0  0  0  0  0  0
   18.4214   20.7464   22.5245 H   0  0  0  0  0  0  0  0  0  0  0  0
   17.6548   19.2090   22.1273 H   0  0  0  0  0  0  0  0  0  0  0  0
   18.2072   20.3862   20.3878 C   0  0  0  0  0  0  0  0  0  0  0  0
   18.2742   19.5482   19.6835 H   0  0  0  0  0  0  0  0  0  0  0  0
   17.1884   20.7841   20.3119 H   0  0  0  0  0  0  0  0  0  0  0  0
   19.1616   21.4853   19.9295 C   0  0  0  0  0  0  0  0  0  0  0  0
   20.0470   21.1914   19.1506 O   0  5  0  0  0  0  0  0  0  0  0  0
   18.9865   22.6098   20.3560 O   0  0  0  0  0  0  0  0  0  0  0  0
  1  2  1  0  0  0  0
  1  3  1  0  0  0  0
  1  4  2  0  0  0  0
  4  5  1  0  0  0  0
  4  6  1  0  0  0  0
  6  7  1  0  0  0  0
  6  8  1  0  0  0  0
  6  9  1  0  0  0  0
  9 10  1  0  0  0  0
  9 11  1  0  0  0  0
  9 12  1  0  0  0  0
 12 13  1  0  0  0  0
 12 14  1  0  0  0  0
 12 15  1  0  0  0  0
 15 16  1  0  0  0  0
 15 17  1  0  0  0  0
 15 18  1  0  0  0  0
 18 19  1  0  0  0  0
 18 20  2  0  0  0  0
M  END
> <VConfSearch Rank>
925

> <Conf_Id>
58

> <Delta U+W>
0.019

> <U+W>
-51.727

> <U>
8.963

> <W>
-60.690

> <W(PB)>
-62.934

> <W(SA)>
2.244

> <Valence>
9.327

> <Coulomb>
-0.780

> <VdW>
0.417

> <VdW6>
-6.635

> <VdW12>
7.052

> <Bond>
0.105

> <Angle>
2.399

> <Pdih>
6.822

> <Idih>
0.000

> <Tether>
0.000

$$$$
VeraChem MOL file


 20 19  0  0  0  0  0  0  0  0999 V2000     
   20.6786   20.3204   18.7777 C   0  0  0  0  0  0  0  0  0  0  0  0
   19.8678   21.0452   18.7259 H   0  0  0  0  0  0  0  0  0  0  0  0
   21.1090   19.9821   17.8366 H   0  0  0  0  0  0  0  0  0  0  0  0
   21.1291   19.8597   19.9476 C   0  0  0  0  0  0  0  0  0  0  0  0
   21.9412   19.1336   19.9773 H   0  0  0  0  0  0  0  0  0  0  0  0
   20.5823   20.2831   21.2927 C   0  0  0  0  0  0  0  0  0  0  0  0
   19.9635   21.1843   21.1850 H   0  0  0  0  0  0  0  0  0  0  0  0
   21.4132   20.5480   21.9601 H   0  0  0  0  0  0  0  0  0  0  0  0
   19.7440   19.1569   21.9329 C   0  0  0  0  0  0  0  0  0  0  0  0
   18.9167   18.8914   21.2603 H   0  0  0  0  0  0  0  0  0  0  0  0
   20.3658   18.2575   22.0416 H   0  0  0  0  0  0  0  0  0  0  0  0
   19.1798   19.5724   23.3104 C   0  0  0  0  0  0  0  0  0  0  0  0
   18.5729   20.4805   23.1942 H   0  0  0  0  0  0  0  0  0  0  0  0
   20.0054   19.8284   23.9890 H   0  0  0  0  0  0  0  0  0  0  0  0
   18.3086   18.4642   23.9567 C   0  0  0  0  0  0  0  0  0  0  0  0
   17.8398   18.8519   24.8689 H   0  0  0  0  0  0  0  0  0  0  0  0
   17.4954   18.1778   23.2788 H   0  0  0  0  0  0  0  0  0  0  0  0
   19.0868   17.2092   24.3417 C   0  0  0  0  0  0  0  0  0  0  0  0
   19.7872   17.2521   25.3341 O   0  5  0  0  0  0  0  0  0  0  0  0
   18.9641   16.2197   23.6470 O   0  0  0  0  0  0  0  0  0  0  0  0
  1  2  1  0  0  0  0
  1  3  1  0  0  0  0
  1  4  2  0  0  0  0
  4  5  1  0  0  0  0
  4  6  1  0  0  0  0
  6  7  1  0  0  0  0
  6  8  1  0  0  0  0
  6  9  1  0  0  0  0
  9 10  1  0  0  0  0
  9 11  1  0  0  0  0
  9 12  1  0  0  0  0
 12 13  1  0  0  0  0
 12 14  1  0  0  0  0
 12 15  1  0  0  0  0
 15 16  1  0  0  0  0
 15 17  1  0  0  0  0
 15 18  1  0  0  0  0
 18 19  1  0  0  0  0
 18 20  2  0  0  0  0
M  END
> <VConfSearch Rank>
926

> <Conf_Id>
54

> <Delta U+W>
-0.048

> <U+W>
-51.793

> <U>
8.964

> <W>
-60.756

> <W(PB)>
-63.007

> <W(SA)>
2.251

> <Valence>
9.327

> <Coulomb>
-0.780

> <VdW>
0.417

> <VdW6>
-6.635

> <VdW12>
7.052

> <Bond>
0.105

> <Angle>
2.399

> <Pdih>
6.822

> <Idih>
0.000

> <Tether>
0.000

$$$$
VeraChem MOL file


 20 19  0  0  0  0  0  0  0  0999 V2000     
   20.0497   21.9180   20.1750 C   0  0  0  0  0  0  0  0  0  0  0  0
   19.5432   22.8810   20.2094 H   0  0  0  0  0  0  0  0  0  0  0  0
   21.1124   21.9188   19.9379 H   0  0  0  0  0  0  0  0  0  0  0  0
   19.3903   20.7822   20.4178 C   0  0  0  0  0  0  0  0  0  0  0  0
   18.3259   20.8037   20.6498 H   0  0  0  0  0  0  0  0  0  0  0  0
   20.0261   19.4088   20.3810 C   0  0  0  0  0  0  0  0  0  0  0  0
   20.9585   19.4482   19.8018 H   0  0  0  0  0  0  0  0  0  0  0  0
   19.3672   18.7051   19.8549 H   0  0  0  0  0  0  0  0  0  0  0  0
   20.3439   18.8686   21.7936 C   0  0  0  0  0  0  0  0  0  0  0  0
   20.9238   17.9410   21.6927 H   0  0  0  0  0  0  0  0  0  0  0  0
   20.9886   19.5844   22.3220 H   0  0  0  0  0  0  0  0  0  0  0  0
   19.0732   18.5901   22.6314 C   0  0  0  0  0  0  0  0  0  0  0  0
   18.4214   17.8855   22.0965 H   0  0  0  0  0  0  0  0  0  0  0  0
   18.5023   19.5202   22.7519 H   0  0  0  0  0  0  0  0  0  0  0  0
   19.3994   18.0223   24.0373 C   0  0  0  0  0  0  0  0  0  0  0  0
   20.0772   18.6993   24.5712 H   0  0  0  0  0  0  0  0  0  0  0  0
   18.4792   17.9616   24.6302 H   0  0  0  0  0  0  0  0  0  0  0  0
   20.0202   16.6284   24.0152 C   0  0  0  0  0  0  0  0  0  0  0  0
   21.2119   16.5251   24.2299 O   0  5  0  0  0  0  0  0  0  0  0  0
   19.2919   15.6808   23.7941 O   0  0  0  0  0  0  0  0  0  0  0  0
  1  2  1  0  0  0  0
  1  3  1  0  0  0  0
  1  4  2  0  0  0  0
  4  5  1  0  0  0  0
  4  6  1  0  0  0  0
  6  7  1  0  0  0  0
  6  8  1  0  0  0  0
  6  9  1  0  0  0  0
  9 10  1  0  0  0  0
  9 11  1  0  0  0  0
  9 12  1  0  0  0  0
 12 13  1  0  0  0  0
 12 14  1  0  0  0  0
 12 15  1  0  0  0  0
 15 16  1  0  0  0  0
 15 17  1  0  0  0  0
 15 18  1  0  0  0  0
 18 19  1  0  0  0  0
 18 20  2  0  0  0  0
M  END
> <VConfSearch Rank>
927

> <Conf_Id>
27

> <Delta U+W>
0.478

> <U+W>
-51.267

> <U>
9.192

> <W>
-60.459

> <W(PB)>
-62.649

> <W(SA)>
2.190

> <Valence>
9.572

> <Coulomb>
-0.884

> <VdW>
0.504

> <VdW6>
-7.168

> <VdW12>
7.672

> <Bond>
0.127

> <Angle>
2.504

> <Pdih>
6.941

> <Idih>
0.001

> <Tether>
0.000

$$$$
VeraChem MOL file


 20 19  0  0  0  0  0  0  0  0999 V2000     
   17.7358   16.1911   22.7038 C   0  0  0  0  0  0  0  0  0  0  0  0
   18.3666   15.4732   23.2255 H   0  0  0  0  0  0  0  0  0  0  0  0
   16.8942   15.7986   22.1355 H   0  0  0  0  0  0  0  0  0  0  0  0
   17.9832   17.5026   22.7538 C   0  0  0  0  0  0  0  0  0  0  0  0
   17.3371   18.2040   22.2266 H   0  0  0  0  0  0  0  0  0  0  0  0
   19.1287   18.1200   23.5272 C   0  0  0  0  0  0  0  0  0  0  0  0
   19.4874   17.4116   24.2862 H   0  0  0  0  0  0  0  0  0  0  0  0
   18.7767   19.0046   24.0746 H   0  0  0  0  0  0  0  0  0  0  0  0
   20.3130   18.5089   22.6139 C   0  0  0  0  0  0  0  0  0  0  0  0
   21.1562   18.8248   23.2434 H   0  0  0  0  0  0  0  0  0  0  0  0
   20.6504   17.6236   22.0573 H   0  0  0  0  0  0  0  0  0  0  0  0
   19.9629   19.6461   21.6269 C   0  0  0  0  0  0  0  0  0  0  0  0
   19.6011   20.5217   22.1835 H   0  0  0  0  0  0  0  0  0  0  0  0
   19.1462   19.3293   20.9640 H   0  0  0  0  0  0  0  0  0  0  0  0
   21.1826   20.0561   20.7654 C   0  0  0  0  0  0  0  0  0  0  0  0
   22.0051   20.3921   21.4082 H   0  0  0  0  0  0  0  0  0  0  0  0
   21.5486   19.1948   20.1937 H   0  0  0  0  0  0  0  0  0  0  0  0
   20.8627   21.1761   19.7819 C   0  0  0  0  0  0  0  0  0  0  0  0
   20.4655   20.8714   18.6747 O   0  5  0  0  0  0  0  0  0  0  0  0
   21.0025   22.3242   20.1550 O   0  0  0  0  0  0  0  0  0  0  0  0
  1  2  1  0  0  0  0
  1  3  1  0  0  0  0
  1  4  2  0  0  0  0
  4  5  1  0  0  0  0
  4  6  1  0  0  0  0
  6  7  1  0  0  0  0
  6  8  1  0  0  0  0
  6  9  1  0  0  0  0
  9 10  1  0  0  0  0
  9 11  1  0  0  0  0
  9 12  1  0  0  0  0
 12 13  1  0  0  0  0
 12 14  1  0  0  0  0
 12 15  1  0  0  0  0
 15 16  1  0  0  0  0
 15 17  1  0  0  0  0
 15 18  1  0  0  0  0
 18 19  1  0  0  0  0
 18 20  2  0  0  0  0
M  END
> <VConfSearch Rank>
928

> <Conf_Id>
41

> <Delta U+W>
-0.634

> <U+W>
-52.379

> <U>
7.828

> <W>
-60.207

> <W(PB)>
-62.449

> <W(SA)>
2.242

> <Valence>
9.300

> <Coulomb>
-2.080

> <VdW>
0.608

> <VdW6>
-6.341

> <VdW12>
6.949

> <Bond>
0.103

> <Angle>
2.334

> <Pdih>
6.862

> <Idih>
0.001

> <Tether>
0.000

$$$$
VeraChem MOL file


 20 19  0  0  0  0  0  0  0  0999 V2000     
   18.6134   16.8652   24.6127 C   0  0  0  0  0  0  0  0  0  0  0  0
   18.0858   15.9426   24.8489 H   0  0  0  0  0  0  0  0  0  0  0  0
   19.1532   17.3549   25.4216 H   0  0  0  0  0  0  0  0  0  0  0  0
   18.5984   17.3718   23.3770 C   0  0  0  0  0  0  0  0  0  0  0  0
   18.0525   16.8658   22.5809 H   0  0  0  0  0  0  0  0  0  0  0  0
   19.3052   18.6469   22.9745 C   0  0  0  0  0  0  0  0  0  0  0  0
   19.6023   19.2148   23.8664 H   0  0  0  0  0  0  0  0  0  0  0  0
   18.6094   19.2806   22.4095 H   0  0  0  0  0  0  0  0  0  0  0  0
   20.5538   18.3420   22.1170 C   0  0  0  0  0  0  0  0  0  0  0  0
   21.1897   17.6278   22.6580 H   0  0  0  0  0  0  0  0  0  0  0  0
   20.2481   17.8406   21.1883 H   0  0  0  0  0  0  0  0  0  0  0  0
   21.3966   19.5975   21.7830 C   0  0  0  0  0  0  0  0  0  0  0  0
   22.2997   19.2833   21.2415 H   0  0  0  0  0  0  0  0  0  0  0  0
   21.7435   20.0593   22.7172 H   0  0  0  0  0  0  0  0  0  0  0  0
   20.6520   20.6637   20.9338 C   0  0  0  0  0  0  0  0  0  0  0  0
   19.7845   21.0549   21.4773 H   0  0  0  0  0  0  0  0  0  0  0  0
   21.3177   21.5167   20.7575 H   0  0  0  0  0  0  0  0  0  0  0  0
   20.1880   20.1608   19.5697 C   0  0  0  0  0  0  0  0  0  0  0  0
   21.0297   19.9681   18.7142 O   0  5  0  0  0  0  0  0  0  0  0  0
   18.9976   19.9922   19.3923 O   0  0  0  0  0  0  0  0  0  0  0  0
  1  2  1  0  0  0  0
  1  3  1  0  0  0  0
  1  4  2  0  0  0  0
  4  5  1  0  0  0  0
  4  6  1  0  0  0  0
  6  7  1  0  0  0  0
  6  8  1  0  0  0  0
  6  9  1  0  0  0  0
  9 10  1  0  0  0  0
  9 11  1  0  0  0  0
  9 12  1  0  0  0  0
 12 13  1  0  0  0  0
 12 14  1  0  0  0  0
 12 15  1  0  0  0  0
 15 16  1  0  0  0  0
 15 17  1  0  0  0  0
 15 18  1  0  0  0  0
 18 19  1  0  0  0  0
 18 20  2  0  0  0  0
M  END
> <VConfSearch Rank>
929

> <Conf_Id>
84

> <Delta U+W>
0.942

> <U+W>
-50.803

> <U>
10.196

> <W>
-60.999

> <W(PB)>
-63.182

> <W(SA)>
2.182

> <Valence>
9.837

> <Coulomb>
0.032

> <VdW>
0.328

> <VdW6>
-7.642

> <VdW12>
7.969

> <Bond>
0.151

> <Angle>
2.748

> <Pdih>
6.937

> <Idih>
0.001

> <Tether>
0.000

$$$$
VeraChem MOL file


 20 19  0  0  0  0  0  0  0  0999 V2000     
   21.3423   21.5599   20.1368 C   0  0  0  0  0  0  0  0  0  0  0  0
   21.2830   22.2445   19.2924 H   0  0  0  0  0  0  0  0  0  0  0  0
   21.7931   21.9342   21.0545 H   0  0  0  0  0  0  0  0  0  0  0  0
   20.8769   20.3113   20.0470 C   0  0  0  0  0  0  0  0  0  0  0  0
   20.4284   19.9564   19.1193 H   0  0  0  0  0  0  0  0  0  0  0  0
   20.9256   19.3052   21.1753 C   0  0  0  0  0  0  0  0  0  0  0  0
   21.6089   19.6501   21.9632 H   0  0  0  0  0  0  0  0  0  0  0  0
   21.3279   18.3540   20.8020 H   0  0  0  0  0  0  0  0  0  0  0  0
   19.5235   19.0740   21.7768 C   0  0  0  0  0  0  0  0  0  0  0  0
   19.1245   20.0305   22.1424 H   0  0  0  0  0  0  0  0  0  0  0  0
   18.8405   18.7251   20.9902 H   0  0  0  0  0  0  0  0  0  0  0  0
   19.5553   18.0452   22.9296 C   0  0  0  0  0  0  0  0  0  0  0  0
   20.2270   18.3979   23.7247 H   0  0  0  0  0  0  0  0  0  0  0  0
   19.9731   17.0992   22.5594 H   0  0  0  0  0  0  0  0  0  0  0  0
   18.1499   17.7751   23.5269 C   0  0  0  0  0  0  0  0  0  0  0  0
   17.4601   17.4478   22.7395 H   0  0  0  0  0  0  0  0  0  0  0  0
   18.2120   16.9574   24.2546 H   0  0  0  0  0  0  0  0  0  0  0  0
   17.5384   18.9766   24.2418 C   0  0  0  0  0  0  0  0  0  0  0  0
   16.6449   19.5843   23.6856 O   0  5  0  0  0  0  0  0  0  0  0  0
   17.9641   19.2648   25.3432 O   0  0  0  0  0  0  0  0  0  0  0  0
  1  2  1  0  0  0  0
  1  3  1  0  0  0  0
  1  4  2  0  0  0  0
  4  5  1  0  0  0  0
  4  6  1  0  0  0  0
  6  7  1  0  0  0  0
  6  8  1  0  0  0  0
  6  9  1  0  0  0  0
  9 10  1  0  0  0  0
  9 11  1  0  0  0  0
  9 12  1  0  0  0  0
 12 13  1  0  0  0  0
 12 14  1  0  0  0  0
 12 15  1  0  0  0  0
 15 16  1  0  0  0  0
 15 17  1  0  0  0  0
 15 18  1  0  0  0  0
 18 19  1  0  0  0  0
 18 20  2  0  0  0  0
M  END
> <VConfSearch Rank>
930

> <Conf_Id>
81

> <Delta U+W>
-0.051

> <U+W>
-51.796

> <U>
9.412

> <W>
-61.209

> <W(PB)>
-63.452

> <W(SA)>
2.243

> <Valence>
9.329

> <Coulomb>
-0.323

> <VdW>
0.406

> <VdW6>
-6.640

> <VdW12>
7.046

> <Bond>
0.105

> <Angle>
2.401

> <Pdih>
6.823

> <Idih>
0.000

> <Tether>
0.000

$$$$
VeraChem MOL file


 20 19  0  0  0  0  0  0  0  0999 V2000     
   17.2515   21.0667   21.1183 C   0  0  0  0  0  0  0  0  0  0  0  0
   17.2341   21.9016   21.8169 H   0  0  0  0  0  0  0  0  0  0  0  0
   16.7077   21.1846   20.1826 H   0  0  0  0  0  0  0  0  0  0  0  0
   17.9155   19.9410   21.3935 C   0  0  0  0  0  0  0  0  0  0  0  0
   17.9183   19.1162   20.6816 H   0  0  0  0  0  0  0  0  0  0  0  0
   18.6879   19.7033   22.6735 C   0  0  0  0  0  0  0  0  0  0  0  0
   18.4679   18.7020   23.0657 H   0  0  0  0  0  0  0  0  0  0  0  0
   18.3507   20.4077   23.4457 H   0  0  0  0  0  0  0  0  0  0  0  0
   20.2140   19.8766   22.4838 C   0  0  0  0  0  0  0  0  0  0  0  0
   20.4166   20.9111   22.1749 H   0  0  0  0  0  0  0  0  0  0  0  0
   20.7104   19.7465   23.4552 H   0  0  0  0  0  0  0  0  0  0  0  0
   20.8524   18.9128   21.4506 C   0  0  0  0  0  0  0  0  0  0  0  0
   21.9250   19.1384   21.3750 H   0  0  0  0  0  0  0  0  0  0  0  0
   20.4302   19.1097   20.4562 H   0  0  0  0  0  0  0  0  0  0  0  0
   20.6832   17.4060   21.7870 C   0  0  0  0  0  0  0  0  0  0  0  0
   19.6230   17.1289   21.7958 H   0  0  0  0  0  0  0  0  0  0  0  0
   21.1547   16.8037   21.0018 H   0  0  0  0  0  0  0  0  0  0  0  0
   21.3083   16.9905   23.1156 C   0  0  0  0  0  0  0  0  0  0  0  0
   20.5684   16.7170   24.0402 O   0  5  0  0  0  0  0  0  0  0  0  0
   22.5205   16.9346   23.1852 O   0  0  0  0  0  0  0  0  0  0  0  0
  1  2  1  0  0  0  0
  1  3  1  0  0  0  0
  1  4  2  0  0  0  0
  4  5  1  0  0  0  0
  4  6  1  0  0  0  0
  6  7  1  0  0  0  0
  6  8  1  0  0  0  0
  6  9  1  0  0  0  0
  9 10  1  0  0  0  0
  9 11  1  0  0  0  0
  9 12  1  0  0  0  0
 12 13  1  0  0  0  0
 12 14  1  0  0  0  0
 12 15  1  0  0  0  0
 15 16  1  0  0  0  0
 15 17  1  0  0  0  0
 15 18  1  0  0  0  0
 18 19  1  0  0  0  0
 18 20  2  0  0  0  0
M  END
> <VConfSearch Rank>
931

> <Conf_Id>
86

> <Delta U+W>
1.248

> <U+W>
-50.498

> <U>
10.404

> <W>
-60.901

> <W(PB)>
-63.061

> <W(SA)>
2.159

> <Valence>
10.021

> <Coulomb>
0.094

> <VdW>
0.289

> <VdW6>
-8.409

> <VdW12>
8.698

> <Bond>
0.179

> <Angle>
2.939

> <Pdih>
6.902

> <Idih>
0.001

> <Tether>
0.000

$$$$
VeraChem MOL file


 20 19  0  0  0  0  0  0  0  0999 V2000     
   19.5708   18.2965   25.0373 C   0  0  0  0  0  0  0  0  0  0  0  0
   18.9811   17.6322   25.6668 H   0  0  0  0  0  0  0  0  0  0  0  0
   20.6528   18.1771   25.0581 H   0  0  0  0  0  0  0  0  0  0  0  0
   18.9856   19.2184   24.2682 C   0  0  0  0  0  0  0  0  0  0  0  0
   17.9007   19.3201   24.2603 H   0  0  0  0  0  0  0  0  0  0  0  0
   19.7378   20.1754   23.3680 C   0  0  0  0  0  0  0  0  0  0  0  0
   20.8143   20.1455   23.5847 H   0  0  0  0  0  0  0  0  0  0  0  0
   19.4078   21.2011   23.5798 H   0  0  0  0  0  0  0  0  0  0  0  0
   19.5052   19.8769   21.8697 C   0  0  0  0  0  0  0  0  0  0  0  0
   18.4285   19.9028   21.6528 H   0  0  0  0  0  0  0  0  0  0  0  0
   19.9634   20.6792   21.2752 H   0  0  0  0  0  0  0  0  0  0  0  0
   20.0949   18.5145   21.4339 C   0  0  0  0  0  0  0  0  0  0  0  0
   19.6327   17.7109   22.0227 H   0  0  0  0  0  0  0  0  0  0  0  0
   21.1710   18.4876   21.6545 H   0  0  0  0  0  0  0  0  0  0  0  0
   19.8708   18.2219   19.9275 C   0  0  0  0  0  0  0  0  0  0  0  0
   20.1957   17.1997   19.7008 H   0  0  0  0  0  0  0  0  0  0  0  0
   18.8024   18.2766   19.6860 H   0  0  0  0  0  0  0  0  0  0  0  0
   20.6303   19.1597   18.9935 C   0  0  0  0  0  0  0  0  0  0  0  0
   21.8244   18.9829   18.8516 O   0  5  0  0  0  0  0  0  0  0  0  0
   20.0074   20.0341   18.4239 O   0  0  0  0  0  0  0  0  0  0  0  0
  1  2  1  0  0  0  0
  1  3  1  0  0  0  0
  1  4  2  0  0  0  0
  4  5  1  0  0  0  0
  4  6  1  0  0  0  0
  6  7  1  0  0  0  0
  6  8  1  0  0  0  0
  6  9  1  0  0  0  0
  9 10  1  0  0  0  0
  9 11  1  0  0  0  0
  9 12  1  0  0  0  0
 12 13  1  0  0  0  0
 12 14  1  0  0  0  0
 12 15  1  0  0  0  0
 15 16  1  0  0  0  0
 15 17  1  0  0  0  0
 15 18  1  0  0  0  0
 18 19  1  0  0  0  0
 18 20  2  0  0  0  0
M  END
> <VConfSearch Rank>
932

> <Conf_Id>
28

> <Delta U+W>
0.446

> <U+W>
-51.299

> <U>
9.295

> <W>
-60.594

> <W(PB)>
-62.806

> <W(SA)>
2.212

> <Valence>
9.495

> <Coulomb>
-0.610

> <VdW>
0.409

> <VdW6>
-7.332

> <VdW12>
7.741

> <Bond>
0.126

> <Angle>
2.497

> <Pdih>
6.872

> <Idih>
0.000

> <Tether>
0.000

$$$$
VeraChem MOL file


 20 19  0  0  0  0  0  0  0  0999 V2000     
   20.3889   16.7876   24.0011 C   0  0  0  0  0  0  0  0  0  0  0  0
   20.8909   17.6486   24.4372 H   0  0  0  0  0  0  0  0  0  0  0  0
   20.3753   15.8746   24.5939 H   0  0  0  0  0  0  0  0  0  0  0  0
   19.8066   16.8294   22.7973 C   0  0  0  0  0  0  0  0  0  0  0  0
   19.3167   15.9344   22.4145 H   0  0  0  0  0  0  0  0  0  0  0  0
   19.7448   18.0226   21.8583 C   0  0  0  0  0  0  0  0  0  0  0  0
   18.6911   18.2903   21.7075 H   0  0  0  0  0  0  0  0  0  0  0  0
   20.1195   17.7140   20.8733 H   0  0  0  0  0  0  0  0  0  0  0  0
   20.5363   19.2672   22.3306 C   0  0  0  0  0  0  0  0  0  0  0  0
   20.1117   19.6387   23.2734 H   0  0  0  0  0  0  0  0  0  0  0  0
   21.5719   18.9717   22.5469 H   0  0  0  0  0  0  0  0  0  0  0  0
   20.5676   20.4116   21.2873 C   0  0  0  0  0  0  0  0  0  0  0  0
   21.0388   20.0473   20.3645 H   0  0  0  0  0  0  0  0  0  0  0  0
   21.2139   21.2160   21.6652 H   0  0  0  0  0  0  0  0  0  0  0  0
   19.1759   21.0110   20.9460 C   0  0  0  0  0  0  0  0  0  0  0  0
   19.2958   21.8013   20.1959 H   0  0  0  0  0  0  0  0  0  0  0  0
   18.5271   20.2518   20.4946 H   0  0  0  0  0  0  0  0  0  0  0  0
   18.4516   21.6263   22.1400 C   0  0  0  0  0  0  0  0  0  0  0  0
   18.8863   22.6635   22.6010 O   0  5  0  0  0  0  0  0  0  0  0  0
   17.4608   21.0649   22.5643 O   0  0  0  0  0  0  0  0  0  0  0  0
  1  2  1  0  0  0  0
  1  3  1  0  0  0  0
  1  4  2  0  0  0  0
  4  5  1  0  0  0  0
  4  6  1  0  0  0  0
  6  7  1  0  0  0  0
  6  8  1  0  0  0  0
  6  9  1  0  0  0  0
  9 10  1  0  0  0  0
  9 11  1  0  0  0  0
  9 12  1  0  0  0  0
 12 13  1  0  0  0  0
 12 14  1  0  0  0  0
 12 15  1  0  0  0  0
 15 16  1  0  0  0  0
 15 17  1  0  0  0  0
 15 18  1  0  0  0  0
 18 19  1  0  0  0  0
 18 20  2  0  0  0  0
M  END
> <VConfSearch Rank>
933

> <Conf_Id>
53

> <Delta U+W>
0.549

> <U+W>
-51.197

> <U>
10.870

> <W>
-62.067

> <W(PB)>
-64.228

> <W(SA)>
2.161

> <Valence>
8.803

> <Coulomb>
1.020

> <VdW>
1.048

> <VdW6>
-8.312

> <VdW12>
9.360

> <Bond>
0.212

> <Angle>
3.379

> <Pdih>
5.211

> <Idih>
0.001

> <Tether>
0.000

$$$$
VeraChem MOL file


 20 19  0  0  0  0  0  0  0  0999 V2000     
   20.8121   21.0307   23.4688 C   0  0  0  0  0  0  0  0  0  0  0  0
   19.8729   21.4761   23.1479 H   0  0  0  0  0  0  0  0  0  0  0  0
   21.6534   21.7052   23.6178 H   0  0  0  0  0  0  0  0  0  0  0  0
   20.9411   19.7166   23.6809 C   0  0  0  0  0  0  0  0  0  0  0  0
   21.9038   19.3220   24.0047 H   0  0  0  0  0  0  0  0  0  0  0  0
   19.8583   18.6643   23.5072 C   0  0  0  0  0  0  0  0  0  0  0  0
   19.4268   18.4378   24.4910 H   0  0  0  0  0  0  0  0  0  0  0  0
   20.3227   17.7242   23.1830 H   0  0  0  0  0  0  0  0  0  0  0  0
   18.7169   19.0235   22.5203 C   0  0  0  0  0  0  0  0  0  0  0  0
   17.9694   18.2188   22.5428 H   0  0  0  0  0  0  0  0  0  0  0  0
   18.1945   19.9207   22.8774 H   0  0  0  0  0  0  0  0  0  0  0  0
   19.1714   19.2446   21.0535 C   0  0  0  0  0  0  0  0  0  0  0  0
   19.8639   20.0947   21.0056 H   0  0  0  0  0  0  0  0  0  0  0  0
   18.2965   19.5306   20.4538 H   0  0  0  0  0  0  0  0  0  0  0  0
   19.8436   18.0094   20.3941 C   0  0  0  0  0  0  0  0  0  0  0  0
   20.1336   18.2598   19.3671 H   0  0  0  0  0  0  0  0  0  0  0  0
   20.7678   17.7462   20.9210 H   0  0  0  0  0  0  0  0  0  0  0  0
   18.9498   16.7746   20.3256 C   0  0  0  0  0  0  0  0  0  0  0  0
   19.2043   15.8374   21.0564 O   0  5  0  0  0  0  0  0  0  0  0  0
   18.0319   16.7759   19.5287 O   0  0  0  0  0  0  0  0  0  0  0  0
  1  2  1  0  0  0  0
  1  3  1  0  0  0  0
  1  4  2  0  0  0  0
  4  5  1  0  0  0  0
  4  6  1  0  0  0  0
  6  7  1  0  0  0  0
  6  8  1  0  0  0  0
  6  9  1  0  0  0  0
  9 10  1  0  0  0  0
  9 11  1  0  0  0  0
  9 12  1  0  0  0  0
 12 13  1  0  0  0  0
 12 14  1  0  0  0  0
 12 15  1  0  0  0  0
 15 16  1  0  0  0  0
 15 17  1  0  0  0  0
 15 18  1  0  0  0  0
 18 19  1  0  0  0  0
 18 20  2  0  0  0  0
M  END
> <VConfSearch Rank>
934

> <Conf_Id>
66

> <Delta U+W>
1.737

> <U+W>
-50.008

> <U>
11.091

> <W>
-61.099

> <W(PB)>
-63.213

> <W(SA)>
2.114

> <Valence>
9.664

> <Coulomb>
0.658

> <VdW>
0.769

> <VdW6>
-9.171

> <VdW12>
9.940

> <Bond>
0.244

> <Angle>
3.658

> <Pdih>
5.762

> <Idih>
0.001

> <Tether>
0.000

$$$$
VeraChem MOL file


 20 19  0  0  0  0  0  0  0  0999 V2000     
   18.9326   18.3790   19.4232 C   0  0  0  0  0  0  0  0  0  0  0  0
   18.0205   18.1166   19.9545 H   0  0  0  0  0  0  0  0  0  0  0  0
   18.8209   18.7635   18.4109 H   0  0  0  0  0  0  0  0  0  0  0  0
   20.1439   18.2365   19.9721 C   0  0  0  0  0  0  0  0  0  0  0  0
   21.0249   18.5127   19.3934 H   0  0  0  0  0  0  0  0  0  0  0  0
   20.4490   17.7208   21.3691 C   0  0  0  0  0  0  0  0  0  0  0  0
   21.3299   18.2471   21.7573 H   0  0  0  0  0  0  0  0  0  0  0  0
   20.7603   16.6706   21.2943 H   0  0  0  0  0  0  0  0  0  0  0  0
   19.2972   17.8373   22.4016 C   0  0  0  0  0  0  0  0  0  0  0  0
   18.4303   17.2643   22.0470 H   0  0  0  0  0  0  0  0  0  0  0  0
   19.6113   17.3513   23.3353 H   0  0  0  0  0  0  0  0  0  0  0  0
   18.8580   19.2891   22.7213 C   0  0  0  0  0  0  0  0  0  0  0  0
   17.9881   19.2517   23.3915 H   0  0  0  0  0  0  0  0  0  0  0  0
   18.5194   19.7936   21.8068 H   0  0  0  0  0  0  0  0  0  0  0  0
   19.9673   20.1382   23.3945 C   0  0  0  0  0  0  0  0  0  0  0  0
   20.3523   19.6237   24.2829 H   0  0  0  0  0  0  0  0  0  0  0  0
   20.8103   20.2826   22.7094 H   0  0  0  0  0  0  0  0  0  0  0  0
   19.4764   21.5164   23.8233 C   0  0  0  0  0  0  0  0  0  0  0  0
   19.5912   22.4375   23.0391 O   0  5  0  0  0  0  0  0  0  0  0  0
   18.9785   21.6299   24.9261 O   0  0  0  0  0  0  0  0  0  0  0  0
  1  2  1  0  0  0  0
  1  3  1  0  0  0  0
  1  4  2  0  0  0  0
  4  5  1  0  0  0  0
  4  6  1  0  0  0  0
  6  7  1  0  0  0  0
  6  8  1  0  0  0  0
  6  9  1  0  0  0  0
  9 10  1  0  0  0  0
  9 11  1  0  0  0  0
  9 12  1  0  0  0  0
 12 13  1  0  0  0  0
 12 14  1  0  0  0  0
 12 15  1  0  0  0  0
 15 16  1  0  0  0  0
 15 17  1  0  0  0  0
 15 18  1  0  0  0  0
 18 19  1  0  0  0  0
 18 20  2  0  0  0  0
M  END
> <VConfSearch Rank>
935

> <Conf_Id>
64

> <Delta U+W>
0.366

> <U+W>
-51.379

> <U>
10.000

> <W>
-61.379

> <W(PB)>
-63.541

> <W(SA)>
2.162

> <Valence>
9.398

> <Coulomb>
-0.504

> <VdW>
1.105

> <VdW6>
-7.975

> <VdW12>
9.080

> <Bond>
0.216

> <Angle>
3.417

> <Pdih>
5.765

> <Idih>
0.001

> <Tether>
0.000

$$$$
VeraChem MOL file


 20 19  0  0  0  0  0  0  0  0999 V2000     
   21.1747   18.0839   24.5269 C   0  0  0  0  0  0  0  0  0  0  0  0
   22.0982   17.9477   23.9666 H   0  0  0  0  0  0  0  0  0  0  0  0
   20.9094   17.3148   25.2503 H   0  0  0  0  0  0  0  0  0  0  0  0
   20.3928   19.1495   24.3342 C   0  0  0  0  0  0  0  0  0  0  0  0
   19.4711   19.2655   24.9037 H   0  0  0  0  0  0  0  0  0  0  0  0
   20.6948   20.2573   23.3476 C   0  0  0  0  0  0  0  0  0  0  0  0
   21.7231   20.1702   22.9712 H   0  0  0  0  0  0  0  0  0  0  0  0
   20.6352   21.2242   23.8646 H   0  0  0  0  0  0  0  0  0  0  0  0
   19.7090   20.2668   22.1576 C   0  0  0  0  0  0  0  0  0  0  0  0
   18.6805   20.3533   22.5341 H   0  0  0  0  0  0  0  0  0  0  0  0
   19.8972   21.1614   21.5483 H   0  0  0  0  0  0  0  0  0  0  0  0
   19.8368   19.0096   21.2672 C   0  0  0  0  0  0  0  0  0  0  0  0
   19.6244   18.1088   21.8593 H   0  0  0  0  0  0  0  0  0  0  0  0
   20.8701   18.9158   20.9057 H   0  0  0  0  0  0  0  0  0  0  0  0
   18.8729   19.0606   20.0563 C   0  0  0  0  0  0  0  0  0  0  0  0
   17.8353   19.1418   20.4019 H   0  0  0  0  0  0  0  0  0  0  0  0
   19.0810   19.9456   19.4432 H   0  0  0  0  0  0  0  0  0  0  0  0
   18.9800   17.8303   19.1624 C   0  0  0  0  0  0  0  0  0  0  0  0
   19.7979   17.8439   18.2638 O   0  5  0  0  0  0  0  0  0  0  0  0
   18.2527   16.8855   19.3968 O   0  0  0  0  0  0  0  0  0  0  0  0
  1  2  1  0  0  0  0
  1  3  1  0  0  0  0
  1  4  2  0  0  0  0
  4  5  1  0  0  0  0
  4  6  1  0  0  0  0
  6  7  1  0  0  0  0
  6  8  1  0  0  0  0
  6  9  1  0  0  0  0
  9 10  1  0  0  0  0
  9 11  1  0  0  0  0
  9 12  1  0  0  0  0
 12 13  1  0  0  0  0
 12 14  1  0  0  0  0
 12 15  1  0  0  0  0
 15 16  1  0  0  0  0
 15 17  1  0  0  0  0
 15 18  1  0  0  0  0
 18 19  1  0  0  0  0
 18 20  2  0  0  0  0
M  END
> <VConfSearch Rank>
936

> <Conf_Id>
42

> <Delta U+W>
-0.601

> <U+W>
-52.347

> <U>
8.428

> <W>
-60.774

> <W(PB)>
-62.982

> <W(SA)>
2.208

> <Valence>
9.231

> <Coulomb>
-1.304

> <VdW>
0.501

> <VdW6>
-6.515

> <VdW12>
7.016

> <Bond>
0.103

> <Angle>
2.328

> <Pdih>
6.799

> <Idih>
0.000

> <Tether>
0.000

$$$$
VeraChem MOL file


 20 19  0  0  0  0  0  0  0  0999 V2000     
   16.6997   19.6537   21.7961 C   0  0  0  0  0  0  0  0  0  0  0  0
   16.7353   20.6844   22.1448 H   0  0  0  0  0  0  0  0  0  0  0  0
   15.8442   19.0517   22.0978 H   0  0  0  0  0  0  0  0  0  0  0  0
   17.6679   19.1425   21.0311 C   0  0  0  0  0  0  0  0  0  0  0  0
   17.6146   18.1073   20.6950 H   0  0  0  0  0  0  0  0  0  0  0  0
   18.8862   19.9158   20.5733 C   0  0  0  0  0  0  0  0  0  0  0  0
   18.7669   20.9868   20.7858 H   0  0  0  0  0  0  0  0  0  0  0  0
   18.9801   19.8250   19.4830 H   0  0  0  0  0  0  0  0  0  0  0  0
   20.1870   19.4009   21.2297 C   0  0  0  0  0  0  0  0  0  0  0  0
   20.3078   18.3311   21.0101 H   0  0  0  0  0  0  0  0  0  0  0  0
   21.0436   19.9130   20.7708 H   0  0  0  0  0  0  0  0  0  0  0  0
   20.2158   19.6324   22.7590 C   0  0  0  0  0  0  0  0  0  0  0  0
   19.3875   19.0906   23.2364 H   0  0  0  0  0  0  0  0  0  0  0  0
   20.0556   20.6989   22.9665 H   0  0  0  0  0  0  0  0  0  0  0  0
   21.5544   19.1886   23.4038 C   0  0  0  0  0  0  0  0  0  0  0  0
   22.3957   19.7023   22.9231 H   0  0  0  0  0  0  0  0  0  0  0  0
   21.5664   19.4804   24.4606 H   0  0  0  0  0  0  0  0  0  0  0  0
   21.8032   17.6842   23.3421 C   0  0  0  0  0  0  0  0  0  0  0  0
   22.5906   17.2642   22.5170 O   0  5  0  0  0  0  0  0  0  0  0  0
   21.2157   16.9738   24.1340 O   0  0  0  0  0  0  0  0  0  0  0  0
  1  2  1  0  0  0  0
  1  3  1  0  0  0  0
  1  4  2  0  0  0  0
  4  5  1  0  0  0  0
  4  6  1  0  0  0  0
  6  7  1  0  0  0  0
  6  8  1  0  0  0  0
  6  9  1  0  0  0  0
  9 10  1  0  0  0  0
  9 11  1  0  0  0  0
  9 12  1  0  0  0  0
 12 13  1  0  0  0  0
 12 14  1  0  0  0  0
 12 15  1  0  0  0  0
 15 16  1  0  0  0  0
 15 17  1  0  0  0  0
 15 18  1  0  0  0  0
 18 19  1  0  0  0  0
 18 20  2  0  0  0  0
M  END
> <VConfSearch Rank>
937

> <Conf_Id>
68

> <Delta U+W>
0.492

> <U+W>
-51.253

> <U>
10.179

> <W>
-61.432

> <W(PB)>
-63.627

> <W(SA)>
2.195

> <Valence>
9.483

> <Coulomb>
0.361

> <VdW>
0.335

> <VdW6>
-7.385

> <VdW12>
7.720

> <Bond>
0.125

> <Angle>
2.487

> <Pdih>
6.870

> <Idih>
0.001

> <Tether>
0.000

$$$$
VeraChem MOL file


 20 19  0  0  0  0  0  0  0  0999 V2000     
   19.4921   16.1144   22.7039 C   0  0  0  0  0  0  0  0  0  0  0  0
   19.9973   16.0303   23.6647 H   0  0  0  0  0  0  0  0  0  0  0  0
   19.5732   15.2716   22.0196 H   0  0  0  0  0  0  0  0  0  0  0  0
   18.8016   17.2085   22.3724 C   0  0  0  0  0  0  0  0  0  0  0  0
   18.3012   17.2708   21.4065 H   0  0  0  0  0  0  0  0  0  0  0  0
   18.6407   18.4145   23.2733 C   0  0  0  0  0  0  0  0  0  0  0  0
   18.8639   18.1338   24.3115 H   0  0  0  0  0  0  0  0  0  0  0  0
   17.5955   18.7515   23.2641 H   0  0  0  0  0  0  0  0  0  0  0  0
   19.5686   19.5811   22.8655 C   0  0  0  0  0  0  0  0  0  0  0  0
   19.5019   20.3697   23.6274 H   0  0  0  0  0  0  0  0  0  0  0  0
   20.6110   19.2333   22.8658 H   0  0  0  0  0  0  0  0  0  0  0  0
   19.2117   20.1787   21.4838 C   0  0  0  0  0  0  0  0  0  0  0  0
   18.1547   20.4771   21.4800 H   0  0  0  0  0  0  0  0  0  0  0  0
   19.3284   19.4157   20.7022 H   0  0  0  0  0  0  0  0  0  0  0  0
   20.0835   21.4101   21.1253 C   0  0  0  0  0  0  0  0  0  0  0  0
   19.7145   21.8625   20.1973 H   0  0  0  0  0  0  0  0  0  0  0  0
   19.9992   22.1751   21.9066 H   0  0  0  0  0  0  0  0  0  0  0  0
   21.5603   21.0852   20.9196 C   0  0  0  0  0  0  0  0  0  0  0  0
   21.8921   20.5701   19.8699 O   0  5  0  0  0  0  0  0  0  0  0  0
   22.3419   21.3729   21.8046 O   0  0  0  0  0  0  0  0  0  0  0  0
  1  2  1  0  0  0  0
  1  3  1  0  0  0  0
  1  4  2  0  0  0  0
  4  5  1  0  0  0  0
  4  6  1  0  0  0  0
  6  7  1  0  0  0  0
  6  8  1  0  0  0  0
  6  9  1  0  0  0  0
  9 10  1  0  0  0  0
  9 11  1  0  0  0  0
  9 12  1  0  0  0  0
 12 13  1  0  0  0  0
 12 14  1  0  0  0  0
 12 15  1  0  0  0  0
 15 16  1  0  0  0  0
 15 17  1  0  0  0  0
 15 18  1  0  0  0  0
 18 19  1  0  0  0  0
 18 20  2  0  0  0  0
M  END
> <VConfSearch Rank>
938

> <Conf_Id>
87

> <Delta U+W>
0.339

> <U+W>
-51.407

> <U>
10.461

> <W>
-61.867

> <W(PB)>
-64.045

> <W(SA)>
2.178

> <Valence>
9.555

> <Coulomb>
0.483

> <VdW>
0.423

> <VdW6>
-7.223

> <VdW12>
7.646

> <Bond>
0.126

> <Angle>
2.492

> <Pdih>
6.936

> <Idih>
0.001

> <Tether>
0.000

$$$$
VeraChem MOL file


 20 19  0  0  0  0  0  0  0  0999 V2000     
   18.2957   17.4956   24.0381 C   0  0  0  0  0  0  0  0  0  0  0  0
   18.0957   16.5261   23.5846 H   0  0  0  0  0  0  0  0  0  0  0  0
   18.5560   17.5116   25.0949 H   0  0  0  0  0  0  0  0  0  0  0  0
   18.2272   18.6234   23.3260 C   0  0  0  0  0  0  0  0  0  0  0  0
   18.4220   19.5849   23.7998 H   0  0  0  0  0  0  0  0  0  0  0  0
   17.8595   18.6762   21.8585 C   0  0  0  0  0  0  0  0  0  0  0  0
   17.5320   19.6880   21.5846 H   0  0  0  0  0  0  0  0  0  0  0  0
   16.9890   18.0269   21.6945 H   0  0  0  0  0  0  0  0  0  0  0  0
   18.9998   18.2150   20.9172 C   0  0  0  0  0  0  0  0  0  0  0  0
   19.4533   17.2910   21.3011 H   0  0  0  0  0  0  0  0  0  0  0  0
   18.5519   17.9510   19.9495 H   0  0  0  0  0  0  0  0  0  0  0  0
   20.0972   19.2765   20.6528 C   0  0  0  0  0  0  0  0  0  0  0  0
   19.6387   20.2036   20.2823 H   0  0  0  0  0  0  0  0  0  0  0  0
   20.7440   18.9091   19.8440 H   0  0  0  0  0  0  0  0  0  0  0  0
   20.9865   19.5934   21.8825 C   0  0  0  0  0  0  0  0  0  0  0  0
   20.4040   20.1003   22.6583 H   0  0  0  0  0  0  0  0  0  0  0  0
   21.3758   18.6658   22.3187 H   0  0  0  0  0  0  0  0  0  0  0  0
   22.1707   20.4896   21.5388 C   0  0  0  0  0  0  0  0  0  0  0  0
   22.0131   21.6936   21.5888 O   0  5  0  0  0  0  0  0  0  0  0  0
   23.2141   19.9607   21.2096 O   0  0  0  0  0  0  0  0  0  0  0  0
  1  2  1  0  0  0  0
  1  3  1  0  0  0  0
  1  4  2  0  0  0  0
  4  5  1  0  0  0  0
  4  6  1  0  0  0  0
  6  7  1  0  0  0  0
  6  8  1  0  0  0  0
  6  9  1  0  0  0  0
  9 10  1  0  0  0  0
  9 11  1  0  0  0  0
  9 12  1  0  0  0  0
 12 13  1  0  0  0  0
 12 14  1  0  0  0  0
 12 15  1  0  0  0  0
 15 16  1  0  0  0  0
 15 17  1  0  0  0  0
 15 18  1  0  0  0  0
 18 19  1  0  0  0  0
 18 20  2  0  0  0  0
M  END
> <VConfSearch Rank>
939

> <Conf_Id>
51

> <Delta U+W>
1.709

> <U+W>
-50.036

> <U>
10.643

> <W>
-60.679

> <W(PB)>
-62.882

> <W(SA)>
2.203

> <Valence>
11.231

> <Coulomb>
-1.077

> <VdW>
0.489

> <VdW6>
-7.546

> <VdW12>
8.035

> <Bond>
0.159

> <Angle>
3.005

> <Pdih>
8.065

> <Idih>
0.002

> <Tether>
0.000

$$$$
VeraChem MOL file


 20 19  0  0  0  0  0  0  0  0999 V2000     
   20.3428   21.7788   22.5610 C   0  0  0  0  0  0  0  0  0  0  0  0
   21.3833   21.8261   22.2438 H   0  0  0  0  0  0  0  0  0  0  0  0
   20.0614   22.3460   23.4465 H   0  0  0  0  0  0  0  0  0  0  0  0
   19.4446   21.0510   21.8921 C   0  0  0  0  0  0  0  0  0  0  0  0
   18.4061   21.0234   22.2199 H   0  0  0  0  0  0  0  0  0  0  0  0
   19.7628   20.2495   20.6480 C   0  0  0  0  0  0  0  0  0  0  0  0
   20.3741   20.8716   19.9804 H   0  0  0  0  0  0  0  0  0  0  0  0
   18.8422   20.0304   20.0908 H   0  0  0  0  0  0  0  0  0  0  0  0
   20.5327   18.9368   20.9368 C   0  0  0  0  0  0  0  0  0  0  0  0
   21.0158   18.6172   20.0035 H   0  0  0  0  0  0  0  0  0  0  0  0
   21.3482   19.1282   21.6477 H   0  0  0  0  0  0  0  0  0  0  0  0
   19.6549   17.7622   21.4376 C   0  0  0  0  0  0  0  0  0  0  0  0
   20.2667   16.8494   21.4346 H   0  0  0  0  0  0  0  0  0  0  0  0
   18.8324   17.5830   20.7315 H   0  0  0  0  0  0  0  0  0  0  0  0
   19.0802   17.9593   22.8638 C   0  0  0  0  0  0  0  0  0  0  0  0
   19.8810   18.2313   23.5617 H   0  0  0  0  0  0  0  0  0  0  0  0
   18.3471   18.7721   22.8744 H   0  0  0  0  0  0  0  0  0  0  0  0
   18.3884   16.7107   23.3988 C   0  0  0  0  0  0  0  0  0  0  0  0
   17.2071   16.5604   23.1564 O   0  5  0  0  0  0  0  0  0  0  0  0
   19.0536   15.9106   24.0266 O   0  0  0  0  0  0  0  0  0  0  0  0
  1  2  1  0  0  0  0
  1  3  1  0  0  0  0
  1  4  2  0  0  0  0
  4  5  1  0  0  0  0
  4  6  1  0  0  0  0
  6  7  1  0  0  0  0
  6  8  1  0  0  0  0
  6  9  1  0  0  0  0
  9 10  1  0  0  0  0
  9 11  1  0  0  0  0
  9 12  1  0  0  0  0
 12 13  1  0  0  0  0
 12 14  1  0  0  0  0
 12 15  1  0  0  0  0
 15 16  1  0  0  0  0
 15 17  1  0  0  0  0
 15 18  1  0  0  0  0
 18 19  1  0  0  0  0
 18 20  2  0  0  0  0
M  END
> <VConfSearch Rank>
940

> <Conf_Id>
91

> <Delta U+W>
1.604

> <U+W>
-50.141

> <U>
10.644

> <W>
-60.786

> <W(PB)>
-62.965

> <W(SA)>
2.179

> <Valence>
11.230

> <Coulomb>
-1.075

> <VdW>
0.489

> <VdW6>
-7.547

> <VdW12>
8.036

> <Bond>
0.159

> <Angle>
3.006

> <Pdih>
8.064

> <Idih>
0.002

> <Tether>
0.000

$$$$
VeraChem MOL file


 20 19  0  0  0  0  0  0  0  0999 V2000     
   19.7664   21.0885   18.8306 C   0  0  0  0  0  0  0  0  0  0  0  0
   18.8295   21.5217   19.1773 H   0  0  0  0  0  0  0  0  0  0  0  0
   19.9949   21.1729   17.7695 H   0  0  0  0  0  0  0  0  0  0  0  0
   20.6041   20.4746   19.6702 C   0  0  0  0  0  0  0  0  0  0  0  0
   21.5367   20.0470   19.3026 H   0  0  0  0  0  0  0  0  0  0  0  0
   20.3551   20.3200   21.1540 C   0  0  0  0  0  0  0  0  0  0  0  0
   19.5468   20.9907   21.4759 H   0  0  0  0  0  0  0  0  0  0  0  0
   21.2536   20.6184   21.7105 H   0  0  0  0  0  0  0  0  0  0  0  0
   19.9865   18.8641   21.5083 C   0  0  0  0  0  0  0  0  0  0  0  0
   19.0897   18.5693   20.9459 H   0  0  0  0  0  0  0  0  0  0  0  0
   20.7972   18.1942   21.1903 H   0  0  0  0  0  0  0  0  0  0  0  0
   19.7315   18.6877   23.0212 C   0  0  0  0  0  0  0  0  0  0  0  0
   18.9204   19.3571   23.3400 H   0  0  0  0  0  0  0  0  0  0  0  0
   20.6275   18.9836   23.5843 H   0  0  0  0  0  0  0  0  0  0  0  0
   19.3601   17.2235   23.3770 C   0  0  0  0  0  0  0  0  0  0  0  0
   18.4627   16.9237   22.8233 H   0  0  0  0  0  0  0  0  0  0  0  0
   20.1682   16.5503   23.0674 H   0  0  0  0  0  0  0  0  0  0  0  0
   19.0903   16.9606   24.8594 C   0  0  0  0  0  0  0  0  0  0  0  0
   18.7977   15.8249   25.1768 O   0  5  0  0  0  0  0  0  0  0  0  0
   19.1742   17.8733   25.6585 O   0  0  0  0  0  0  0  0  0  0  0  0
  1  2  1  0  0  0  0
  1  3  1  0  0  0  0
  1  4  2  0  0  0  0
  4  5  1  0  0  0  0
  4  6  1  0  0  0  0
  6  7  1  0  0  0  0
  6  8  1  0  0  0  0
  6  9  1  0  0  0  0
  9 10  1  0  0  0  0
  9 11  1  0  0  0  0
  9 12  1  0  0  0  0
 12 13  1  0  0  0  0
 12 14  1  0  0  0  0
 12 15  1  0  0  0  0
 15 16  1  0  0  0  0
 15 17  1  0  0  0  0
 15 18  1  0  0  0  0
 18 19  1  0  0  0  0
 18 20  2  0  0  0  0
M  END
> <VConfSearch Rank>
941

> <Conf_Id>
33

> <Delta U+W>
0.000

> <U+W>
-51.745

> <U>
7.593

> <W>
-59.338

> <W(PB)>
-61.574

> <W(SA)>
2.236

> <Valence>
9.570

> <Coulomb>
-3.091

> <VdW>
1.114

> <VdW6>
-6.064

> <VdW12>
7.178

> <Bond>
0.117

> <Angle>
2.692

> <Pdih>
6.761

> <Idih>
0.000

> <Tether>
0.000

$$$$
VeraChem MOL file


 20 19  0  0  0  0  0  0  0  0999 V2000     
   20.5275   22.3256   20.7123 C   0  0  0  0  0  0  0  0  0  0  0  0
   19.9537   22.7543   21.5324 H   0  0  0  0  0  0  0  0  0  0  0  0
   20.8677   23.0031   19.9309 H   0  0  0  0  0  0  0  0  0  0  0  0
   20.8034   21.0198   20.6617 C   0  0  0  0  0  0  0  0  0  0  0  0
   21.3786   20.6105   19.8315 H   0  0  0  0  0  0  0  0  0  0  0  0
   20.3660   20.0196   21.7086 C   0  0  0  0  0  0  0  0  0  0  0  0
   20.0286   20.5413   22.6145 H   0  0  0  0  0  0  0  0  0  0  0  0
   21.2261   19.4032   21.9989 H   0  0  0  0  0  0  0  0  0  0  0  0
   19.2258   19.1225   21.1766 C   0  0  0  0  0  0  0  0  0  0  0  0
   18.4111   19.7643   20.8138 H   0  0  0  0  0  0  0  0  0  0  0  0
   19.5801   18.5505   20.3081 H   0  0  0  0  0  0  0  0  0  0  0  0
   18.6549   18.1543   22.2400 C   0  0  0  0  0  0  0  0  0  0  0  0
   17.7817   17.6398   21.8153 H   0  0  0  0  0  0  0  0  0  0  0  0
   18.2879   18.7259   23.1037 H   0  0  0  0  0  0  0  0  0  0  0  0
   19.6756   17.0897   22.7194 C   0  0  0  0  0  0  0  0  0  0  0  0
   20.0813   16.5408   21.8612 H   0  0  0  0  0  0  0  0  0  0  0  0
   20.5200   17.5660   23.2302 H   0  0  0  0  0  0  0  0  0  0  0  0
   19.0633   16.0778   23.6812 C   0  0  0  0  0  0  0  0  0  0  0  0
   19.0812   16.3319   24.8694 O   0  5  0  0  0  0  0  0  0  0  0  0
   18.5669   15.0712   23.2153 O   0  0  0  0  0  0  0  0  0  0  0  0
  1  2  1  0  0  0  0
  1  3  1  0  0  0  0
  1  4  2  0  0  0  0
  4  5  1  0  0  0  0
  4  6  1  0  0  0  0
  6  7  1  0  0  0  0
  6  8  1  0  0  0  0
  6  9  1  0  0  0  0
  9 10  1  0  0  0  0
  9 11  1  0  0  0  0
  9 12  1  0  0  0  0
 12 13  1  0  0  0  0
 12 14  1  0  0  0  0
 12 15  1  0  0  0  0
 15 16  1  0  0  0  0
 15 17  1  0  0  0  0
 15 18  1  0  0  0  0
 18 19  1  0  0  0  0
 18 20  2  0  0  0  0
M  END
> <VConfSearch Rank>
942

> <Conf_Id>
37

> <Delta U+W>
-0.384

> <U+W>
-52.130

> <U>
7.491

> <W>
-59.621

> <W(PB)>
-61.853

> <W(SA)>
2.232

> <Valence>
9.604

> <Coulomb>
-2.799

> <VdW>
0.686

> <VdW6>
-6.435

> <VdW12>
7.121

> <Bond>
0.124

> <Angle>
2.493

> <Pdih>
6.986

> <Idih>
0.001

> <Tether>
0.000

$$$$
VeraChem MOL file


 20 19  0  0  0  0  0  0  0  0999 V2000     
   20.2989   16.6059   19.6307 C   0  0  0  0  0  0  0  0  0  0  0  0
   20.4628   15.8355   18.8791 H   0  0  0  0  0  0  0  0  0  0  0  0
   20.3538   16.2954   20.6719 H   0  0  0  0  0  0  0  0  0  0  0  0
   20.0433   17.8687   19.2701 C   0  0  0  0  0  0  0  0  0  0  0  0
   20.0007   18.1189   18.2103 H   0  0  0  0  0  0  0  0  0  0  0  0
   19.7945   19.0458   20.1983 C   0  0  0  0  0  0  0  0  0  0  0  0
   18.8143   19.4807   19.9616 H   0  0  0  0  0  0  0  0  0  0  0  0
   20.5286   19.8318   19.9758 H   0  0  0  0  0  0  0  0  0  0  0  0
   19.8503   18.7123   21.7075 C   0  0  0  0  0  0  0  0  0  0  0  0
   19.1034   17.9411   21.9407 H   0  0  0  0  0  0  0  0  0  0  0  0
   20.8363   18.2959   21.9551 H   0  0  0  0  0  0  0  0  0  0  0  0
   19.5876   19.9597   22.5793 C   0  0  0  0  0  0  0  0  0  0  0  0
   18.6023   20.3813   22.3362 H   0  0  0  0  0  0  0  0  0  0  0  0
   20.3317   20.7354   22.3505 H   0  0  0  0  0  0  0  0  0  0  0  0
   19.6429   19.6284   24.0910 C   0  0  0  0  0  0  0  0  0  0  0  0
   18.8962   18.8645   24.3389 H   0  0  0  0  0  0  0  0  0  0  0  0
   20.6257   19.2185   24.3532 H   0  0  0  0  0  0  0  0  0  0  0  0
   19.3866   20.8449   24.9733 C   0  0  0  0  0  0  0  0  0  0  0  0
   18.2396   21.0936   25.2882 O   0  5  0  0  0  0  0  0  0  0  0  0
   20.3385   21.5230   25.3059 O   0  0  0  0  0  0  0  0  0  0  0  0
  1  2  1  0  0  0  0
  1  3  1  0  0  0  0
  1  4  2  0  0  0  0
  4  5  1  0  0  0  0
  4  6  1  0  0  0  0
  6  7  1  0  0  0  0
  6  8  1  0  0  0  0
  6  9  1  0  0  0  0
  9 10  1  0  0  0  0
  9 11  1  0  0  0  0
  9 12  1  0  0  0  0
 12 13  1  0  0  0  0
 12 14  1  0  0  0  0
 12 15  1  0  0  0  0
 15 16  1  0  0  0  0
 15 17  1  0  0  0  0
 15 18  1  0  0  0  0
 18 19  1  0  0  0  0
 18 20  2  0  0  0  0
M  END
> <VConfSearch Rank>
943

> <Conf_Id>
44

> <Delta U+W>
-1.440

> <U+W>
-53.185

> <U>
6.572

> <W>
-59.757

> <W(PB)>
-62.007

> <W(SA)>
2.249

> <Valence>
7.989

> <Coulomb>
-2.697

> <VdW>
1.281

> <VdW6>
-6.467

> <VdW12>
7.748

> <Bond>
0.136

> <Angle>
2.854

> <Pdih>
4.997

> <Idih>
0.001

> <Tether>
0.000

$$$$
VeraChem MOL file


 20 19  0  0  0  0  0  0  0  0999 V2000     
   22.4677   21.2589   21.8720 C   0  0  0  0  0  0  0  0  0  0  0  0
   21.7929   21.7897   21.2024 H   0  0  0  0  0  0  0  0  0  0  0  0
   23.5072   21.5819   21.8950 H   0  0  0  0  0  0  0  0  0  0  0  0
   22.0418   20.2489   22.6350 C   0  0  0  0  0  0  0  0  0  0  0  0
   22.7339   19.7304   23.2982 H   0  0  0  0  0  0  0  0  0  0  0  0
   20.6154   19.7463   22.6576 C   0  0  0  0  0  0  0  0  0  0  0  0
   19.9534   20.4822   22.1834 H   0  0  0  0  0  0  0  0  0  0  0  0
   20.2800   19.6417   23.6980 H   0  0  0  0  0  0  0  0  0  0  0  0
   20.4947   18.3858   21.9349 C   0  0  0  0  0  0  0  0  0  0  0  0
   20.7785   18.5035   20.8800 H   0  0  0  0  0  0  0  0  0  0  0  0
   21.2178   17.6847   22.3738 H   0  0  0  0  0  0  0  0  0  0  0  0
   19.0826   17.7599   22.0280 C   0  0  0  0  0  0  0  0  0  0  0  0
   18.8014   17.6326   23.0826 H   0  0  0  0  0  0  0  0  0  0  0  0
   19.1150   16.7518   21.5921 H   0  0  0  0  0  0  0  0  0  0  0  0
   17.9909   18.5834   21.2966 C   0  0  0  0  0  0  0  0  0  0  0  0
   17.8680   19.5659   21.7660 H   0  0  0  0  0  0  0  0  0  0  0  0
   18.2816   18.7548   20.2532 H   0  0  0  0  0  0  0  0  0  0  0  0
   16.6311   17.8944   21.3015 C   0  0  0  0  0  0  0  0  0  0  0  0
   16.3655   17.1431   20.3841 O   0  5  0  0  0  0  0  0  0  0  0  0
   15.8812   18.1115   22.2327 O   0  0  0  0  0  0  0  0  0  0  0  0
  1  2  1  0  0  0  0
  1  3  1  0  0  0  0
  1  4  2  0  0  0  0
  4  5  1  0  0  0  0
  4  6  1  0  0  0  0
  6  7  1  0  0  0  0
  6  8  1  0  0  0  0
  6  9  1  0  0  0  0
  9 10  1  0  0  0  0
  9 11  1  0  0  0  0
  9 12  1  0  0  0  0
 12 13  1  0  0  0  0
 12 14  1  0  0  0  0
 12 15  1  0  0  0  0
 15 16  1  0  0  0  0
 15 17  1  0  0  0  0
 15 18  1  0  0  0  0
 18 19  1  0  0  0  0
 18 20  2  0  0  0  0
M  END
> <VConfSearch Rank>
944

> <Conf_Id>
38

> <Delta U+W>
-0.381

> <U+W>
-52.126

> <U>
7.601

> <W>
-59.727

> <W(PB)>
-61.964

> <W(SA)>
2.236

> <Valence>
9.602

> <Coulomb>
-2.686

> <VdW>
0.685

> <VdW6>
-6.453

> <VdW12>
7.139

> <Bond>
0.125

> <Angle>
2.485

> <Pdih>
6.991

> <Idih>
0.001

> <Tether>
0.000

$$$$
VeraChem MOL file


 20 19  0  0  0  0  0  0  0  0999 V2000     
   17.1139   21.4989   21.1440 C   0  0  0  0  0  0  0  0  0  0  0  0
   16.7106   21.5232   22.1552 H   0  0  0  0  0  0  0  0  0  0  0  0
   16.8724   22.3337   20.4883 H   0  0  0  0  0  0  0  0  0  0  0  0
   17.8772   20.4877   20.7214 C   0  0  0  0  0  0  0  0  0  0  0  0
   18.2717   20.4831   19.7056 H   0  0  0  0  0  0  0  0  0  0  0  0
   18.2537   19.2960   21.5734 C   0  0  0  0  0  0  0  0  0  0  0  0
   18.0697   18.3703   21.0119 H   0  0  0  0  0  0  0  0  0  0  0  0
   17.6196   19.2537   22.4694 H   0  0  0  0  0  0  0  0  0  0  0  0
   19.7367   19.3589   21.9950 C   0  0  0  0  0  0  0  0  0  0  0  0
   20.3687   19.3987   21.0970 H   0  0  0  0  0  0  0  0  0  0  0  0
   19.9178   20.2884   22.5522 H   0  0  0  0  0  0  0  0  0  0  0  0
   20.1389   18.1461   22.8643 C   0  0  0  0  0  0  0  0  0  0  0  0
   19.9689   17.2149   22.3060 H   0  0  0  0  0  0  0  0  0  0  0  0
   19.4919   18.1056   23.7511 H   0  0  0  0  0  0  0  0  0  0  0  0
   21.6188   18.2064   23.3237 C   0  0  0  0  0  0  0  0  0  0  0  0
   21.8115   19.1440   23.8591 H   0  0  0  0  0  0  0  0  0  0  0  0
   21.8170   17.3913   24.0296 H   0  0  0  0  0  0  0  0  0  0  0  0
   22.6271   18.0793   22.1852 C   0  0  0  0  0  0  0  0  0  0  0  0
   23.2101   19.0804   21.8178 O   0  5  0  0  0  0  0  0  0  0  0  0
   22.8106   16.9787   21.7034 O   0  0  0  0  0  0  0  0  0  0  0  0
  1  2  1  0  0  0  0
  1  3  1  0  0  0  0
  1  4  2  0  0  0  0
  4  5  1  0  0  0  0
  4  6  1  0  0  0  0
  6  7  1  0  0  0  0
  6  8  1  0  0  0  0
  6  9  1  0  0  0  0
  9 10  1  0  0  0  0
  9 11  1  0  0  0  0
  9 12  1  0  0  0  0
 12 13  1  0  0  0  0
 12 14  1  0  0  0  0
 12 15  1  0  0  0  0
 15 16  1  0  0  0  0
 15 17  1  0  0  0  0
 15 18  1  0  0  0  0
 18 19  1  0  0  0  0
 18 20  2  0  0  0  0
M  END
> <VConfSearch Rank>
945

> <Conf_Id>
58

> <Delta U+W>
0.019

> <U+W>
-51.727

> <U>
8.963

> <W>
-60.690

> <W(PB)>
-62.934

> <W(SA)>
2.244

> <Valence>
9.327

> <Coulomb>
-0.780

> <VdW>
0.417

> <VdW6>
-6.635

> <VdW12>
7.052

> <Bond>
0.105

> <Angle>
2.399

> <Pdih>
6.822

> <Idih>
0.000

> <Tether>
0.000

$$$$
VeraChem MOL file


 20 19  0  0  0  0  0  0  0  0999 V2000     
   18.0148   17.8688   19.2441 C   0  0  0  0  0  0  0  0  0  0  0  0
   17.0516   17.9066   19.7505 H   0  0  0  0  0  0  0  0  0  0  0  0
   18.1154   17.1764   18.4100 H   0  0  0  0  0  0  0  0  0  0  0  0
   19.0363   18.6381   19.6294 C   0  0  0  0  0  0  0  0  0  0  0  0
   19.9926   18.5843   19.1096 H   0  0  0  0  0  0  0  0  0  0  0  0
   18.9712   19.6220   20.7763 C   0  0  0  0  0  0  0  0  0  0  0  0
   17.9268   19.7967   21.0686 H   0  0  0  0  0  0  0  0  0  0  0  0
   19.3751   20.5906   20.4527 H   0  0  0  0  0  0  0  0  0  0  0  0
   19.7679   19.1108   21.9948 C   0  0  0  0  0  0  0  0  0  0  0  0
   19.3640   18.1397   22.3127 H   0  0  0  0  0  0  0  0  0  0  0  0
   20.8125   18.9392   21.7004 H   0  0  0  0  0  0  0  0  0  0  0  0
   19.7141   20.1066   23.1755 C   0  0  0  0  0  0  0  0  0  0  0  0
   18.6660   20.2838   23.4523 H   0  0  0  0  0  0  0  0  0  0  0  0
   20.1273   21.0761   22.8640 H   0  0  0  0  0  0  0  0  0  0  0  0
   20.4842   19.5966   24.4212 C   0  0  0  0  0  0  0  0  0  0  0  0
   20.3155   20.2801   25.2616 H   0  0  0  0  0  0  0  0  0  0  0  0
   20.1015   18.6156   24.7279 H   0  0  0  0  0  0  0  0  0  0  0  0
   21.9926   19.4888   24.2165 C   0  0  0  0  0  0  0  0  0  0  0  0
   22.6453   20.5140   24.2198 O   0  5  0  0  0  0  0  0  0  0  0  0
   22.4765   18.3836   24.0704 O   0  0  0  0  0  0  0  0  0  0  0  0
  1  2  1  0  0  0  0
  1  3  1  0  0  0  0
  1  4  2  0  0  0  0
  4  5  1  0  0  0  0
  4  6  1  0  0  0  0
  6  7  1  0  0  0  0
  6  8  1  0  0  0  0
  6  9  1  0  0  0  0
  9 10  1  0  0  0  0
  9 11  1  0  0  0  0
  9 12  1  0  0  0  0
 12 13  1  0  0  0  0
 12 14  1  0  0  0  0
 12 15  1  0  0  0  0
 15 16  1  0  0  0  0
 15 17  1  0  0  0  0
 15 18  1  0  0  0  0
 18 19  1  0  0  0  0
 18 20  2  0  0  0  0
M  END
> <VConfSearch Rank>
946

> <Conf_Id>
54

> <Delta U+W>
-0.048

> <U+W>
-51.793

> <U>
8.964

> <W>
-60.756

> <W(PB)>
-63.007

> <W(SA)>
2.251

> <Valence>
9.327

> <Coulomb>
-0.780

> <VdW>
0.417

> <VdW6>
-6.635

> <VdW12>
7.052

> <Bond>
0.105

> <Angle>
2.399

> <Pdih>
6.822

> <Idih>
0.000

> <Tether>
0.000

$$$$
VeraChem MOL file


 20 19  0  0  0  0  0  0  0  0999 V2000     
   20.0290   17.9165   18.8419 C   0  0  0  0  0  0  0  0  0  0  0  0
   19.3700   17.9538   17.9762 H   0  0  0  0  0  0  0  0  0  0  0  0
   21.0986   18.0123   18.6622 H   0  0  0  0  0  0  0  0  0  0  0  0
   19.5402   17.7621   20.0752 C   0  0  0  0  0  0  0  0  0  0  0  0
   18.4664   17.6646   20.2324 H   0  0  0  0  0  0  0  0  0  0  0  0
   20.3947   17.6944   21.3230 C   0  0  0  0  0  0  0  0  0  0  0  0
   21.4270   17.4358   21.0509 H   0  0  0  0  0  0  0  0  0  0  0  0
   20.0384   16.8877   21.9775 H   0  0  0  0  0  0  0  0  0  0  0  0
   20.4080   19.0296   22.1011 C   0  0  0  0  0  0  0  0  0  0  0  0
   21.1482   18.9574   22.9098 H   0  0  0  0  0  0  0  0  0  0  0  0
   20.7481   19.8361   21.4370 H   0  0  0  0  0  0  0  0  0  0  0  0
   19.0279   19.3908   22.7002 C   0  0  0  0  0  0  0  0  0  0  0  0
   18.6809   18.5779   23.3530 H   0  0  0  0  0  0  0  0  0  0  0  0
   18.2906   19.4844   21.8921 H   0  0  0  0  0  0  0  0  0  0  0  0
   19.0560   20.7176   23.5028 C   0  0  0  0  0  0  0  0  0  0  0  0
   19.4327   21.5329   22.8734 H   0  0  0  0  0  0  0  0  0  0  0  0
   18.0354   20.9893   23.7969 H   0  0  0  0  0  0  0  0  0  0  0  0
   19.8960   20.6560   24.7753 C   0  0  0  0  0  0  0  0  0  0  0  0
   20.9836   21.1983   24.7744 O   0  5  0  0  0  0  0  0  0  0  0  0
   19.4345   20.0755   25.7383 O   0  0  0  0  0  0  0  0  0  0  0  0
  1  2  1  0  0  0  0
  1  3  1  0  0  0  0
  1  4  2  0  0  0  0
  4  5  1  0  0  0  0
  4  6  1  0  0  0  0
  6  7  1  0  0  0  0
  6  8  1  0  0  0  0
  6  9  1  0  0  0  0
  9 10  1  0  0  0  0
  9 11  1  0  0  0  0
  9 12  1  0  0  0  0
 12 13  1  0  0  0  0
 12 14  1  0  0  0  0
 12 15  1  0  0  0  0
 15 16  1  0  0  0  0
 15 17  1  0  0  0  0
 15 18  1  0  0  0  0
 18 19  1  0  0  0  0
 18 20  2  0  0  0  0
M  END
> <VConfSearch Rank>
947

> <Conf_Id>
27

> <Delta U+W>
0.478

> <U+W>
-51.267

> <U>
9.192

> <W>
-60.459

> <W(PB)>
-62.649

> <W(SA)>
2.190

> <Valence>
9.572

> <Coulomb>
-0.884

> <VdW>
0.504

> <VdW6>
-7.168

> <VdW12>
7.672

> <Bond>
0.127

> <Angle>
2.504

> <Pdih>
6.941

> <Idih>
0.001

> <Tether>
0.000

$$$$
VeraChem MOL file


 20 19  0  0  0  0  0  0  0  0999 V2000     
   22.4003   20.4161   20.8118 C   0  0  0  0  0  0  0  0  0  0  0  0
   22.8149   19.8114   20.0068 H   0  0  0  0  0  0  0  0  0  0  0  0
   23.0933   21.0275   21.3873 H   0  0  0  0  0  0  0  0  0  0  0  0
   21.0936   20.4083   21.0880 C   0  0  0  0  0  0  0  0  0  0  0  0
   20.6992   21.0235   21.8962 H   0  0  0  0  0  0  0  0  0  0  0  0
   20.0717   19.5897   20.3280 C   0  0  0  0  0  0  0  0  0  0  0  0
   20.4808   19.3021   19.3501 H   0  0  0  0  0  0  0  0  0  0  0  0
   19.1823   20.1999   20.1215 H   0  0  0  0  0  0  0  0  0  0  0  0
   19.6606   18.3090   21.0888 C   0  0  0  0  0  0  0  0  0  0  0  0
   19.0251   17.6973   20.4339 H   0  0  0  0  0  0  0  0  0  0  0  0
   20.5561   17.7106   21.3063 H   0  0  0  0  0  0  0  0  0  0  0  0
   18.8986   18.6074   22.4004 C   0  0  0  0  0  0  0  0  0  0  0  0
   18.0176   19.2276   22.1844 H   0  0  0  0  0  0  0  0  0  0  0  0
   19.5371   19.1859   23.0819 H   0  0  0  0  0  0  0  0  0  0  0  0
   18.4472   17.3081   23.1119 C   0  0  0  0  0  0  0  0  0  0  0  0
   17.7941   16.7227   22.4538 H   0  0  0  0  0  0  0  0  0  0  0  0
   19.3174   16.6828   23.3453 H   0  0  0  0  0  0  0  0  0  0  0  0
   17.6940   17.5754   24.4101 C   0  0  0  0  0  0  0  0  0  0  0  0
   18.3345   17.6518   25.4399 O   0  5  0  0  0  0  0  0  0  0  0  0
   16.4884   17.7178   24.3547 O   0  0  0  0  0  0  0  0  0  0  0  0
  1  2  1  0  0  0  0
  1  3  1  0  0  0  0
  1  4  2  0  0  0  0
  4  5  1  0  0  0  0
  4  6  1  0  0  0  0
  6  7  1  0  0  0  0
  6  8  1  0  0  0  0
  6  9  1  0  0  0  0
  9 10  1  0  0  0  0
  9 11  1  0  0  0  0
  9 12  1  0  0  0  0
 12 13  1  0  0  0  0
 12 14  1  0  0  0  0
 12 15  1  0  0  0  0
 15 16  1  0  0  0  0
 15 17  1  0  0  0  0
 15 18  1  0  0  0  0
 18 19  1  0  0  0  0
 18 20  2  0  0  0  0
M  END
> <VConfSearch Rank>
948

> <Conf_Id>
41

> <Delta U+W>
-0.634

> <U+W>
-52.379

> <U>
7.828

> <W>
-60.207

> <W(PB)>
-62.449

> <W(SA)>
2.242

> <Valence>
9.300

> <Coulomb>
-2.080

> <VdW>
0.608

> <VdW6>
-6.341

> <VdW12>
6.949

> <Bond>
0.103

> <Angle>
2.334

> <Pdih>
6.862

> <Idih>
0.001

> <Tether>
0.000

$$$$
VeraChem MOL file


 20 19  0  0  0  0  0  0  0  0999 V2000     
   19.7670   20.4577   25.2213 C   0  0  0  0  0  0  0  0  0  0  0  0
   20.2723   20.7018   26.1542 H   0  0  0  0  0  0  0  0  0  0  0  0
   18.8958   21.0530   24.9527 H   0  0  0  0  0  0  0  0  0  0  0  0
   20.2034   19.4673   24.4387 C   0  0  0  0  0  0  0  0  0  0  0  0
   21.0779   18.8835   24.7252 H   0  0  0  0  0  0  0  0  0  0  0  0
   19.5540   19.0702   23.1317 C   0  0  0  0  0  0  0  0  0  0  0  0
   18.5559   19.5216   23.0504 H   0  0  0  0  0  0  0  0  0  0  0  0
   19.4143   17.9816   23.1159 H   0  0  0  0  0  0  0  0  0  0  0  0
   20.4179   19.5074   21.9277 C   0  0  0  0  0  0  0  0  0  0  0  0
   20.6303   20.5818   22.0152 H   0  0  0  0  0  0  0  0  0  0  0  0
   21.3899   18.9967   21.9684 H   0  0  0  0  0  0  0  0  0  0  0  0
   19.7454   19.2480   20.5570 C   0  0  0  0  0  0  0  0  0  0  0  0
   20.3884   19.6561   19.7649 H   0  0  0  0  0  0  0  0  0  0  0  0
   18.8016   19.8075   20.5055 H   0  0  0  0  0  0  0  0  0  0  0  0
   19.4671   17.7509   20.2511 C   0  0  0  0  0  0  0  0  0  0  0  0
   18.7671   17.3300   20.9817 H   0  0  0  0  0  0  0  0  0  0  0  0
   18.9819   17.6648   19.2719 H   0  0  0  0  0  0  0  0  0  0  0  0
   20.7191   16.8791   20.2153 C   0  0  0  0  0  0  0  0  0  0  0  0
   21.4752   17.0019   19.2716 O   0  5  0  0  0  0  0  0  0  0  0  0
   20.8966   16.0885   21.1210 O   0  0  0  0  0  0  0  0  0  0  0  0
  1  2  1  0  0  0  0
  1  3  1  0  0  0  0
  1  4  2  0  0  0  0
  4  5  1  0  0  0  0
  4  6  1  0  0  0  0
  6  7  1  0  0  0  0
  6  8  1  0  0  0  0
  6  9  1  0  0  0  0
  9 10  1  0  0  0  0
  9 11  1  0  0  0  0
  9 12  1  0  0  0  0
 12 13  1  0  0  0  0
 12 14  1  0  0  0  0
 12 15  1  0  0  0  0
 15 16  1  0  0  0  0
 15 17  1  0  0  0  0
 15 18  1  0  0  0  0
 18 19  1  0  0  0  0
 18 20  2  0  0  0  0
M  END
> <VConfSearch Rank>
949

> <Conf_Id>
84

> <Delta U+W>
0.942

> <U+W>
-50.803

> <U>
10.196

> <W>
-60.999

> <W(PB)>
-63.182

> <W(SA)>
2.182

> <Valence>
9.837

> <Coulomb>
0.032

> <VdW>
0.328

> <VdW6>
-7.642

> <VdW12>
7.969

> <Bond>
0.151

> <Angle>
2.748

> <Pdih>
6.937

> <Idih>
0.001

> <Tether>
0.000

$$$$
VeraChem MOL file


 20 19  0  0  0  0  0  0  0  0999 V2000     
   19.6300   21.8897   19.8364 C   0  0  0  0  0  0  0  0  0  0  0  0
   20.1818   22.7461   19.4525 H   0  0  0  0  0  0  0  0  0  0  0  0
   19.1730   21.2212   19.1086 H   0  0  0  0  0  0  0  0  0  0  0  0
   19.5225   21.6702   21.1494 C   0  0  0  0  0  0  0  0  0  0  0  0
   19.9883   22.3513   21.8612 H   0  0  0  0  0  0  0  0  0  0  0  0
   18.7727   20.5048   21.7554 C   0  0  0  0  0  0  0  0  0  0  0  0
   18.1326   20.0299   20.9994 H   0  0  0  0  0  0  0  0  0  0  0  0
   18.1072   20.8693   22.5493 H   0  0  0  0  0  0  0  0  0  0  0  0
   19.7458   19.4571   22.3356 C   0  0  0  0  0  0  0  0  0  0  0  0
   20.4125   19.1017   21.5376 H   0  0  0  0  0  0  0  0  0  0  0  0
   20.3835   19.9304   23.0947 H   0  0  0  0  0  0  0  0  0  0  0  0
   18.9949   18.2605   22.9622 C   0  0  0  0  0  0  0  0  0  0  0  0
   18.3666   17.7759   22.2019 H   0  0  0  0  0  0  0  0  0  0  0  0
   18.3174   18.6276   23.7450 H   0  0  0  0  0  0  0  0  0  0  0  0
   19.9552   17.2110   23.5796 C   0  0  0  0  0  0  0  0  0  0  0  0
   20.6084   17.6854   24.3220 H   0  0  0  0  0  0  0  0  0  0  0  0
   19.3727   16.4486   24.1102 H   0  0  0  0  0  0  0  0  0  0  0  0
   20.8260   16.4888   22.5554 C   0  0  0  0  0  0  0  0  0  0  0  0
   21.9997   16.7946   22.4796 O   0  5  0  0  0  0  0  0  0  0  0  0
   20.3088   15.6293   21.8691 O   0  0  0  0  0  0  0  0  0  0  0  0
  1  2  1  0  0  0  0
  1  3  1  0  0  0  0
  1  4  2  0  0  0  0
  4  5  1  0  0  0  0
  4  6  1  0  0  0  0
  6  7  1  0  0  0  0
  6  8  1  0  0  0  0
  6  9  1  0  0  0  0
  9 10  1  0  0  0  0
  9 11  1  0  0  0  0
  9 12  1  0  0  0  0
 12 13  1  0  0  0  0
 12 14  1  0  0  0  0
 12 15  1  0  0  0  0
 15 16  1  0  0  0  0
 15 17  1  0  0  0  0
 15 18  1  0  0  0  0
 18 19  1  0  0  0  0
 18 20  2  0  0  0  0
M  END
> <VConfSearch Rank>
950

> <Conf_Id>
81

> <Delta U+W>
-0.051

> <U+W>
-51.796

> <U>
9.412

> <W>
-61.209

> <W(PB)>
-63.452

> <W(SA)>
2.243

> <Valence>
9.329

> <Coulomb>
-0.323

> <VdW>
0.406

> <VdW6>
-6.640

> <VdW12>
7.046

> <Bond>
0.105

> <Angle>
2.401

> <Pdih>
6.823

> <Idih>
0.000

> <Tether>
0.000

$$$$
VeraChem MOL file


 20 19  0  0  0  0  0  0  0  0999 V2000     
   16.8294   18.1538   23.3387 C   0  0  0  0  0  0  0  0  0  0  0  0
   16.0981   18.1048   22.5335 H   0  0  0  0  0  0  0  0  0  0  0  0
   16.5761   17.6620   24.2764 H   0  0  0  0  0  0  0  0  0  0  0  0
   17.9942   18.7889   23.1852 C   0  0  0  0  0  0  0  0  0  0  0  0
   18.7113   18.8282   24.0046 H   0  0  0  0  0  0  0  0  0  0  0  0
   18.4123   19.4985   21.9151 C   0  0  0  0  0  0  0  0  0  0  0  0
   18.8449   20.4782   22.1560 H   0  0  0  0  0  0  0  0  0  0  0  0
   17.5275   19.7058   21.2984 H   0  0  0  0  0  0  0  0  0  0  0  0
   19.4122   18.6678   21.0755 C   0  0  0  0  0  0  0  0  0  0  0  0
   18.9265   17.7299   20.7734 H   0  0  0  0  0  0  0  0  0  0  0  0
   19.6323   19.2097   20.1455 H   0  0  0  0  0  0  0  0  0  0  0  0
   20.7422   18.3310   21.7979 C   0  0  0  0  0  0  0  0  0  0  0  0
   21.3621   17.7206   21.1269 H   0  0  0  0  0  0  0  0  0  0  0  0
   20.5344   17.7028   22.6741 H   0  0  0  0  0  0  0  0  0  0  0  0
   21.5637   19.5716   22.2433 C   0  0  0  0  0  0  0  0  0  0  0  0
   21.0022   20.1647   22.9739 H   0  0  0  0  0  0  0  0  0  0  0  0
   22.4771   19.2391   22.7500 H   0  0  0  0  0  0  0  0  0  0  0  0
   21.9871   20.4832   21.0951 C   0  0  0  0  0  0  0  0  0  0  0  0
   21.4440   21.5652   20.9879 O   0  5  0  0  0  0  0  0  0  0  0  0
   22.8627   20.0932   20.3476 O   0  0  0  0  0  0  0  0  0  0  0  0
  1  2  1  0  0  0  0
  1  3  1  0  0  0  0
  1  4  2  0  0  0  0
  4  5  1  0  0  0  0
  4  6  1  0  0  0  0
  6  7  1  0  0  0  0
  6  8  1  0  0  0  0
  6  9  1  0  0  0  0
  9 10  1  0  0  0  0
  9 11  1  0  0  0  0
  9 12  1  0  0  0  0
 12 13  1  0  0  0  0
 12 14  1  0  0  0  0
 12 15  1  0  0  0  0
 15 16  1  0  0  0  0
 15 17  1  0  0  0  0
 15 18  1  0  0  0  0
 18 19  1  0  0  0  0
 18 20  2  0  0  0  0
M  END
> <VConfSearch Rank>
951

> <Conf_Id>
86

> <Delta U+W>
1.248

> <U+W>
-50.498

> <U>
10.404

> <W>
-60.901

> <W(PB)>
-63.061

> <W(SA)>
2.159

> <Valence>
10.021

> <Coulomb>
0.094

> <VdW>
0.289

> <VdW6>
-8.409

> <VdW12>
8.698

> <Bond>
0.179

> <Angle>
2.939

> <Pdih>
6.902

> <Idih>
0.001

> <Tether>
0.000

$$$$
VeraChem MOL file


 20 19  0  0  0  0  0  0  0  0999 V2000     
   21.0780   17.0376   19.9990 C   0  0  0  0  0  0  0  0  0  0  0  0
   21.8460   16.2662   19.9918 H   0  0  0  0  0  0  0  0  0  0  0  0
   20.0700   16.7441   19.7105 H   0  0  0  0  0  0  0  0  0  0  0  0
   21.3643   18.2936   20.3520 C   0  0  0  0  0  0  0  0  0  0  0  0
   22.3794   18.5662   20.6395 H   0  0  0  0  0  0  0  0  0  0  0  0
   20.3514   19.4182   20.3866 C   0  0  0  0  0  0  0  0  0  0  0  0
   19.4172   19.1128   19.8960 H   0  0  0  0  0  0  0  0  0  0  0  0
   20.7400   20.2685   19.8105 H   0  0  0  0  0  0  0  0  0  0  0  0
   20.0473   19.8896   21.8265 C   0  0  0  0  0  0  0  0  0  0  0  0
   20.9816   20.1915   22.3192 H   0  0  0  0  0  0  0  0  0  0  0  0
   19.4154   20.7870   21.7775 H   0  0  0  0  0  0  0  0  0  0  0  0
   19.3356   18.8065   22.6715 C   0  0  0  0  0  0  0  0  0  0  0  0
   19.9692   17.9112   22.7270 H   0  0  0  0  0  0  0  0  0  0  0  0
   18.4031   18.5020   22.1765 H   0  0  0  0  0  0  0  0  0  0  0  0
   19.0207   19.2854   24.1125 C   0  0  0  0  0  0  0  0  0  0  0  0
   18.6318   18.4458   24.7005 H   0  0  0  0  0  0  0  0  0  0  0  0
   19.9388   19.6224   24.6087 H   0  0  0  0  0  0  0  0  0  0  0  0
   17.9890   20.4077   24.1819 C   0  0  0  0  0  0  0  0  0  0  0  0
   16.8191   20.1207   24.0202 O   0  5  0  0  0  0  0  0  0  0  0  0
   18.3799   21.5362   24.4070 O   0  0  0  0  0  0  0  0  0  0  0  0
  1  2  1  0  0  0  0
  1  3  1  0  0  0  0
  1  4  2  0  0  0  0
  4  5  1  0  0  0  0
  4  6  1  0  0  0  0
  6  7  1  0  0  0  0
  6  8  1  0  0  0  0
  6  9  1  0  0  0  0
  9 10  1  0  0  0  0
  9 11  1  0  0  0  0
  9 12  1  0  0  0  0
 12 13  1  0  0  0  0
 12 14  1  0  0  0  0
 12 15  1  0  0  0  0
 15 16  1  0  0  0  0
 15 17  1  0  0  0  0
 15 18  1  0  0  0  0
 18 19  1  0  0  0  0
 18 20  2  0  0  0  0
M  END
> <VConfSearch Rank>
952

> <Conf_Id>
28

> <Delta U+W>
0.446

> <U+W>
-51.299

> <U>
9.295

> <W>
-60.594

> <W(PB)>
-62.806

> <W(SA)>
2.212

> <Valence>
9.495

> <Coulomb>
-0.610

> <VdW>
0.409

> <VdW6>
-7.332

> <VdW12>
7.741

> <Bond>
0.126

> <Angle>
2.497

> <Pdih>
6.872

> <Idih>
0.000

> <Tether>
0.000

$$$$
VeraChem MOL file


 20 19  0  0  0  0  0  0  0  0999 V2000     
   22.3325   17.5628   22.9284 C   0  0  0  0  0  0  0  0  0  0  0  0
   21.4956   16.8750   22.8279 H   0  0  0  0  0  0  0  0  0  0  0  0
   23.3186   17.1208   23.0603 H   0  0  0  0  0  0  0  0  0  0  0  0
   22.1787   18.8913   22.8905 C   0  0  0  0  0  0  0  0  0  0  0  0
   23.0560   19.5293   22.9945 H   0  0  0  0  0  0  0  0  0  0  0  0
   20.8741   19.6508   22.7153 C   0  0  0  0  0  0  0  0  0  0  0  0
   20.9373   20.2386   21.7905 H   0  0  0  0  0  0  0  0  0  0  0  0
   20.7814   20.3819   23.5293 H   0  0  0  0  0  0  0  0  0  0  0  0
   19.6027   18.7669   22.6851 C   0  0  0  0  0  0  0  0  0  0  0  0
   19.6438   18.0905   21.8203 H   0  0  0  0  0  0  0  0  0  0  0  0
   19.5874   18.1315   23.5810 H   0  0  0  0  0  0  0  0  0  0  0  0
   18.2855   19.5810   22.6469 C   0  0  0  0  0  0  0  0  0  0  0  0
   18.2277   20.2179   23.5398 H   0  0  0  0  0  0  0  0  0  0  0  0
   17.4381   18.8844   22.7114 H   0  0  0  0  0  0  0  0  0  0  0  0
   18.1091   20.4626   21.3803 C   0  0  0  0  0  0  0  0  0  0  0  0
   17.1597   21.0066   21.4468 H   0  0  0  0  0  0  0  0  0  0  0  0
   18.8974   21.2217   21.3237 H   0  0  0  0  0  0  0  0  0  0  0  0
   18.0905   19.6780   20.0715 C   0  0  0  0  0  0  0  0  0  0  0  0
   17.1217   18.9834   19.8341 O   0  5  0  0  0  0  0  0  0  0  0  0
   19.0339   19.7978   19.3149 O   0  0  0  0  0  0  0  0  0  0  0  0
  1  2  1  0  0  0  0
  1  3  1  0  0  0  0
  1  4  2  0  0  0  0
  4  5  1  0  0  0  0
  4  6  1  0  0  0  0
  6  7  1  0  0  0  0
  6  8  1  0  0  0  0
  6  9  1  0  0  0  0
  9 10  1  0  0  0  0
  9 11  1  0  0  0  0
  9 12  1  0  0  0  0
 12 13  1  0  0  0  0
 12 14  1  0  0  0  0
 12 15  1  0  0  0  0
 15 16  1  0  0  0  0
 15 17  1  0  0  0  0
 15 18  1  0  0  0  0
 18 19  1  0  0  0  0
 18 20  2  0  0  0  0
M  END
> <VConfSearch Rank>
953

> <Conf_Id>
53

> <Delta U+W>
0.549

> <U+W>
-51.197

> <U>
10.870

> <W>
-62.067

> <W(PB)>
-64.228

> <W(SA)>
2.161

> <Valence>
8.803

> <Coulomb>
1.020

> <VdW>
1.048

> <VdW6>
-8.312

> <VdW12>
9.360

> <Bond>
0.212

> <Angle>
3.379

> <Pdih>
5.211

> <Idih>
0.001

> <Tether>
0.000

$$$$
VeraChem MOL file


 20 19  0  0  0  0  0  0  0  0999 V2000     
   19.5949   19.0932   24.8543 C   0  0  0  0  0  0  0  0  0  0  0  0
   18.7808   18.3916   24.6859 H   0  0  0  0  0  0  0  0  0  0  0  0
   19.5227   19.7325   25.7323 H   0  0  0  0  0  0  0  0  0  0  0  0
   20.6467   19.1740   24.0322 C   0  0  0  0  0  0  0  0  0  0  0  0
   21.4369   19.8925   24.2483 H   0  0  0  0  0  0  0  0  0  0  0  0
   20.8735   18.3519   22.7742 C   0  0  0  0  0  0  0  0  0  0  0  0
   21.5524   17.5229   23.0132 H   0  0  0  0  0  0  0  0  0  0  0  0
   21.4223   18.9604   22.0440 H   0  0  0  0  0  0  0  0  0  0  0  0
   19.5984   17.7870   22.0953 C   0  0  0  0  0  0  0  0  0  0  0  0
   19.9033   17.1569   21.2486 H   0  0  0  0  0  0  0  0  0  0  0  0
   19.0816   17.1141   22.7920 H   0  0  0  0  0  0  0  0  0  0  0  0
   18.6021   18.8621   21.5868 C   0  0  0  0  0  0  0  0  0  0  0  0
   18.2323   19.4533   22.4343 H   0  0  0  0  0  0  0  0  0  0  0  0
   17.7242   18.3553   21.1631 H   0  0  0  0  0  0  0  0  0  0  0  0
   19.1845   19.8254   20.5167 C   0  0  0  0  0  0  0  0  0  0  0  0
   18.4148   20.5484   20.2227 H   0  0  0  0  0  0  0  0  0  0  0  0
   20.0136   20.4085   20.9331 H   0  0  0  0  0  0  0  0  0  0  0  0
   19.6638   19.1302   19.2457 C   0  0  0  0  0  0  0  0  0  0  0  0
   20.8601   19.0607   19.0428 O   0  5  0  0  0  0  0  0  0  0  0  0
   18.8257   18.6919   18.4821 O   0  0  0  0  0  0  0  0  0  0  0  0
  1  2  1  0  0  0  0
  1  3  1  0  0  0  0
  1  4  2  0  0  0  0
  4  5  1  0  0  0  0
  4  6  1  0  0  0  0
  6  7  1  0  0  0  0
  6  8  1  0  0  0  0
  6  9  1  0  0  0  0
  9 10  1  0  0  0  0
  9 11  1  0  0  0  0
  9 12  1  0  0  0  0
 12 13  1  0  0  0  0
 12 14  1  0  0  0  0
 12 15  1  0  0  0  0
 15 16  1  0  0  0  0
 15 17  1  0  0  0  0
 15 18  1  0  0  0  0
 18 19  1  0  0  0  0
 18 20  2  0  0  0  0
M  END
> <VConfSearch Rank>
954

> <Conf_Id>
66

> <Delta U+W>
1.737

> <U+W>
-50.008

> <U>
11.091

> <W>
-61.099

> <W(PB)>
-63.213

> <W(SA)>
2.114

> <Valence>
9.664

> <Coulomb>
0.658

> <VdW>
0.769

> <VdW6>
-9.171

> <VdW12>
9.940

> <Bond>
0.244

> <Angle>
3.658

> <Pdih>
5.762

> <Idih>
0.001

> <Tether>
0.000

$$$$
VeraChem MOL file


 20 19  0  0  0  0  0  0  0  0999 V2000     
   18.3667   18.1241   19.7251 C   0  0  0  0  0  0  0  0  0  0  0  0
   17.5180   18.5103   20.2852 H   0  0  0  0  0  0  0  0  0  0  0  0
   18.3279   18.2203   18.6415 H   0  0  0  0  0  0  0  0  0  0  0  0
   19.4149   17.5492   20.3247 C   0  0  0  0  0  0  0  0  0  0  0  0
   20.2374   17.1771   19.7145 H   0  0  0  0  0  0  0  0  0  0  0  0
   19.6062   17.3530   21.8199 C   0  0  0  0  0  0  0  0  0  0  0  0
   20.6730   17.4494   22.0571 H   0  0  0  0  0  0  0  0  0  0  0  0
   19.3559   16.3139   22.0714 H   0  0  0  0  0  0  0  0  0  0  0  0
   18.7980   18.3070   22.7381 C   0  0  0  0  0  0  0  0  0  0  0  0
   17.7249   18.1743   22.5474 H   0  0  0  0  0  0  0  0  0  0  0  0
   18.9525   18.0044   23.7827 H   0  0  0  0  0  0  0  0  0  0  0  0
   19.1638   19.8066   22.5965 C   0  0  0  0  0  0  0  0  0  0  0  0
   18.4786   20.3943   23.2229 H   0  0  0  0  0  0  0  0  0  0  0  0
   18.9996   20.1418   21.5639 H   0  0  0  0  0  0  0  0  0  0  0  0
   20.6212   20.1313   23.0152 C   0  0  0  0  0  0  0  0  0  0  0  0
   20.8174   19.7575   24.0271 H   0  0  0  0  0  0  0  0  0  0  0  0
   21.3332   19.6409   22.3418 H   0  0  0  0  0  0  0  0  0  0  0  0
   20.9205   21.6261   22.9983 C   0  0  0  0  0  0  0  0  0  0  0  0
   21.3673   22.1117   21.9779 O   0  5  0  0  0  0  0  0  0  0  0  0
   20.6853   22.2690   24.0024 O   0  0  0  0  0  0  0  0  0  0  0  0
  1  2  1  0  0  0  0
  1  3  1  0  0  0  0
  1  4  2  0  0  0  0
  4  5  1  0  0  0  0
  4  6  1  0  0  0  0
  6  7  1  0  0  0  0
  6  8  1  0  0  0  0
  6  9  1  0  0  0  0
  9 10  1  0  0  0  0
  9 11  1  0  0  0  0
  9 12  1  0  0  0  0
 12 13  1  0  0  0  0
 12 14  1  0  0  0  0
 12 15  1  0  0  0  0
 15 16  1  0  0  0  0
 15 17  1  0  0  0  0
 15 18  1  0  0  0  0
 18 19  1  0  0  0  0
 18 20  2  0  0  0  0
M  END
> <VConfSearch Rank>
955

> <Conf_Id>
64

> <Delta U+W>
0.366

> <U+W>
-51.379

> <U>
10.000

> <W>
-61.379

> <W(PB)>
-63.541

> <W(SA)>
2.162

> <Valence>
9.398

> <Coulomb>
-0.504

> <VdW>
1.105

> <VdW6>
-7.975

> <VdW12>
9.080

> <Bond>
0.216

> <Angle>
3.417

> <Pdih>
5.765

> <Idih>
0.001

> <Tether>
0.000

$$$$
VeraChem MOL file


 20 19  0  0  0  0  0  0  0  0999 V2000     
   17.3307   18.3864   23.3054 C   0  0  0  0  0  0  0  0  0  0  0  0
   17.2617   19.4201   23.6402 H   0  0  0  0  0  0  0  0  0  0  0  0
   17.0168   17.6117   24.0028 H   0  0  0  0  0  0  0  0  0  0  0  0
   17.7861   18.0765   22.0886 C   0  0  0  0  0  0  0  0  0  0  0  0
   17.8495   17.0352   21.7738 H   0  0  0  0  0  0  0  0  0  0  0  0
   18.2405   19.0966   21.0664 C   0  0  0  0  0  0  0  0  0  0  0  0
   17.9563   20.1105   21.3793 H   0  0  0  0  0  0  0  0  0  0  0  0
   17.7217   18.9088   20.1170 H   0  0  0  0  0  0  0  0  0  0  0  0
   19.7651   19.0409   20.8209 C   0  0  0  0  0  0  0  0  0  0  0  0
   20.0494   18.0266   20.5086 H   0  0  0  0  0  0  0  0  0  0  0  0
   20.0144   19.7088   19.9851 H   0  0  0  0  0  0  0  0  0  0  0  0
   20.5849   19.4551   22.0642 C   0  0  0  0  0  0  0  0  0  0  0  0
   20.3644   18.7775   22.9005 H   0  0  0  0  0  0  0  0  0  0  0  0
   20.2869   20.4629   22.3850 H   0  0  0  0  0  0  0  0  0  0  0  0
   22.1076   19.4363   21.7831 C   0  0  0  0  0  0  0  0  0  0  0  0
   22.4227   18.4325   21.4735 H   0  0  0  0  0  0  0  0  0  0  0  0
   22.3498   20.1204   20.9610 H   0  0  0  0  0  0  0  0  0  0  0  0
   22.9384   19.8412   22.9955 C   0  0  0  0  0  0  0  0  0  0  0  0
   23.1802   21.0211   23.1568 O   0  5  0  0  0  0  0  0  0  0  0  0
   23.3101   18.9678   23.7542 O   0  0  0  0  0  0  0  0  0  0  0  0
  1  2  1  0  0  0  0
  1  3  1  0  0  0  0
  1  4  2  0  0  0  0
  4  5  1  0  0  0  0
  4  6  1  0  0  0  0
  6  7  1  0  0  0  0
  6  8  1  0  0  0  0
  6  9  1  0  0  0  0
  9 10  1  0  0  0  0
  9 11  1  0  0  0  0
  9 12  1  0  0  0  0
 12 13  1  0  0  0  0
 12 14  1  0  0  0  0
 12 15  1  0  0  0  0
 15 16  1  0  0  0  0
 15 17  1  0  0  0  0
 15 18  1  0  0  0  0
 18 19  1  0  0  0  0
 18 20  2  0  0  0  0
M  END
> <VConfSearch Rank>
956

> <Conf_Id>
42

> <Delta U+W>
-0.601

> <U+W>
-52.347

> <U>
8.428

> <W>
-60.774

> <W(PB)>
-62.982

> <W(SA)>
2.208

> <Valence>
9.231

> <Coulomb>
-1.304

> <VdW>
0.501

> <VdW6>
-6.515

> <VdW12>
7.016

> <Bond>
0.103

> <Angle>
2.328

> <Pdih>
6.799

> <Idih>
0.000

> <Tether>
0.000

$$$$
VeraChem MOL file


 20 19  0  0  0  0  0  0  0  0999 V2000     
   17.7505   17.3657   20.6898 C   0  0  0  0  0  0  0  0  0  0  0  0
   18.4403   16.5235   20.7028 H   0  0  0  0  0  0  0  0  0  0  0  0
   17.1172   17.4814   19.8119 H   0  0  0  0  0  0  0  0  0  0  0  0
   17.6835   18.2280   21.7076 C   0  0  0  0  0  0  0  0  0  0  0  0
   16.9881   19.0662   21.6736 H   0  0  0  0  0  0  0  0  0  0  0  0
   18.5313   18.1333   22.9583 C   0  0  0  0  0  0  0  0  0  0  0  0
   19.0534   17.1677   22.9995 H   0  0  0  0  0  0  0  0  0  0  0  0
   17.8767   18.1692   23.8392 H   0  0  0  0  0  0  0  0  0  0  0  0
   19.5609   19.2815   23.0558 C   0  0  0  0  0  0  0  0  0  0  0  0
   19.0360   20.2462   23.0212 H   0  0  0  0  0  0  0  0  0  0  0  0
   20.0583   19.2310   24.0339 H   0  0  0  0  0  0  0  0  0  0  0  0
   20.6292   19.2216   21.9385 C   0  0  0  0  0  0  0  0  0  0  0  0
   20.1489   19.3134   20.9545 H   0  0  0  0  0  0  0  0  0  0  0  0
   21.1195   18.2391   21.9591 H   0  0  0  0  0  0  0  0  0  0  0  0
   21.7074   20.3266   22.0849 C   0  0  0  0  0  0  0  0  0  0  0  0
   22.1818   20.2652   23.0718 H   0  0  0  0  0  0  0  0  0  0  0  0
   22.4980   20.1676   21.3422 H   0  0  0  0  0  0  0  0  0  0  0  0
   21.1738   21.7428   21.8886 C   0  0  0  0  0  0  0  0  0  0  0  0
   20.9916   22.4311   22.8736 O   0  5  0  0  0  0  0  0  0  0  0  0
   20.9717   22.1262   20.7532 O   0  0  0  0  0  0  0  0  0  0  0  0
  1  2  1  0  0  0  0
  1  3  1  0  0  0  0
  1  4  2  0  0  0  0
  4  5  1  0  0  0  0
  4  6  1  0  0  0  0
  6  7  1  0  0  0  0
  6  8  1  0  0  0  0
  6  9  1  0  0  0  0
  9 10  1  0  0  0  0
  9 11  1  0  0  0  0
  9 12  1  0  0  0  0
 12 13  1  0  0  0  0
 12 14  1  0  0  0  0
 12 15  1  0  0  0  0
 15 16  1  0  0  0  0
 15 17  1  0  0  0  0
 15 18  1  0  0  0  0
 18 19  1  0  0  0  0
 18 20  2  0  0  0  0
M  END
> <VConfSearch Rank>
957

> <Conf_Id>
68

> <Delta U+W>
0.492

> <U+W>
-51.253

> <U>
10.179

> <W>
-61.432

> <W(PB)>
-63.627

> <W(SA)>
2.195

> <Valence>
9.483

> <Coulomb>
0.361

> <VdW>
0.335

> <VdW6>
-7.385

> <VdW12>
7.720

> <Bond>
0.125

> <Angle>
2.487

> <Pdih>
6.870

> <Idih>
0.001

> <Tether>
0.000

$$$$
VeraChem MOL file


 20 19  0  0  0  0  0  0  0  0999 V2000     
   17.9055   17.0007   23.5367 C   0  0  0  0  0  0  0  0  0  0  0  0
   18.2350   16.0867   23.0452 H   0  0  0  0  0  0  0  0  0  0  0  0
   16.8714   17.0433   23.8744 H   0  0  0  0  0  0  0  0  0  0  0  0
   18.7335   18.0330   23.7170 C   0  0  0  0  0  0  0  0  0  0  0  0
   18.3837   18.9375   24.2138 H   0  0  0  0  0  0  0  0  0  0  0  0
   20.1828   18.0434   23.2800 C   0  0  0  0  0  0  0  0  0  0  0  0
   20.5292   17.0133   23.1207 H   0  0  0  0  0  0  0  0  0  0  0  0
   20.8114   18.4589   24.0789 H   0  0  0  0  0  0  0  0  0  0  0  0
   20.3982   18.8450   21.9764 C   0  0  0  0  0  0  0  0  0  0  0  0
   21.4358   18.7069   21.6430 H   0  0  0  0  0  0  0  0  0  0  0  0
   19.7577   18.4310   21.1853 H   0  0  0  0  0  0  0  0  0  0  0  0
   20.1168   20.3568   22.1465 C   0  0  0  0  0  0  0  0  0  0  0  0
   20.7262   20.7483   22.9722 H   0  0  0  0  0  0  0  0  0  0  0  0
   19.0661   20.5150   22.4255 H   0  0  0  0  0  0  0  0  0  0  0  0
   20.4287   21.1681   20.8623 C   0  0  0  0  0  0  0  0  0  0  0  0
   20.3246   22.2393   21.0714 H   0  0  0  0  0  0  0  0  0  0  0  0
   21.4682   21.0046   20.5533 H   0  0  0  0  0  0  0  0  0  0  0  0
   19.5139   20.8412   19.6853 C   0  0  0  0  0  0  0  0  0  0  0  0
   18.3926   21.3099   19.6847 O   0  5  0  0  0  0  0  0  0  0  0  0
   19.9522   20.1437   18.7918 O   0  0  0  0  0  0  0  0  0  0  0  0
  1  2  1  0  0  0  0
  1  3  1  0  0  0  0
  1  4  2  0  0  0  0
  4  5  1  0  0  0  0
  4  6  1  0  0  0  0
  6  7  1  0  0  0  0
  6  8  1  0  0  0  0
  6  9  1  0  0  0  0
  9 10  1  0  0  0  0
  9 11  1  0  0  0  0
  9 12  1  0  0  0  0
 12 13  1  0  0  0  0
 12 14  1  0  0  0  0
 12 15  1  0  0  0  0
 15 16  1  0  0  0  0
 15 17  1  0  0  0  0
 15 18  1  0  0  0  0
 18 19  1  0  0  0  0
 18 20  2  0  0  0  0
M  END
> <VConfSearch Rank>
958

> <Conf_Id>
87

> <Delta U+W>
0.339

> <U+W>
-51.407

> <U>
10.461

> <W>
-61.867

> <W(PB)>
-64.045

> <W(SA)>
2.178

> <Valence>
9.555

> <Coulomb>
0.483

> <VdW>
0.423

> <VdW6>
-7.223

> <VdW12>
7.646

> <Bond>
0.126

> <Angle>
2.492

> <Pdih>
6.936

> <Idih>
0.001

> <Tether>
0.000

$$$$
VeraChem MOL file


 20 19  0  0  0  0  0  0  0  0999 V2000     
   18.2731   18.2414   19.5375 C   0  0  0  0  0  0  0  0  0  0  0  0
   17.2753   17.9581   19.8686 H   0  0  0  0  0  0  0  0  0  0  0  0
   18.3576   18.7594   18.5838 H   0  0  0  0  0  0  0  0  0  0  0  0
   19.3536   17.9672   20.2731 C   0  0  0  0  0  0  0  0  0  0  0  0
   20.3446   18.2508   19.9207 H   0  0  0  0  0  0  0  0  0  0  0  0
   19.3111   17.2401   21.6002 C   0  0  0  0  0  0  0  0  0  0  0  0
   20.3005   16.8287   21.8405 H   0  0  0  0  0  0  0  0  0  0  0  0
   18.6442   16.3730   21.5005 H   0  0  0  0  0  0  0  0  0  0  0  0
   18.8031   18.1175   22.7713 C   0  0  0  0  0  0  0  0  0  0  0  0
   17.9093   18.6763   22.4618 H   0  0  0  0  0  0  0  0  0  0  0  0
   18.4748   17.4469   23.5770 H   0  0  0  0  0  0  0  0  0  0  0  0
   19.8567   19.0857   23.3660 C   0  0  0  0  0  0  0  0  0  0  0  0
   20.7543   18.5253   23.6614 H   0  0  0  0  0  0  0  0  0  0  0  0
   19.4458   19.5166   24.2895 H   0  0  0  0  0  0  0  0  0  0  0  0
   20.2584   20.2479   22.4221 C   0  0  0  0  0  0  0  0  0  0  0  0
   20.8071   19.8673   21.5548 H   0  0  0  0  0  0  0  0  0  0  0  0
   19.3637   20.7579   22.0456 H   0  0  0  0  0  0  0  0  0  0  0  0
   21.1429   21.2842   23.1058 C   0  0  0  0  0  0  0  0  0  0  0  0
   22.3460   21.1140   23.0873 O   0  5  0  0  0  0  0  0  0  0  0  0
   20.6046   22.2239   23.6572 O   0  0  0  0  0  0  0  0  0  0  0  0
  1  2  1  0  0  0  0
  1  3  1  0  0  0  0
  1  4  2  0  0  0  0
  4  5  1  0  0  0  0
  4  6  1  0  0  0  0
  6  7  1  0  0  0  0
  6  8  1  0  0  0  0
  6  9  1  0  0  0  0
  9 10  1  0  0  0  0
  9 11  1  0  0  0  0
  9 12  1  0  0  0  0
 12 13  1  0  0  0  0
 12 14  1  0  0  0  0
 12 15  1  0  0  0  0
 15 16  1  0  0  0  0
 15 17  1  0  0  0  0
 15 18  1  0  0  0  0
 18 19  1  0  0  0  0
 18 20  2  0  0  0  0
M  END
> <VConfSearch Rank>
959

> <Conf_Id>
51

> <Delta U+W>
1.709

> <U+W>
-50.036

> <U>
10.643

> <W>
-60.679

> <W(PB)>
-62.882

> <W(SA)>
2.203

> <Valence>
11.231

> <Coulomb>
-1.077

> <VdW>
0.489

> <VdW6>
-7.546

> <VdW12>
8.035

> <Bond>
0.159

> <Angle>
3.005

> <Pdih>
8.065

> <Idih>
0.002

> <Tether>
0.000

$$$$
VeraChem MOL file


 20 19  0  0  0  0  0  0  0  0999 V2000     
   17.1690   18.0915   20.9477 C   0  0  0  0  0  0  0  0  0  0  0  0
   17.4266   17.7983   19.9313 H   0  0  0  0  0  0  0  0  0  0  0  0
   16.1745   18.5013   21.1155 H   0  0  0  0  0  0  0  0  0  0  0  0
   18.0394   17.9569   21.9517 C   0  0  0  0  0  0  0  0  0  0  0  0
   17.7599   18.2477   22.9637 H   0  0  0  0  0  0  0  0  0  0  0  0
   19.4317   17.3843   21.7931 C   0  0  0  0  0  0  0  0  0  0  0  0
   19.3669   16.4787   21.1749 H   0  0  0  0  0  0  0  0  0  0  0  0
   19.8201   17.0536   22.7657 H   0  0  0  0  0  0  0  0  0  0  0  0
   20.4317   18.3622   21.1276 C   0  0  0  0  0  0  0  0  0  0  0  0
   21.2732   17.7718   20.7403 H   0  0  0  0  0  0  0  0  0  0  0  0
   19.9677   18.8356   20.2516 H   0  0  0  0  0  0  0  0  0  0  0  0
   21.0126   19.4445   22.0722 C   0  0  0  0  0  0  0  0  0  0  0  0
   21.8313   19.9561   21.5474 H   0  0  0  0  0  0  0  0  0  0  0  0
   21.4632   18.9681   22.9538 H   0  0  0  0  0  0  0  0  0  0  0  0
   19.9839   20.5109   22.5281 C   0  0  0  0  0  0  0  0  0  0  0  0
   19.4595   20.9280   21.6602 H   0  0  0  0  0  0  0  0  0  0  0  0
   19.2291   20.0627   23.1819 H   0  0  0  0  0  0  0  0  0  0  0  0
   20.6273   21.6623   23.2922 C   0  0  0  0  0  0  0  0  0  0  0  0
   20.7528   21.5535   24.4960 O   0  5  0  0  0  0  0  0  0  0  0  0
   21.0049   22.6298   22.6611 O   0  0  0  0  0  0  0  0  0  0  0  0
  1  2  1  0  0  0  0
  1  3  1  0  0  0  0
  1  4  2  0  0  0  0
  4  5  1  0  0  0  0
  4  6  1  0  0  0  0
  6  7  1  0  0  0  0
  6  8  1  0  0  0  0
  6  9  1  0  0  0  0
  9 10  1  0  0  0  0
  9 11  1  0  0  0  0
  9 12  1  0  0  0  0
 12 13  1  0  0  0  0
 12 14  1  0  0  0  0
 12 15  1  0  0  0  0
 15 16  1  0  0  0  0
 15 17  1  0  0  0  0
 15 18  1  0  0  0  0
 18 19  1  0  0  0  0
 18 20  2  0  0  0  0
M  END
> <VConfSearch Rank>
960

> <Conf_Id>
91

> <Delta U+W>
1.604

> <U+W>
-50.141

> <U>
10.644

> <W>
-60.786

> <W(PB)>
-62.965

> <W(SA)>
2.179

> <Valence>
11.230

> <Coulomb>
-1.075

> <VdW>
0.489

> <VdW6>
-7.547

> <VdW12>
8.036

> <Bond>
0.159

> <Angle>
3.006

> <Pdih>
8.064

> <Idih>
0.002

> <Tether>
0.000

$$$$
VeraChem MOL file


 20 19  0  0  0  0  0  0  0  0999 V2000     
   19.3462   16.7403   24.7548 C   0  0  0  0  0  0  0  0  0  0  0  0
   18.7420   17.5133   25.2270 H   0  0  0  0  0  0  0  0  0  0  0  0
   19.7690   15.9715   25.3994 H   0  0  0  0  0  0  0  0  0  0  0  0
   19.5648   16.7332   23.4373 C   0  0  0  0  0  0  0  0  0  0  0  0
   20.1733   15.9507   22.9846 H   0  0  0  0  0  0  0  0  0  0  0  0
   19.0108   17.7654   22.4805 C   0  0  0  0  0  0  0  0  0  0  0  0
   18.2154   18.3465   22.9668 H   0  0  0  0  0  0  0  0  0  0  0  0
   18.5519   17.2601   21.6202 H   0  0  0  0  0  0  0  0  0  0  0  0
   20.1183   18.7209   21.9894 C   0  0  0  0  0  0  0  0  0  0  0  0
   20.5768   19.2205   22.8540 H   0  0  0  0  0  0  0  0  0  0  0  0
   20.9114   18.1397   21.4991 H   0  0  0  0  0  0  0  0  0  0  0  0
   19.5700   19.7803   21.0084 C   0  0  0  0  0  0  0  0  0  0  0  0
   18.7770   20.3623   21.4983 H   0  0  0  0  0  0  0  0  0  0  0  0
   19.1102   19.2812   20.1441 H   0  0  0  0  0  0  0  0  0  0  0  0
   20.6841   20.7415   20.5152 C   0  0  0  0  0  0  0  0  0  0  0  0
   21.1430   21.2479   21.3725 H   0  0  0  0  0  0  0  0  0  0  0  0
   21.4760   20.1679   20.0196 H   0  0  0  0  0  0  0  0  0  0  0  0
   20.2255   21.8247   19.5377 C   0  0  0  0  0  0  0  0  0  0  0  0
   21.0704   22.5958   19.1282 O   0  5  0  0  0  0  0  0  0  0  0  0
   19.0570   21.8821   19.2061 O   0  0  0  0  0  0  0  0  0  0  0  0
  1  2  1  0  0  0  0
  1  3  1  0  0  0  0
  1  4  2  0  0  0  0
  4  5  1  0  0  0  0
  4  6  1  0  0  0  0
  6  7  1  0  0  0  0
  6  8  1  0  0  0  0
  6  9  1  0  0  0  0
  9 10  1  0  0  0  0
  9 11  1  0  0  0  0
  9 12  1  0  0  0  0
 12 13  1  0  0  0  0
 12 14  1  0  0  0  0
 12 15  1  0  0  0  0
 15 16  1  0  0  0  0
 15 17  1  0  0  0  0
 15 18  1  0  0  0  0
 18 19  1  0  0  0  0
 18 20  2  0  0  0  0
M  END
> <VConfSearch Rank>
961

> <Conf_Id>
33

> <Delta U+W>
0.000

> <U+W>
-51.745

> <U>
7.593

> <W>
-59.338

> <W(PB)>
-61.574

> <W(SA)>
2.236

> <Valence>
9.570

> <Coulomb>
-3.091

> <VdW>
1.114

> <VdW6>
-6.064

> <VdW12>
7.178

> <Bond>
0.117

> <Angle>
2.692

> <Pdih>
6.761

> <Idih>
0.000

> <Tether>
0.000

$$$$
VeraChem MOL file


 20 19  0  0  0  0  0  0  0  0999 V2000     
   19.5126   15.4150   21.6859 C   0  0  0  0  0  0  0  0  0  0  0  0
   18.6316   15.5076   21.0527 H   0  0  0  0  0  0  0  0  0  0  0  0
   19.7639   14.4211   22.0522 H   0  0  0  0  0  0  0  0  0  0  0  0
   20.2570   16.4768   22.0052 C   0  0  0  0  0  0  0  0  0  0  0  0
   21.1345   16.3627   22.6412 H   0  0  0  0  0  0  0  0  0  0  0  0
   19.9709   17.8854   21.5342 C   0  0  0  0  0  0  0  0  0  0  0  0
   19.2445   17.8701   20.7104 H   0  0  0  0  0  0  0  0  0  0  0  0
   20.8935   18.3260   21.1358 H   0  0  0  0  0  0  0  0  0  0  0  0
   19.4225   18.7554   22.6875 C   0  0  0  0  0  0  0  0  0  0  0  0
   18.5495   18.2521   23.1256 H   0  0  0  0  0  0  0  0  0  0  0  0
   20.1732   18.8257   23.4867 H   0  0  0  0  0  0  0  0  0  0  0  0
   19.0012   20.1762   22.2425 C   0  0  0  0  0  0  0  0  0  0  0  0
   18.5216   20.6833   23.0912 H   0  0  0  0  0  0  0  0  0  0  0  0
   18.2406   20.1076   21.4525 H   0  0  0  0  0  0  0  0  0  0  0  0
   20.1855   21.0463   21.7472 C   0  0  0  0  0  0  0  0  0  0  0  0
   20.9708   21.0873   22.5114 H   0  0  0  0  0  0  0  0  0  0  0  0
   20.6316   20.6143   20.8444 H   0  0  0  0  0  0  0  0  0  0  0  0
   19.7694   22.4759   21.4198 C   0  0  0  0  0  0  0  0  0  0  0  0
   19.3874   22.7183   20.2920 O   0  5  0  0  0  0  0  0  0  0  0  0
   19.8194   23.3052   22.3066 O   0  0  0  0  0  0  0  0  0  0  0  0
  1  2  1  0  0  0  0
  1  3  1  0  0  0  0
  1  4  2  0  0  0  0
  4  5  1  0  0  0  0
  4  6  1  0  0  0  0
  6  7  1  0  0  0  0
  6  8  1  0  0  0  0
  6  9  1  0  0  0  0
  9 10  1  0  0  0  0
  9 11  1  0  0  0  0
  9 12  1  0  0  0  0
 12 13  1  0  0  0  0
 12 14  1  0  0  0  0
 12 15  1  0  0  0  0
 15 16  1  0  0  0  0
 15 17  1  0  0  0  0
 15 18  1  0  0  0  0
 18 19  1  0  0  0  0
 18 20  2  0  0  0  0
M  END
> <VConfSearch Rank>
962

> <Conf_Id>
37

> <Delta U+W>
-0.384

> <U+W>
-52.130

> <U>
7.491

> <W>
-59.621

> <W(PB)>
-61.853

> <W(SA)>
2.232

> <Valence>
9.604

> <Coulomb>
-2.799

> <VdW>
0.686

> <VdW6>
-6.435

> <VdW12>
7.121

> <Bond>
0.124

> <Angle>
2.493

> <Pdih>
6.986

> <Idih>
0.001

> <Tether>
0.000

$$$$
VeraChem MOL file


 20 19  0  0  0  0  0  0  0  0999 V2000     
   22.1392   17.5209   23.7590 C   0  0  0  0  0  0  0  0  0  0  0  0
   22.8965   17.0433   24.3782 H   0  0  0  0  0  0  0  0  0  0  0  0
   22.1887   17.3309   22.6889 H   0  0  0  0  0  0  0  0  0  0  0  0
   21.2007   18.3009   24.3074 C   0  0  0  0  0  0  0  0  0  0  0  0
   21.2028   18.4537   25.3864 H   0  0  0  0  0  0  0  0  0  0  0  0
   20.0854   19.0305   23.5773 C   0  0  0  0  0  0  0  0  0  0  0  0
   20.1628   20.1037   23.7972 H   0  0  0  0  0  0  0  0  0  0  0  0
   19.1217   18.7112   23.9962 H   0  0  0  0  0  0  0  0  0  0  0  0
   20.0643   18.8272   22.0443 C   0  0  0  0  0  0  0  0  0  0  0  0
   21.0184   19.1643   21.6162 H   0  0  0  0  0  0  0  0  0  0  0  0
   19.9660   17.7567   21.8174 H   0  0  0  0  0  0  0  0  0  0  0  0
   18.9037   19.6000   21.3804 C   0  0  0  0  0  0  0  0  0  0  0  0
   18.9963   20.6720   21.6038 H   0  0  0  0  0  0  0  0  0  0  0  0
   17.9461   19.2673   21.8046 H   0  0  0  0  0  0  0  0  0  0  0  0
   18.8804   19.3980   19.8453 C   0  0  0  0  0  0  0  0  0  0  0  0
   19.8251   19.7381   19.4041 H   0  0  0  0  0  0  0  0  0  0  0  0
   18.7749   18.3333   19.6049 H   0  0  0  0  0  0  0  0  0  0  0  0
   17.7424   20.1517   19.1663 C   0  0  0  0  0  0  0  0  0  0  0  0
   17.9485   21.2913   18.7981 O   0  5  0  0  0  0  0  0  0  0  0  0
   16.6741   19.5862   19.0414 O   0  0  0  0  0  0  0  0  0  0  0  0
  1  2  1  0  0  0  0
  1  3  1  0  0  0  0
  1  4  2  0  0  0  0
  4  5  1  0  0  0  0
  4  6  1  0  0  0  0
  6  7  1  0  0  0  0
  6  8  1  0  0  0  0
  6  9  1  0  0  0  0
  9 10  1  0  0  0  0
  9 11  1  0  0  0  0
  9 12  1  0  0  0  0
 12 13  1  0  0  0  0
 12 14  1  0  0  0  0
 12 15  1  0  0  0  0
 15 16  1  0  0  0  0
 15 17  1  0  0  0  0
 15 18  1  0  0  0  0
 18 19  1  0  0  0  0
 18 20  2  0  0  0  0
M  END
> <VConfSearch Rank>
963

> <Conf_Id>
44

> <Delta U+W>
-1.440

> <U+W>
-53.185

> <U>
6.572

> <W>
-59.757

> <W(PB)>
-62.007

> <W(SA)>
2.249

> <Valence>
7.989

> <Coulomb>
-2.697

> <VdW>
1.281

> <VdW6>
-6.467

> <VdW12>
7.748

> <Bond>
0.136

> <Angle>
2.854

> <Pdih>
4.997

> <Idih>
0.001

> <Tether>
0.000

$$$$
VeraChem MOL file


 20 19  0  0  0  0  0  0  0  0999 V2000     
   22.1710   21.4976   21.2992 C   0  0  0  0  0  0  0  0  0  0  0  0
   21.3440   22.1369   21.6039 H   0  0  0  0  0  0  0  0  0  0  0  0
   23.0205   21.9748   20.8136 H   0  0  0  0  0  0  0  0  0  0  0  0
   22.1472   20.1787   21.5085 C   0  0  0  0  0  0  0  0  0  0  0  0
   22.9853   19.5566   21.1952 H   0  0  0  0  0  0  0  0  0  0  0  0
   21.0046   19.4468   22.1767 C   0  0  0  0  0  0  0  0  0  0  0  0
   20.3521   20.1643   22.6906 H   0  0  0  0  0  0  0  0  0  0  0  0
   21.4018   18.7715   22.9462 H   0  0  0  0  0  0  0  0  0  0  0  0
   20.1872   18.6352   21.1466 C   0  0  0  0  0  0  0  0  0  0  0  0
   19.7449   19.3181   20.4081 H   0  0  0  0  0  0  0  0  0  0  0  0
   20.8692   17.9773   20.5906 H   0  0  0  0  0  0  0  0  0  0  0  0
   19.0765   17.7674   21.7849 C   0  0  0  0  0  0  0  0  0  0  0  0
   19.5186   17.0772   22.5167 H   0  0  0  0  0  0  0  0  0  0  0  0
   18.6251   17.1419   21.0023 H   0  0  0  0  0  0  0  0  0  0  0  0
   17.9572   18.5971   22.4659 C   0  0  0  0  0  0  0  0  0  0  0  0
   18.3577   19.1654   23.3128 H   0  0  0  0  0  0  0  0  0  0  0  0
   17.5378   19.3208   21.7569 H   0  0  0  0  0  0  0  0  0  0  0  0
   16.8164   17.7308   22.9876 C   0  0  0  0  0  0  0  0  0  0  0  0
   15.8851   17.4988   22.2422 O   0  5  0  0  0  0  0  0  0  0  0  0
   16.8983   17.2943   24.1187 O   0  0  0  0  0  0  0  0  0  0  0  0
  1  2  1  0  0  0  0
  1  3  1  0  0  0  0
  1  4  2  0  0  0  0
  4  5  1  0  0  0  0
  4  6  1  0  0  0  0
  6  7  1  0  0  0  0
  6  8  1  0  0  0  0
  6  9  1  0  0  0  0
  9 10  1  0  0  0  0
  9 11  1  0  0  0  0
  9 12  1  0  0  0  0
 12 13  1  0  0  0  0
 12 14  1  0  0  0  0
 12 15  1  0  0  0  0
 15 16  1  0  0  0  0
 15 17  1  0  0  0  0
 15 18  1  0  0  0  0
 18 19  1  0  0  0  0
 18 20  2  0  0  0  0
M  END
> <VConfSearch Rank>
964

> <Conf_Id>
38

> <Delta U+W>
-0.381

> <U+W>
-52.126

> <U>
7.601

> <W>
-59.727

> <W(PB)>
-61.964

> <W(SA)>
2.236

> <Valence>
9.602

> <Coulomb>
-2.686

> <VdW>
0.685

> <VdW6>
-6.453

> <VdW12>
7.139

> <Bond>
0.125

> <Angle>
2.485

> <Pdih>
6.991

> <Idih>
0.001

> <Tether>
0.000

$$$$
VeraChem MOL file


 20 19  0  0  0  0  0  0  0  0999 V2000     
   17.0936   17.0260   21.0550 C   0  0  0  0  0  0  0  0  0  0  0  0
   16.4083   17.8447   20.8417 H   0  0  0  0  0  0  0  0  0  0  0  0
   16.8935   16.0680   20.5781 H   0  0  0  0  0  0  0  0  0  0  0  0
   18.1414   17.1870   21.8674 C   0  0  0  0  0  0  0  0  0  0  0  0
   18.8161   16.3547   22.0670 H   0  0  0  0  0  0  0  0  0  0  0  0
   18.4821   18.4852   22.5646 C   0  0  0  0  0  0  0  0  0  0  0  0
   18.6727   18.2917   23.6287 H   0  0  0  0  0  0  0  0  0  0  0  0
   17.6305   19.1774   22.5166 H   0  0  0  0  0  0  0  0  0  0  0  0
   19.7217   19.1498   21.9300 C   0  0  0  0  0  0  0  0  0  0  0  0
   20.5725   18.4564   21.9814 H   0  0  0  0  0  0  0  0  0  0  0  0
   19.5291   19.3374   20.8647 H   0  0  0  0  0  0  0  0  0  0  0  0
   20.0855   20.4771   22.6331 C   0  0  0  0  0  0  0  0  0  0  0  0
   20.2891   20.2913   23.6970 H   0  0  0  0  0  0  0  0  0  0  0  0
   19.2242   21.1575   22.5903 H   0  0  0  0  0  0  0  0  0  0  0  0
   21.3114   21.1760   21.9900 C   0  0  0  0  0  0  0  0  0  0  0  0
   21.1344   21.3433   20.9207 H   0  0  0  0  0  0  0  0  0  0  0  0
   21.4520   22.1627   22.4468 H   0  0  0  0  0  0  0  0  0  0  0  0
   22.6195   20.4072   22.1529 C   0  0  0  0  0  0  0  0  0  0  0  0
   23.0650   19.8175   21.1882 O   0  5  0  0  0  0  0  0  0  0  0  0
   23.1642   20.4282   23.2392 O   0  0  0  0  0  0  0  0  0  0  0  0
  1  2  1  0  0  0  0
  1  3  1  0  0  0  0
  1  4  2  0  0  0  0
  4  5  1  0  0  0  0
  4  6  1  0  0  0  0
  6  7  1  0  0  0  0
  6  8  1  0  0  0  0
  6  9  1  0  0  0  0
  9 10  1  0  0  0  0
  9 11  1  0  0  0  0
  9 12  1  0  0  0  0
 12 13  1  0  0  0  0
 12 14  1  0  0  0  0
 12 15  1  0  0  0  0
 15 16  1  0  0  0  0
 15 17  1  0  0  0  0
 15 18  1  0  0  0  0
 18 19  1  0  0  0  0
 18 20  2  0  0  0  0
M  END
> <VConfSearch Rank>
965

> <Conf_Id>
58

> <Delta U+W>
0.019

> <U+W>
-51.727

> <U>
8.963

> <W>
-60.690

> <W(PB)>
-62.934

> <W(SA)>
2.244

> <Valence>
9.327

> <Coulomb>
-0.780

> <VdW>
0.417

> <VdW6>
-6.635

> <VdW12>
7.052

> <Bond>
0.105

> <Angle>
2.399

> <Pdih>
6.822

> <Idih>
0.000

> <Tether>
0.000

$$$$
VeraChem MOL file


 20 19  0  0  0  0  0  0  0  0999 V2000     
   21.9536   18.0884   19.4892 C   0  0  0  0  0  0  0  0  0  0  0  0
   22.1288   19.0941   19.1104 H   0  0  0  0  0  0  0  0  0  0  0  0
   22.1465   17.2576   18.8127 H   0  0  0  0  0  0  0  0  0  0  0  0
   21.5167   17.8779   20.7336 C   0  0  0  0  0  0  0  0  0  0  0  0
   21.3467   16.8632   21.0931 H   0  0  0  0  0  0  0  0  0  0  0  0
   21.2281   18.9799   21.7286 C   0  0  0  0  0  0  0  0  0  0  0  0
   21.6616   19.9280   21.3824 H   0  0  0  0  0  0  0  0  0  0  0  0
   21.7085   18.7440   22.6876 H   0  0  0  0  0  0  0  0  0  0  0  0
   19.7098   19.1555   21.9405 C   0  0  0  0  0  0  0  0  0  0  0  0
   19.2321   19.3866   20.9784 H   0  0  0  0  0  0  0  0  0  0  0  0
   19.2790   18.2066   22.2890 H   0  0  0  0  0  0  0  0  0  0  0  0
   19.3973   20.2765   22.9575 C   0  0  0  0  0  0  0  0  0  0  0  0
   19.8449   21.2170   22.6087 H   0  0  0  0  0  0  0  0  0  0  0  0
   19.8648   20.0432   23.9242 H   0  0  0  0  0  0  0  0  0  0  0  0
   17.8748   20.4892   23.1614 C   0  0  0  0  0  0  0  0  0  0  0  0
   17.7092   21.3676   23.7961 H   0  0  0  0  0  0  0  0  0  0  0  0
   17.3889   20.6957   22.2001 H   0  0  0  0  0  0  0  0  0  0  0  0
   17.1669   19.3093   23.8215 C   0  0  0  0  0  0  0  0  0  0  0  0
   17.3153   19.1489   25.0170 O   0  5  0  0  0  0  0  0  0  0  0  0
   16.4777   18.5890   23.1264 O   0  0  0  0  0  0  0  0  0  0  0  0
  1  2  1  0  0  0  0
  1  3  1  0  0  0  0
  1  4  2  0  0  0  0
  4  5  1  0  0  0  0
  4  6  1  0  0  0  0
  6  7  1  0  0  0  0
  6  8  1  0  0  0  0
  6  9  1  0  0  0  0
  9 10  1  0  0  0  0
  9 11  1  0  0  0  0
  9 12  1  0  0  0  0
 12 13  1  0  0  0  0
 12 14  1  0  0  0  0
 12 15  1  0  0  0  0
 15 16  1  0  0  0  0
 15 17  1  0  0  0  0
 15 18  1  0  0  0  0
 18 19  1  0  0  0  0
 18 20  2  0  0  0  0
M  END
> <VConfSearch Rank>
966

> <Conf_Id>
54

> <Delta U+W>
-0.048

> <U+W>
-51.793

> <U>
8.964

> <W>
-60.756

> <W(PB)>
-63.007

> <W(SA)>
2.251

> <Valence>
9.327

> <Coulomb>
-0.780

> <VdW>
0.417

> <VdW6>
-6.635

> <VdW12>
7.052

> <Bond>
0.105

> <Angle>
2.399

> <Pdih>
6.822

> <Idih>
0.000

> <Tether>
0.000

$$$$
VeraChem MOL file


 20 19  0  0  0  0  0  0  0  0999 V2000     
   17.0006   17.3702   22.8701 C   0  0  0  0  0  0  0  0  0  0  0  0
   16.0552   17.1738   22.3673 H   0  0  0  0  0  0  0  0  0  0  0  0
   17.4244   16.5678   23.4718 H   0  0  0  0  0  0  0  0  0  0  0  0
   17.6149   18.5498   22.7487 C   0  0  0  0  0  0  0  0  0  0  0  0
   17.1715   19.3406   22.1442 H   0  0  0  0  0  0  0  0  0  0  0  0
   18.9253   18.8963   23.4230 C   0  0  0  0  0  0  0  0  0  0  0  0
   19.0989   18.2143   24.2664 H   0  0  0  0  0  0  0  0  0  0  0  0
   18.8707   19.9062   23.8509 H   0  0  0  0  0  0  0  0  0  0  0  0
   20.1277   18.8038   22.4566 C   0  0  0  0  0  0  0  0  0  0  0  0
   21.0534   18.9294   23.0348 H   0  0  0  0  0  0  0  0  0  0  0  0
   20.1673   17.7973   22.0179 H   0  0  0  0  0  0  0  0  0  0  0  0
   20.0783   19.8645   21.3312 C   0  0  0  0  0  0  0  0  0  0  0  0
   20.0240   20.8706   21.7698 H   0  0  0  0  0  0  0  0  0  0  0  0
   19.1642   19.7279   20.7385 H   0  0  0  0  0  0  0  0  0  0  0  0
   21.3022   19.7833   20.3821 C   0  0  0  0  0  0  0  0  0  0  0  0
   21.3894   18.7739   19.9623 H   0  0  0  0  0  0  0  0  0  0  0  0
   21.1566   20.4670   19.5375 H   0  0  0  0  0  0  0  0  0  0  0  0
   22.6268   20.1521   21.0440 C   0  0  0  0  0  0  0  0  0  0  0  0
   23.3986   19.2567   21.3264 O   0  5  0  0  0  0  0  0  0  0  0  0
   22.8561   21.3277   21.2499 O   0  0  0  0  0  0  0  0  0  0  0  0
  1  2  1  0  0  0  0
  1  3  1  0  0  0  0
  1  4  2  0  0  0  0
  4  5  1  0  0  0  0
  4  6  1  0  0  0  0
  6  7  1  0  0  0  0
  6  8  1  0  0  0  0
  6  9  1  0  0  0  0
  9 10  1  0  0  0  0
  9 11  1  0  0  0  0
  9 12  1  0  0  0  0
 12 13  1  0  0  0  0
 12 14  1  0  0  0  0
 12 15  1  0  0  0  0
 15 16  1  0  0  0  0
 15 17  1  0  0  0  0
 15 18  1  0  0  0  0
 18 19  1  0  0  0  0
 18 20  2  0  0  0  0
M  END
> <VConfSearch Rank>
967

> <Conf_Id>
27

> <Delta U+W>
0.478

> <U+W>
-51.267

> <U>
9.192

> <W>
-60.459

> <W(PB)>
-62.649

> <W(SA)>
2.190

> <Valence>
9.572

> <Coulomb>
-0.884

> <VdW>
0.504

> <VdW6>
-7.168

> <VdW12>
7.672

> <Bond>
0.127

> <Angle>
2.504

> <Pdih>
6.941

> <Idih>
0.001

> <Tether>
0.000

$$$$
VeraChem MOL file


 20 19  0  0  0  0  0  0  0  0999 V2000     
   21.7190   21.0955   23.2889 C   0  0  0  0  0  0  0  0  0  0  0  0
   21.6874   20.9451   24.3668 H   0  0  0  0  0  0  0  0  0  0  0  0
   21.9192   22.1034   22.9292 H   0  0  0  0  0  0  0  0  0  0  0  0
   21.5175   20.0864   22.4376 C   0  0  0  0  0  0  0  0  0  0  0  0
   21.5566   20.2584   21.3624 H   0  0  0  0  0  0  0  0  0  0  0  0
   21.2408   18.6604   22.8640 C   0  0  0  0  0  0  0  0  0  0  0  0
   21.5682   18.5143   23.9023 H   0  0  0  0  0  0  0  0  0  0  0  0
   21.8340   17.9658   22.2543 H   0  0  0  0  0  0  0  0  0  0  0  0
   19.7426   18.2959   22.7613 C   0  0  0  0  0  0  0  0  0  0  0  0
   19.5889   17.3031   23.2059 H   0  0  0  0  0  0  0  0  0  0  0  0
   19.1531   19.0036   23.3604 H   0  0  0  0  0  0  0  0  0  0  0  0
   19.2252   18.2848   21.3045 C   0  0  0  0  0  0  0  0  0  0  0  0
   19.8323   17.5961   20.7007 H   0  0  0  0  0  0  0  0  0  0  0  0
   19.3366   19.2829   20.8593 H   0  0  0  0  0  0  0  0  0  0  0  0
   17.7383   17.8595   21.2253 C   0  0  0  0  0  0  0  0  0  0  0  0
   17.6075   16.8571   21.6502 H   0  0  0  0  0  0  0  0  0  0  0  0
   17.1169   18.5451   21.8140 H   0  0  0  0  0  0  0  0  0  0  0  0
   17.2031   17.8419   19.7980 C   0  0  0  0  0  0  0  0  0  0  0  0
   16.7037   18.8594   19.3599 O   0  5  0  0  0  0  0  0  0  0  0  0
   17.3156   16.8163   19.1560 O   0  0  0  0  0  0  0  0  0  0  0  0
  1  2  1  0  0  0  0
  1  3  1  0  0  0  0
  1  4  2  0  0  0  0
  4  5  1  0  0  0  0
  4  6  1  0  0  0  0
  6  7  1  0  0  0  0
  6  8  1  0  0  0  0
  6  9  1  0  0  0  0
  9 10  1  0  0  0  0
  9 11  1  0  0  0  0
  9 12  1  0  0  0  0
 12 13  1  0  0  0  0
 12 14  1  0  0  0  0
 12 15  1  0  0  0  0
 15 16  1  0  0  0  0
 15 17  1  0  0  0  0
 15 18  1  0  0  0  0
 18 19  1  0  0  0  0
 18 20  2  0  0  0  0
M  END
> <VConfSearch Rank>
968

> <Conf_Id>
41

> <Delta U+W>
-0.634

> <U+W>
-52.379

> <U>
7.828

> <W>
-60.207

> <W(PB)>
-62.449

> <W(SA)>
2.242

> <Valence>
9.300

> <Coulomb>
-2.080

> <VdW>
0.608

> <VdW6>
-6.341

> <VdW12>
6.949

> <Bond>
0.103

> <Angle>
2.334

> <Pdih>
6.862

> <Idih>
0.001

> <Tether>
0.000

$$$$
VeraChem MOL file


 20 19  0  0  0  0  0  0  0  0999 V2000     
   20.4727   18.4988   25.5478 C   0  0  0  0  0  0  0  0  0  0  0  0
   20.2566   18.8717   26.5476 H   0  0  0  0  0  0  0  0  0  0  0  0
   20.8410   17.4777   25.4627 H   0  0  0  0  0  0  0  0  0  0  0  0
   20.2896   19.2664   24.4704 C   0  0  0  0  0  0  0  0  0  0  0  0
   19.9195   20.2859   24.5768 H   0  0  0  0  0  0  0  0  0  0  0  0
   20.5683   18.8188   23.0528 C   0  0  0  0  0  0  0  0  0  0  0  0
   21.1687   17.8990   23.0555 H   0  0  0  0  0  0  0  0  0  0  0  0
   21.1640   19.5875   22.5436 H   0  0  0  0  0  0  0  0  0  0  0  0
   19.2532   18.5744   22.2795 C   0  0  0  0  0  0  0  0  0  0  0  0
   18.6275   17.8786   22.8552 H   0  0  0  0  0  0  0  0  0  0  0  0
   18.6873   19.5138   22.2114 H   0  0  0  0  0  0  0  0  0  0  0  0
   19.4684   17.9870   20.8629 C   0  0  0  0  0  0  0  0  0  0  0  0
   18.4875   17.7728   20.4162 H   0  0  0  0  0  0  0  0  0  0  0  0
   19.9855   17.0216   20.9463 H   0  0  0  0  0  0  0  0  0  0  0  0
   20.2641   18.9093   19.8992 C   0  0  0  0  0  0  0  0  0  0  0  0
   21.2774   19.0835   20.2784 H   0  0  0  0  0  0  0  0  0  0  0  0
   20.3775   18.4096   18.9301 H   0  0  0  0  0  0  0  0  0  0  0  0
   19.6009   20.2588   19.6390 C   0  0  0  0  0  0  0  0  0  0  0  0
   18.6024   20.2818   18.9462 O   0  5  0  0  0  0  0  0  0  0  0  0
   20.1089   21.2526   20.1199 O   0  0  0  0  0  0  0  0  0  0  0  0
  1  2  1  0  0  0  0
  1  3  1  0  0  0  0
  1  4  2  0  0  0  0
  4  5  1  0  0  0  0
  4  6  1  0  0  0  0
  6  7  1  0  0  0  0
  6  8  1  0  0  0  0
  6  9  1  0  0  0  0
  9 10  1  0  0  0  0
  9 11  1  0  0  0  0
  9 12  1  0  0  0  0
 12 13  1  0  0  0  0
 12 14  1  0  0  0  0
 12 15  1  0  0  0  0
 15 16  1  0  0  0  0
 15 17  1  0  0  0  0
 15 18  1  0  0  0  0
 18 19  1  0  0  0  0
 18 20  2  0  0  0  0
M  END
> <VConfSearch Rank>
969

> <Conf_Id>
84

> <Delta U+W>
0.942

> <U+W>
-50.803

> <U>
10.196

> <W>
-60.999

> <W(PB)>
-63.182

> <W(SA)>
2.182

> <Valence>
9.837

> <Coulomb>
0.032

> <VdW>
0.328

> <VdW6>
-7.642

> <VdW12>
7.969

> <Bond>
0.151

> <Angle>
2.748

> <Pdih>
6.937

> <Idih>
0.001

> <Tether>
0.000

$$$$
VeraChem MOL file


 20 19  0  0  0  0  0  0  0  0999 V2000     
   18.3205   22.1193   20.6611 C   0  0  0  0  0  0  0  0  0  0  0  0
   18.1701   22.6846   19.7429 H   0  0  0  0  0  0  0  0  0  0  0  0
   17.4647   22.0041   21.3243 H   0  0  0  0  0  0  0  0  0  0  0  0
   19.5092   21.5875   20.9572 C   0  0  0  0  0  0  0  0  0  0  0  0
   20.3530   21.7138   20.2791 H   0  0  0  0  0  0  0  0  0  0  0  0
   19.7933   20.7921   22.2119 C   0  0  0  0  0  0  0  0  0  0  0  0
   18.9846   20.9320   22.9421 H   0  0  0  0  0  0  0  0  0  0  0  0
   20.7126   21.1651   22.6829 H   0  0  0  0  0  0  0  0  0  0  0  0
   19.9458   19.2893   21.8966 C   0  0  0  0  0  0  0  0  0  0  0  0
   19.0253   18.9244   21.4199 H   0  0  0  0  0  0  0  0  0  0  0  0
   20.7572   19.1482   21.1693 H   0  0  0  0  0  0  0  0  0  0  0  0
   20.2400   18.4623   23.1685 C   0  0  0  0  0  0  0  0  0  0  0  0
   19.4233   18.5900   23.8927 H   0  0  0  0  0  0  0  0  0  0  0  0
   21.1505   18.8465   23.6479 H   0  0  0  0  0  0  0  0  0  0  0  0
   20.4284   16.9526   22.8680 C   0  0  0  0  0  0  0  0  0  0  0  0
   21.2229   16.8102   22.1256 H   0  0  0  0  0  0  0  0  0  0  0  0
   20.7491   16.4348   23.7796 H   0  0  0  0  0  0  0  0  0  0  0  0
   19.1649   16.2572   22.3690 C   0  0  0  0  0  0  0  0  0  0  0  0
   19.0885   15.9797   21.1882 O   0  5  0  0  0  0  0  0  0  0  0  0
   18.2956   15.9998   23.1784 O   0  0  0  0  0  0  0  0  0  0  0  0
  1  2  1  0  0  0  0
  1  3  1  0  0  0  0
  1  4  2  0  0  0  0
  4  5  1  0  0  0  0
  4  6  1  0  0  0  0
  6  7  1  0  0  0  0
  6  8  1  0  0  0  0
  6  9  1  0  0  0  0
  9 10  1  0  0  0  0
  9 11  1  0  0  0  0
  9 12  1  0  0  0  0
 12 13  1  0  0  0  0
 12 14  1  0  0  0  0
 12 15  1  0  0  0  0
 15 16  1  0  0  0  0
 15 17  1  0  0  0  0
 15 18  1  0  0  0  0
 18 19  1  0  0  0  0
 18 20  2  0  0  0  0
M  END
> <VConfSearch Rank>
970

> <Conf_Id>
81

> <Delta U+W>
-0.051

> <U+W>
-51.796

> <U>
9.412

> <W>
-61.209

> <W(PB)>
-63.452

> <W(SA)>
2.243

> <Valence>
9.329

> <Coulomb>
-0.323

> <VdW>
0.406

> <VdW6>
-6.640

> <VdW12>
7.046

> <Bond>
0.105

> <Angle>
2.401

> <Pdih>
6.823

> <Idih>
0.000

> <Tether>
0.000

$$$$
VeraChem MOL file


 20 19  0  0  0  0  0  0  0  0999 V2000     
   17.6232   20.6101   20.0140 C   0  0  0  0  0  0  0  0  0  0  0  0
   17.4727   21.6164   20.4015 H   0  0  0  0  0  0  0  0  0  0  0  0
   17.3246   20.4195   18.9846 H   0  0  0  0  0  0  0  0  0  0  0  0
   18.1557   19.6449   20.7680 C   0  0  0  0  0  0  0  0  0  0  0  0
   18.2956   18.6436   20.3617 H   0  0  0  0  0  0  0  0  0  0  0  0
   18.5888   19.8337   22.2062 C   0  0  0  0  0  0  0  0  0  0  0  0
   18.2408   18.9914   22.8181 H   0  0  0  0  0  0  0  0  0  0  0  0
   18.1051   20.7268   22.6242 H   0  0  0  0  0  0  0  0  0  0  0  0
   20.1215   19.9948   22.3458 C   0  0  0  0  0  0  0  0  0  0  0  0
   20.4340   20.8934   21.7965 H   0  0  0  0  0  0  0  0  0  0  0  0
   20.3651   20.1829   23.4004 H   0  0  0  0  0  0  0  0  0  0  0  0
   20.9493   18.7861   21.8378 C   0  0  0  0  0  0  0  0  0  0  0  0
   22.0170   19.0157   21.9577 H   0  0  0  0  0  0  0  0  0  0  0  0
   20.7859   18.6573   20.7597 H   0  0  0  0  0  0  0  0  0  0  0  0
   20.6435   17.4473   22.5634 C   0  0  0  0  0  0  0  0  0  0  0  0
   19.6017   17.1489   22.4004 H   0  0  0  0  0  0  0  0  0  0  0  0
   21.2646   16.6522   22.1348 H   0  0  0  0  0  0  0  0  0  0  0  0
   20.9148   17.4765   24.0647 C   0  0  0  0  0  0  0  0  0  0  0  0
   19.9645   17.4704   24.8223 O   0  5  0  0  0  0  0  0  0  0  0  0
   22.0717   17.4869   24.4372 O   0  0  0  0  0  0  0  0  0  0  0  0
  1  2  1  0  0  0  0
  1  3  1  0  0  0  0
  1  4  2  0  0  0  0
  4  5  1  0  0  0  0
  4  6  1  0  0  0  0
  6  7  1  0  0  0  0
  6  8  1  0  0  0  0
  6  9  1  0  0  0  0
  9 10  1  0  0  0  0
  9 11  1  0  0  0  0
  9 12  1  0  0  0  0
 12 13  1  0  0  0  0
 12 14  1  0  0  0  0
 12 15  1  0  0  0  0
 15 16  1  0  0  0  0
 15 17  1  0  0  0  0
 15 18  1  0  0  0  0
 18 19  1  0  0  0  0
 18 20  2  0  0  0  0
M  END
> <VConfSearch Rank>
971

> <Conf_Id>
86

> <Delta U+W>
1.248

> <U+W>
-50.498

> <U>
10.404

> <W>
-60.901

> <W(PB)>
-63.061

> <W(SA)>
2.159

> <Valence>
10.021

> <Coulomb>
0.094

> <VdW>
0.289

> <VdW6>
-8.409

> <VdW12>
8.698

> <Bond>
0.179

> <Angle>
2.939

> <Pdih>
6.902

> <Idih>
0.001

> <Tether>
0.000

$$$$
VeraChem MOL file


 20 19  0  0  0  0  0  0  0  0999 V2000     
   19.1369   16.0851   22.6977 C   0  0  0  0  0  0  0  0  0  0  0  0
   18.2731   15.4900   22.9892 H   0  0  0  0  0  0  0  0  0  0  0  0
   19.6638   15.7931   21.7908 H   0  0  0  0  0  0  0  0  0  0  0  0
   19.5296   17.1341   23.4252 C   0  0  0  0  0  0  0  0  0  0  0  0
   18.9870   17.4111   24.3286 H   0  0  0  0  0  0  0  0  0  0  0  0
   20.7182   18.0076   23.0837 C   0  0  0  0  0  0  0  0  0  0  0  0
   21.3207   17.5476   22.2886 H   0  0  0  0  0  0  0  0  0  0  0  0
   21.3717   18.0834   23.9628 H   0  0  0  0  0  0  0  0  0  0  0  0
   20.2960   19.4303   22.6528 C   0  0  0  0  0  0  0  0  0  0  0  0
   19.6901   19.8896   23.4458 H   0  0  0  0  0  0  0  0  0  0  0  0
   21.1977   20.0495   22.5499 H   0  0  0  0  0  0  0  0  0  0  0  0
   19.5106   19.4420   21.3199 C   0  0  0  0  0  0  0  0  0  0  0  0
   18.6054   18.8290   21.4235 H   0  0  0  0  0  0  0  0  0  0  0  0
   20.1155   18.9791   20.5280 H   0  0  0  0  0  0  0  0  0  0  0  0
   19.0980   20.8717   20.8832 C   0  0  0  0  0  0  0  0  0  0  0  0
   18.4439   20.8119   20.0054 H   0  0  0  0  0  0  0  0  0  0  0  0
   18.5196   21.3583   21.6778 H   0  0  0  0  0  0  0  0  0  0  0  0
   20.2740   21.7719   20.5152 C   0  0  0  0  0  0  0  0  0  0  0  0
   20.8139   21.5979   19.4403 O   0  5  0  0  0  0  0  0  0  0  0  0
   20.6121   22.6301   21.3066 O   0  0  0  0  0  0  0  0  0  0  0  0
  1  2  1  0  0  0  0
  1  3  1  0  0  0  0
  1  4  2  0  0  0  0
  4  5  1  0  0  0  0
  4  6  1  0  0  0  0
  6  7  1  0  0  0  0
  6  8  1  0  0  0  0
  6  9  1  0  0  0  0
  9 10  1  0  0  0  0
  9 11  1  0  0  0  0
  9 12  1  0  0  0  0
 12 13  1  0  0  0  0
 12 14  1  0  0  0  0
 12 15  1  0  0  0  0
 15 16  1  0  0  0  0
 15 17  1  0  0  0  0
 15 18  1  0  0  0  0
 18 19  1  0  0  0  0
 18 20  2  0  0  0  0
M  END
> <VConfSearch Rank>
972

> <Conf_Id>
28

> <Delta U+W>
0.446

> <U+W>
-51.299

> <U>
9.295

> <W>
-60.594

> <W(PB)>
-62.806

> <W(SA)>
2.212

> <Valence>
9.495

> <Coulomb>
-0.610

> <VdW>
0.409

> <VdW6>
-7.332

> <VdW12>
7.741

> <Bond>
0.126

> <Angle>
2.497

> <Pdih>
6.872

> <Idih>
0.000

> <Tether>
0.000

$$$$
VeraChem MOL file


 20 19  0  0  0  0  0  0  0  0999 V2000     
   22.2154   20.9691   21.1096 C   0  0  0  0  0  0  0  0  0  0  0  0
   21.8234   21.4612   21.9971 H   0  0  0  0  0  0  0  0  0  0  0  0
   23.1440   21.3624   20.6995 H   0  0  0  0  0  0  0  0  0  0  0  0
   21.6028   19.9267   20.5367 C   0  0  0  0  0  0  0  0  0  0  0  0
   22.0456   19.4740   19.6499 H   0  0  0  0  0  0  0  0  0  0  0  0
   20.3087   19.2714   20.9898 C   0  0  0  0  0  0  0  0  0  0  0  0
   20.5229   18.2275   21.2527 H   0  0  0  0  0  0  0  0  0  0  0  0
   19.6187   19.2300   20.1366 H   0  0  0  0  0  0  0  0  0  0  0  0
   19.6016   19.9729   22.1757 C   0  0  0  0  0  0  0  0  0  0  0  0
   20.2493   19.9415   23.0626 H   0  0  0  0  0  0  0  0  0  0  0  0
   19.4570   21.0336   21.9292 H   0  0  0  0  0  0  0  0  0  0  0  0
   18.2196   19.3633   22.5188 C   0  0  0  0  0  0  0  0  0  0  0  0
   17.5613   19.4435   21.6432 H   0  0  0  0  0  0  0  0  0  0  0  0
   17.7538   19.9676   23.3095 H   0  0  0  0  0  0  0  0  0  0  0  0
   18.2664   17.8829   22.9866 C   0  0  0  0  0  0  0  0  0  0  0  0
   17.2475   17.5363   23.1948 H   0  0  0  0  0  0  0  0  0  0  0  0
   18.6565   17.2373   22.1917 H   0  0  0  0  0  0  0  0  0  0  0  0
   19.0897   17.6538   24.2510 C   0  0  0  0  0  0  0  0  0  0  0  0
   18.6478   18.0680   25.3049 O   0  5  0  0  0  0  0  0  0  0  0  0
   20.1396   17.0497   24.1530 O   0  0  0  0  0  0  0  0  0  0  0  0
  1  2  1  0  0  0  0
  1  3  1  0  0  0  0
  1  4  2  0  0  0  0
  4  5  1  0  0  0  0
  4  6  1  0  0  0  0
  6  7  1  0  0  0  0
  6  8  1  0  0  0  0
  6  9  1  0  0  0  0
  9 10  1  0  0  0  0
  9 11  1  0  0  0  0
  9 12  1  0  0  0  0
 12 13  1  0  0  0  0
 12 14  1  0  0  0  0
 12 15  1  0  0  0  0
 15 16  1  0  0  0  0
 15 17  1  0  0  0  0
 15 18  1  0  0  0  0
 18 19  1  0  0  0  0
 18 20  2  0  0  0  0
M  END
> <VConfSearch Rank>
973

> <Conf_Id>
53

> <Delta U+W>
0.549

> <U+W>
-51.197

> <U>
10.870

> <W>
-62.067

> <W(PB)>
-64.228

> <W(SA)>
2.161

> <Valence>
8.803

> <Coulomb>
1.020

> <VdW>
1.048

> <VdW6>
-8.312

> <VdW12>
9.360

> <Bond>
0.212

> <Angle>
3.379

> <Pdih>
5.211

> <Idih>
0.001

> <Tether>
0.000

$$$$
VeraChem MOL file


 20 19  0  0  0  0  0  0  0  0999 V2000     
   17.6951   20.7933   21.6143 C   0  0  0  0  0  0  0  0  0  0  0  0
   18.5380   21.4432   21.8389 H   0  0  0  0  0  0  0  0  0  0  0  0
   16.7027   21.1701   21.8553 H   0  0  0  0  0  0  0  0  0  0  0  0
   17.8543   19.5860   21.0613 C   0  0  0  0  0  0  0  0  0  0  0  0
   16.9757   18.9758   20.8540 H   0  0  0  0  0  0  0  0  0  0  0  0
   19.1739   18.9353   20.6805 C   0  0  0  0  0  0  0  0  0  0  0  0
   19.3382   19.0767   19.6042 H   0  0  0  0  0  0  0  0  0  0  0  0
   19.0866   17.8489   20.8091 H   0  0  0  0  0  0  0  0  0  0  0  0
   20.4222   19.4311   21.4562 C   0  0  0  0  0  0  0  0  0  0  0  0
   21.3114   18.9400   21.0379 H   0  0  0  0  0  0  0  0  0  0  0  0
   20.5643   20.5040   21.2718 H   0  0  0  0  0  0  0  0  0  0  0  0
   20.3811   19.1748   22.9858 C   0  0  0  0  0  0  0  0  0  0  0  0
   19.5383   19.7203   23.4292 H   0  0  0  0  0  0  0  0  0  0  0  0
   21.2889   19.5978   23.4375 H   0  0  0  0  0  0  0  0  0  0  0  0
   20.2784   17.6775   23.3857 C   0  0  0  0  0  0  0  0  0  0  0  0
   20.2508   17.5953   24.4784 H   0  0  0  0  0  0  0  0  0  0  0  0
   19.3410   17.2439   23.0192 H   0  0  0  0  0  0  0  0  0  0  0  0
   21.4405   16.8191   22.8948 C   0  0  0  0  0  0  0  0  0  0  0  0
   21.2332   16.0277   21.9959 O   0  5  0  0  0  0  0  0  0  0  0  0
   22.5199   16.9522   23.4377 O   0  0  0  0  0  0  0  0  0  0  0  0
  1  2  1  0  0  0  0
  1  3  1  0  0  0  0
  1  4  2  0  0  0  0
  4  5  1  0  0  0  0
  4  6  1  0  0  0  0
  6  7  1  0  0  0  0
  6  8  1  0  0  0  0
  6  9  1  0  0  0  0
  9 10  1  0  0  0  0
  9 11  1  0  0  0  0
  9 12  1  0  0  0  0
 12 13  1  0  0  0  0
 12 14  1  0  0  0  0
 12 15  1  0  0  0  0
 15 16  1  0  0  0  0
 15 17  1  0  0  0  0
 15 18  1  0  0  0  0
 18 19  1  0  0  0  0
 18 20  2  0  0  0  0
M  END
> <VConfSearch Rank>
974

> <Conf_Id>
66

> <Delta U+W>
1.737

> <U+W>
-50.008

> <U>
11.091

> <W>
-61.099

> <W(PB)>
-63.213

> <W(SA)>
2.114

> <Valence>
9.664

> <Coulomb>
0.658

> <VdW>
0.769

> <VdW6>
-9.171

> <VdW12>
9.940

> <Bond>
0.244

> <Angle>
3.658

> <Pdih>
5.762

> <Idih>
0.001

> <Tether>
0.000

$$$$
VeraChem MOL file


 20 19  0  0  0  0  0  0  0  0999 V2000     
   21.2692   20.7589   20.7258 C   0  0  0  0  0  0  0  0  0  0  0  0
   20.3044   21.1030   20.3599 H   0  0  0  0  0  0  0  0  0  0  0  0
   22.0346   21.5161   20.8869 H   0  0  0  0  0  0  0  0  0  0  0  0
   21.5217   19.4677   20.9663 C   0  0  0  0  0  0  0  0  0  0  0  0
   22.5072   19.1781   21.3300 H   0  0  0  0  0  0  0  0  0  0  0  0
   20.5530   18.3091   20.7931 C   0  0  0  0  0  0  0  0  0  0  0  0
   20.7537   17.5595   21.5686 H   0  0  0  0  0  0  0  0  0  0  0  0
   20.7807   17.8011   19.8467 H   0  0  0  0  0  0  0  0  0  0  0  0
   19.0458   18.6746   20.8240 C   0  0  0  0  0  0  0  0  0  0  0  0
   18.8253   19.3811   20.0129 H   0  0  0  0  0  0  0  0  0  0  0  0
   18.4605   17.7729   20.5982 H   0  0  0  0  0  0  0  0  0  0  0  0
   18.5496   19.2645   22.1688 C   0  0  0  0  0  0  0  0  0  0  0  0
   17.4991   19.5645   22.0526 H   0  0  0  0  0  0  0  0  0  0  0  0
   19.1054   20.1802   22.4100 H   0  0  0  0  0  0  0  0  0  0  0  0
   18.6545   18.2732   23.3567 C   0  0  0  0  0  0  0  0  0  0  0  0
   18.1468   17.3328   23.1119 H   0  0  0  0  0  0  0  0  0  0  0  0
   19.7031   18.0337   23.5663 H   0  0  0  0  0  0  0  0  0  0  0  0
   18.0385   18.8220   24.6388 C   0  0  0  0  0  0  0  0  0  0  0  0
   18.7562   19.4326   25.4062 O   0  5  0  0  0  0  0  0  0  0  0  0
   16.8527   18.6367   24.8298 O   0  0  0  0  0  0  0  0  0  0  0  0
  1  2  1  0  0  0  0
  1  3  1  0  0  0  0
  1  4  2  0  0  0  0
  4  5  1  0  0  0  0
  4  6  1  0  0  0  0
  6  7  1  0  0  0  0
  6  8  1  0  0  0  0
  6  9  1  0  0  0  0
  9 10  1  0  0  0  0
  9 11  1  0  0  0  0
  9 12  1  0  0  0  0
 12 13  1  0  0  0  0
 12 14  1  0  0  0  0
 12 15  1  0  0  0  0
 15 16  1  0  0  0  0
 15 17  1  0  0  0  0
 15 18  1  0  0  0  0
 18 19  1  0  0  0  0
 18 20  2  0  0  0  0
M  END
> <VConfSearch Rank>
975

> <Conf_Id>
64

> <Delta U+W>
0.366

> <U+W>
-51.379

> <U>
10.000

> <W>
-61.379

> <W(PB)>
-63.541

> <W(SA)>
2.162

> <Valence>
9.398

> <Coulomb>
-0.504

> <VdW>
1.105

> <VdW6>
-7.975

> <VdW12>
9.080

> <Bond>
0.216

> <Angle>
3.417

> <Pdih>
5.765

> <Idih>
0.001

> <Tether>
0.000

$$$$
VeraChem MOL file


 20 19  0  0  0  0  0  0  0  0999 V2000     
   22.1424   18.3406   20.1515 C   0  0  0  0  0  0  0  0  0  0  0  0
   21.7344   19.0553   19.4386 H   0  0  0  0  0  0  0  0  0  0  0  0
   22.5146   17.3965   19.7574 H   0  0  0  0  0  0  0  0  0  0  0  0
   22.1828   18.6063   21.4598 C   0  0  0  0  0  0  0  0  0  0  0  0
   22.5931   17.8762   22.1569 H   0  0  0  0  0  0  0  0  0  0  0  0
   21.6846   19.8940   22.0808 C   0  0  0  0  0  0  0  0  0  0  0  0
   21.4814   20.6443   21.3046 H   0  0  0  0  0  0  0  0  0  0  0  0
   22.4742   20.3139   22.7181 H   0  0  0  0  0  0  0  0  0  0  0  0
   20.4154   19.6794   22.9358 C   0  0  0  0  0  0  0  0  0  0  0  0
   20.6186   18.9285   23.7116 H   0  0  0  0  0  0  0  0  0  0  0  0
   20.1776   20.6158   23.4588 H   0  0  0  0  0  0  0  0  0  0  0  0
   19.1950   19.2444   22.0927 C   0  0  0  0  0  0  0  0  0  0  0  0
   19.4106   18.2941   21.5850 H   0  0  0  0  0  0  0  0  0  0  0  0
   19.0041   19.9882   21.3067 H   0  0  0  0  0  0  0  0  0  0  0  0
   17.9237   19.0792   22.9614 C   0  0  0  0  0  0  0  0  0  0  0  0
   18.0949   18.3299   23.7436 H   0  0  0  0  0  0  0  0  0  0  0  0
   17.6827   20.0237   23.4638 H   0  0  0  0  0  0  0  0  0  0  0  0
   16.7054   18.6498   22.1519 C   0  0  0  0  0  0  0  0  0  0  0  0
   16.0148   19.5158   21.6520 O   0  5  0  0  0  0  0  0  0  0  0  0
   16.4868   17.4606   22.0308 O   0  0  0  0  0  0  0  0  0  0  0  0
  1  2  1  0  0  0  0
  1  3  1  0  0  0  0
  1  4  2  0  0  0  0
  4  5  1  0  0  0  0
  4  6  1  0  0  0  0
  6  7  1  0  0  0  0
  6  8  1  0  0  0  0
  6  9  1  0  0  0  0
  9 10  1  0  0  0  0
  9 11  1  0  0  0  0
  9 12  1  0  0  0  0
 12 13  1  0  0  0  0
 12 14  1  0  0  0  0
 12 15  1  0  0  0  0
 15 16  1  0  0  0  0
 15 17  1  0  0  0  0
 15 18  1  0  0  0  0
 18 19  1  0  0  0  0
 18 20  2  0  0  0  0
M  END
> <VConfSearch Rank>
976

> <Conf_Id>
42

> <Delta U+W>
-0.601

> <U+W>
-52.347

> <U>
8.428

> <W>
-60.774

> <W(PB)>
-62.982

> <W(SA)>
2.208

> <Valence>
9.231

> <Coulomb>
-1.304

> <VdW>
0.501

> <VdW6>
-6.515

> <VdW12>
7.016

> <Bond>
0.103

> <Angle>
2.328

> <Pdih>
6.799

> <Idih>
0.000

> <Tether>
0.000

$$$$
VeraChem MOL file


 20 19  0  0  0  0  0  0  0  0999 V2000     
   22.0212   17.7599   23.2621 C   0  0  0  0  0  0  0  0  0  0  0  0
   22.1596   18.4773   24.0693 H   0  0  0  0  0  0  0  0  0  0  0  0
   22.9154   17.3241   22.8199 H   0  0  0  0  0  0  0  0  0  0  0  0
   20.8033   17.4277   22.8256 C   0  0  0  0  0  0  0  0  0  0  0  0
   20.6866   16.7096   22.0144 H   0  0  0  0  0  0  0  0  0  0  0  0
   19.5161   17.9916   23.3887 C   0  0  0  0  0  0  0  0  0  0  0  0
   19.7102   18.5463   24.3168 H   0  0  0  0  0  0  0  0  0  0  0  0
   18.8483   17.1623   23.6575 H   0  0  0  0  0  0  0  0  0  0  0  0
   18.7890   18.9099   22.3807 C   0  0  0  0  0  0  0  0  0  0  0  0
   18.5899   18.3511   21.4559 H   0  0  0  0  0  0  0  0  0  0  0  0
   17.8104   19.1879   22.7950 H   0  0  0  0  0  0  0  0  0  0  0  0
   19.5888   20.1946   22.0594 C   0  0  0  0  0  0  0  0  0  0  0  0
   20.5541   19.9320   21.6050 H   0  0  0  0  0  0  0  0  0  0  0  0
   19.8145   20.7236   22.9950 H   0  0  0  0  0  0  0  0  0  0  0  0
   18.8221   21.1522   21.1107 C   0  0  0  0  0  0  0  0  0  0  0  0
   17.8444   21.4066   21.5376 H   0  0  0  0  0  0  0  0  0  0  0  0
   19.3787   22.0913   21.0102 H   0  0  0  0  0  0  0  0  0  0  0  0
   18.6096   20.5941   19.7064 C   0  0  0  0  0  0  0  0  0  0  0  0
   17.5093   20.1665   19.4171 O   0  5  0  0  0  0  0  0  0  0  0  0
   19.5465   20.6190   18.9326 O   0  0  0  0  0  0  0  0  0  0  0  0
  1  2  1  0  0  0  0
  1  3  1  0  0  0  0
  1  4  2  0  0  0  0
  4  5  1  0  0  0  0
  4  6  1  0  0  0  0
  6  7  1  0  0  0  0
  6  8  1  0  0  0  0
  6  9  1  0  0  0  0
  9 10  1  0  0  0  0
  9 11  1  0  0  0  0
  9 12  1  0  0  0  0
 12 13  1  0  0  0  0
 12 14  1  0  0  0  0
 12 15  1  0  0  0  0
 15 16  1  0  0  0  0
 15 17  1  0  0  0  0
 15 18  1  0  0  0  0
 18 19  1  0  0  0  0
 18 20  2  0  0  0  0
M  END
> <VConfSearch Rank>
977

> <Conf_Id>
68

> <Delta U+W>
0.492

> <U+W>
-51.253

> <U>
10.179

> <W>
-61.432

> <W(PB)>
-63.627

> <W(SA)>
2.195

> <Valence>
9.483

> <Coulomb>
0.361

> <VdW>
0.335

> <VdW6>
-7.385

> <VdW12>
7.720

> <Bond>
0.125

> <Angle>
2.487

> <Pdih>
6.870

> <Idih>
0.001

> <Tether>
0.000

$$$$
VeraChem MOL file


 20 19  0  0  0  0  0  0  0  0999 V2000     
   16.5784   18.5412   21.6388 C   0  0  0  0  0  0  0  0  0  0  0  0
   16.6247   17.6941   20.9562 H   0  0  0  0  0  0  0  0  0  0  0  0
   15.7225   19.2083   21.5520 H   0  0  0  0  0  0  0  0  0  0  0  0
   17.5339   18.7588   22.5461 C   0  0  0  0  0  0  0  0  0  0  0  0
   17.4664   19.6112   23.2214 H   0  0  0  0  0  0  0  0  0  0  0  0
   18.7475   17.8723   22.7283 C   0  0  0  0  0  0  0  0  0  0  0  0
   18.5607   16.8903   22.2729 H   0  0  0  0  0  0  0  0  0  0  0  0
   18.9188   17.6877   23.7972 H   0  0  0  0  0  0  0  0  0  0  0  0
   20.0192   18.4786   22.0932 C   0  0  0  0  0  0  0  0  0  0  0  0
   20.8280   17.7369   22.1427 H   0  0  0  0  0  0  0  0  0  0  0  0
   19.8363   18.6712   21.0268 H   0  0  0  0  0  0  0  0  0  0  0  0
   20.4797   19.7792   22.7933 C   0  0  0  0  0  0  0  0  0  0  0  0
   20.6114   19.5860   23.8664 H   0  0  0  0  0  0  0  0  0  0  0  0
   19.7027   20.5506   22.7031 H   0  0  0  0  0  0  0  0  0  0  0  0
   21.8093   20.3279   22.2139 C   0  0  0  0  0  0  0  0  0  0  0  0
   22.1490   21.1776   22.8177 H   0  0  0  0  0  0  0  0  0  0  0  0
   22.5932   19.5631   22.2730 H   0  0  0  0  0  0  0  0  0  0  0  0
   21.7047   20.8069   20.7688 C   0  0  0  0  0  0  0  0  0  0  0  0
   21.1910   21.8885   20.5602 O   0  5  0  0  0  0  0  0  0  0  0  0
   22.1563   20.0962   19.8924 O   0  0  0  0  0  0  0  0  0  0  0  0
  1  2  1  0  0  0  0
  1  3  1  0  0  0  0
  1  4  2  0  0  0  0
  4  5  1  0  0  0  0
  4  6  1  0  0  0  0
  6  7  1  0  0  0  0
  6  8  1  0  0  0  0
  6  9  1  0  0  0  0
  9 10  1  0  0  0  0
  9 11  1  0  0  0  0
  9 12  1  0  0  0  0
 12 13  1  0  0  0  0
 12 14  1  0  0  0  0
 12 15  1  0  0  0  0
 15 16  1  0  0  0  0
 15 17  1  0  0  0  0
 15 18  1  0  0  0  0
 18 19  1  0  0  0  0
 18 20  2  0  0  0  0
M  END
> <VConfSearch Rank>
978

> <Conf_Id>
87

> <Delta U+W>
0.339

> <U+W>
-51.407

> <U>
10.461

> <W>
-61.867

> <W(PB)>
-64.045

> <W(SA)>
2.178

> <Valence>
9.555

> <Coulomb>
0.483

> <VdW>
0.423

> <VdW6>
-7.223

> <VdW12>
7.646

> <Bond>
0.126

> <Angle>
2.492

> <Pdih>
6.936

> <Idih>
0.001

> <Tether>
0.000

$$$$
VeraChem MOL file


 20 19  0  0  0  0  0  0  0  0999 V2000     
   19.6908   18.3832   24.7353 C   0  0  0  0  0  0  0  0  0  0  0  0
   20.5880   18.9114   25.0539 H   0  0  0  0  0  0  0  0  0  0  0  0
   18.8503   18.3585   25.4266 H   0  0  0  0  0  0  0  0  0  0  0  0
   19.6210   17.7895   23.5410 C   0  0  0  0  0  0  0  0  0  0  0  0
   18.7177   17.2580   23.2437 H   0  0  0  0  0  0  0  0  0  0  0  0
   20.7537   17.7734   22.5368 C   0  0  0  0  0  0  0  0  0  0  0  0
   20.6071   16.9625   21.8109 H   0  0  0  0  0  0  0  0  0  0  0  0
   21.6851   17.5335   23.0671 H   0  0  0  0  0  0  0  0  0  0  0  0
   20.9438   19.1202   21.7959 C   0  0  0  0  0  0  0  0  0  0  0  0
   20.9030   19.9522   22.5122 H   0  0  0  0  0  0  0  0  0  0  0  0
   21.9591   19.1337   21.3765 H   0  0  0  0  0  0  0  0  0  0  0  0
   19.9516   19.3706   20.6323 C   0  0  0  0  0  0  0  0  0  0  0  0
   19.9851   18.5302   19.9254 H   0  0  0  0  0  0  0  0  0  0  0  0
   20.2907   20.2547   20.0748 H   0  0  0  0  0  0  0  0  0  0  0  0
   18.4880   19.6104   21.0836 C   0  0  0  0  0  0  0  0  0  0  0  0
   18.0631   18.6975   21.5126 H   0  0  0  0  0  0  0  0  0  0  0  0
   18.4518   20.3846   21.8592 H   0  0  0  0  0  0  0  0  0  0  0  0
   17.5810   20.0440   19.9377 C   0  0  0  0  0  0  0  0  0  0  0  0
   17.0307   19.1808   19.2828 O   0  5  0  0  0  0  0  0  0  0  0  0
   17.4648   21.2333   19.7164 O   0  0  0  0  0  0  0  0  0  0  0  0
  1  2  1  0  0  0  0
  1  3  1  0  0  0  0
  1  4  2  0  0  0  0
  4  5  1  0  0  0  0
  4  6  1  0  0  0  0
  6  7  1  0  0  0  0
  6  8  1  0  0  0  0
  6  9  1  0  0  0  0
  9 10  1  0  0  0  0
  9 11  1  0  0  0  0
  9 12  1  0  0  0  0
 12 13  1  0  0  0  0
 12 14  1  0  0  0  0
 12 15  1  0  0  0  0
 15 16  1  0  0  0  0
 15 17  1  0  0  0  0
 15 18  1  0  0  0  0
 18 19  1  0  0  0  0
 18 20  2  0  0  0  0
M  END
> <VConfSearch Rank>
979

> <Conf_Id>
51

> <Delta U+W>
1.709

> <U+W>
-50.036

> <U>
10.643

> <W>
-60.679

> <W(PB)>
-62.882

> <W(SA)>
2.203

> <Valence>
11.231

> <Coulomb>
-1.077

> <VdW>
0.489

> <VdW6>
-7.546

> <VdW12>
8.035

> <Bond>
0.159

> <Angle>
3.005

> <Pdih>
8.065

> <Idih>
0.002

> <Tether>
0.000

$$$$
VeraChem MOL file


 20 19  0  0  0  0  0  0  0  0999 V2000     
   19.8733   18.0600   24.5753 C   0  0  0  0  0  0  0  0  0  0  0  0
   18.9985   18.4565   25.0879 H   0  0  0  0  0  0  0  0  0  0  0  0
   20.7933   17.9679   25.1499 H   0  0  0  0  0  0  0  0  0  0  0  0
   19.8229   17.7021   23.2895 C   0  0  0  0  0  0  0  0  0  0  0  0
   20.7067   17.2990   22.7964 H   0  0  0  0  0  0  0  0  0  0  0  0
   18.5766   17.7913   22.4350 C   0  0  0  0  0  0  0  0  0  0  0  0
   17.7307   17.3924   23.0110 H   0  0  0  0  0  0  0  0  0  0  0  0
   18.6710   17.1405   21.5555 H   0  0  0  0  0  0  0  0  0  0  0  0
   18.2312   19.2347   21.9918 C   0  0  0  0  0  0  0  0  0  0  0  0
   17.1725   19.2531   21.6992 H   0  0  0  0  0  0  0  0  0  0  0  0
   18.3196   19.9210   22.8451 H   0  0  0  0  0  0  0  0  0  0  0  0
   19.0589   19.7652   20.7941 C   0  0  0  0  0  0  0  0  0  0  0  0
   18.6109   20.7105   20.4577 H   0  0  0  0  0  0  0  0  0  0  0  0
   18.9794   19.0693   19.9476 H   0  0  0  0  0  0  0  0  0  0  0  0
   20.5535   20.0213   21.1162 C   0  0  0  0  0  0  0  0  0  0  0  0
   20.6473   20.6397   22.0168 H   0  0  0  0  0  0  0  0  0  0  0  0
   21.0722   19.0775   21.3120 H   0  0  0  0  0  0  0  0  0  0  0  0
   21.2899   20.7223   19.9804 C   0  0  0  0  0  0  0  0  0  0  0  0
   21.7971   20.0362   19.1151 O   0  5  0  0  0  0  0  0  0  0  0  0
   21.3198   21.9372   19.9795 O   0  0  0  0  0  0  0  0  0  0  0  0
  1  2  1  0  0  0  0
  1  3  1  0  0  0  0
  1  4  2  0  0  0  0
  4  5  1  0  0  0  0
  4  6  1  0  0  0  0
  6  7  1  0  0  0  0
  6  8  1  0  0  0  0
  6  9  1  0  0  0  0
  9 10  1  0  0  0  0
  9 11  1  0  0  0  0
  9 12  1  0  0  0  0
 12 13  1  0  0  0  0
 12 14  1  0  0  0  0
 12 15  1  0  0  0  0
 15 16  1  0  0  0  0
 15 17  1  0  0  0  0
 15 18  1  0  0  0  0
 18 19  1  0  0  0  0
 18 20  2  0  0  0  0
M  END
> <VConfSearch Rank>
980

> <Conf_Id>
91

> <Delta U+W>
1.604

> <U+W>
-50.141

> <U>
10.644

> <W>
-60.786

> <W(PB)>
-62.965

> <W(SA)>
2.179

> <Valence>
11.230

> <Coulomb>
-1.075

> <VdW>
0.489

> <VdW6>
-7.547

> <VdW12>
8.036

> <Bond>
0.159

> <Angle>
3.006

> <Pdih>
8.064

> <Idih>
0.002

> <Tether>
0.000

$$$$
VeraChem MOL file


 20 19  0  0  0  0  0  0  0  0999 V2000     
   19.2644   16.3704   24.4027 C   0  0  0  0  0  0  0  0  0  0  0  0
   18.1964   16.4462   24.2044 H   0  0  0  0  0  0  0  0  0  0  0  0
   19.5680   15.9197   25.3460 H   0  0  0  0  0  0  0  0  0  0  0  0
   20.1698   16.8141   23.5268 C   0  0  0  0  0  0  0  0  0  0  0  0
   21.2342   16.7295   23.7449 H   0  0  0  0  0  0  0  0  0  0  0  0
   19.8239   17.4494   22.1985 C   0  0  0  0  0  0  0  0  0  0  0  0
   18.7712   17.2593   21.9486 H   0  0  0  0  0  0  0  0  0  0  0  0
   20.4254   16.9890   21.4033 H   0  0  0  0  0  0  0  0  0  0  0  0
   20.0790   18.9709   22.2254 C   0  0  0  0  0  0  0  0  0  0  0  0
   19.4783   19.4259   23.0251 H   0  0  0  0  0  0  0  0  0  0  0  0
   21.1330   19.1605   22.4708 H   0  0  0  0  0  0  0  0  0  0  0  0
   19.7335   19.6356   20.8748 C   0  0  0  0  0  0  0  0  0  0  0  0
   18.6793   19.4469   20.6289 H   0  0  0  0  0  0  0  0  0  0  0  0
   20.3331   19.1802   20.0744 H   0  0  0  0  0  0  0  0  0  0  0  0
   19.9895   21.1660   20.9026 C   0  0  0  0  0  0  0  0  0  0  0  0
   19.3892   21.6279   21.6952 H   0  0  0  0  0  0  0  0  0  0  0  0
   21.0415   21.3616   21.1412 H   0  0  0  0  0  0  0  0  0  0  0  0
   19.6722   21.9042   19.6012 C   0  0  0  0  0  0  0  0  0  0  0  0
   19.8613   23.1042   19.5842 O   0  5  0  0  0  0  0  0  0  0  0  0
   19.2498   21.2844   18.6440 O   0  0  0  0  0  0  0  0  0  0  0  0
  1  2  1  0  0  0  0
  1  3  1  0  0  0  0
  1  4  2  0  0  0  0
  4  5  1  0  0  0  0
  4  6  1  0  0  0  0
  6  7  1  0  0  0  0
  6  8  1  0  0  0  0
  6  9  1  0  0  0  0
  9 10  1  0  0  0  0
  9 11  1  0  0  0  0
  9 12  1  0  0  0  0
 12 13  1  0  0  0  0
 12 14  1  0  0  0  0
 12 15  1  0  0  0  0
 15 16  1  0  0  0  0
 15 17  1  0  0  0  0
 15 18  1  0  0  0  0
 18 19  1  0  0  0  0
 18 20  2  0  0  0  0
M  END
> <VConfSearch Rank>
981

> <Conf_Id>
33

> <Delta U+W>
0.000

> <U+W>
-51.745

> <U>
7.593

> <W>
-59.338

> <W(PB)>
-61.574

> <W(SA)>
2.236

> <Valence>
9.570

> <Coulomb>
-3.091

> <VdW>
1.114

> <VdW6>
-6.064

> <VdW12>
7.178

> <Bond>
0.117

> <Angle>
2.692

> <Pdih>
6.761

> <Idih>
0.000

> <Tether>
0.000

$$$$
VeraChem MOL file


 20 19  0  0  0  0  0  0  0  0999 V2000     
   19.9738   15.8143   23.5525 C   0  0  0  0  0  0  0  0  0  0  0  0
   20.0649   16.3247   24.5100 H   0  0  0  0  0  0  0  0  0  0  0  0
   20.1700   14.7436   23.5350 H   0  0  0  0  0  0  0  0  0  0  0  0
   19.6374   16.4726   22.4402 C   0  0  0  0  0  0  0  0  0  0  0  0
   19.5525   15.9430   21.4916 H   0  0  0  0  0  0  0  0  0  0  0  0
   19.3499   17.9566   22.3874 C   0  0  0  0  0  0  0  0  0  0  0  0
   19.2058   18.3517   23.4021 H   0  0  0  0  0  0  0  0  0  0  0  0
   18.4099   18.1220   21.8459 H   0  0  0  0  0  0  0  0  0  0  0  0
   20.5017   18.7206   21.6965 C   0  0  0  0  0  0  0  0  0  0  0  0
   21.4444   18.4729   22.2037 H   0  0  0  0  0  0  0  0  0  0  0  0
   20.6067   18.3724   20.6598 H   0  0  0  0  0  0  0  0  0  0  0  0
   20.3211   20.2572   21.7139 C   0  0  0  0  0  0  0  0  0  0  0  0
   21.2297   20.7233   21.3081 H   0  0  0  0  0  0  0  0  0  0  0  0
   20.2293   20.6086   22.7509 H   0  0  0  0  0  0  0  0  0  0  0  0
   19.1007   20.7463   20.8914 C   0  0  0  0  0  0  0  0  0  0  0  0
   19.1593   20.3661   19.8646 H   0  0  0  0  0  0  0  0  0  0  0  0
   18.1668   20.3713   21.3249 H   0  0  0  0  0  0  0  0  0  0  0  0
   19.0044   22.2664   20.8278 C   0  0  0  0  0  0  0  0  0  0  0  0
   18.3846   22.8392   21.7022 O   0  5  0  0  0  0  0  0  0  0  0  0
   19.5683   22.8393   19.9165 O   0  0  0  0  0  0  0  0  0  0  0  0
  1  2  1  0  0  0  0
  1  3  1  0  0  0  0
  1  4  2  0  0  0  0
  4  5  1  0  0  0  0
  4  6  1  0  0  0  0
  6  7  1  0  0  0  0
  6  8  1  0  0  0  0
  6  9  1  0  0  0  0
  9 10  1  0  0  0  0
  9 11  1  0  0  0  0
  9 12  1  0  0  0  0
 12 13  1  0  0  0  0
 12 14  1  0  0  0  0
 12 15  1  0  0  0  0
 15 16  1  0  0  0  0
 15 17  1  0  0  0  0
 15 18  1  0  0  0  0
 18 19  1  0  0  0  0
 18 20  2  0  0  0  0
M  END
> <VConfSearch Rank>
982

> <Conf_Id>
37

> <Delta U+W>
-0.384

> <U+W>
-52.130

> <U>
7.491

> <W>
-59.621

> <W(PB)>
-61.853

> <W(SA)>
2.232

> <Valence>
9.604

> <Coulomb>
-2.799

> <VdW>
0.686

> <VdW6>
-6.435

> <VdW12>
7.121

> <Bond>
0.124

> <Angle>
2.493

> <Pdih>
6.986

> <Idih>
0.001

> <Tether>
0.000

$$$$
VeraChem MOL file


 20 19  0  0  0  0  0  0  0  0999 V2000     
   23.0543   18.7039   22.5667 C   0  0  0  0  0  0  0  0  0  0  0  0
   24.1134   18.6093   22.8004 H   0  0  0  0  0  0  0  0  0  0  0  0
   22.7473   18.4286   21.5600 H   0  0  0  0  0  0  0  0  0  0  0  0
   22.1877   19.1402   23.4879 C   0  0  0  0  0  0  0  0  0  0  0  0
   22.5557   19.4012   24.4799 H   0  0  0  0  0  0  0  0  0  0  0  0
   20.6897   19.3239   23.3111 C   0  0  0  0  0  0  0  0  0  0  0  0
   20.4332   20.3677   23.5363 H   0  0  0  0  0  0  0  0  0  0  0  0
   20.1688   18.7213   24.0673 H   0  0  0  0  0  0  0  0  0  0  0  0
   20.1466   18.9592   21.9097 C   0  0  0  0  0  0  0  0  0  0  0  0
   20.6490   19.5736   21.1501 H   0  0  0  0  0  0  0  0  0  0  0  0
   20.3817   17.9094   21.6868 H   0  0  0  0  0  0  0  0  0  0  0  0
   18.6202   19.1735   21.8140 C   0  0  0  0  0  0  0  0  0  0  0  0
   18.3783   20.2221   22.0361 H   0  0  0  0  0  0  0  0  0  0  0  0
   18.1115   18.5613   22.5717 H   0  0  0  0  0  0  0  0  0  0  0  0
   18.0738   18.8089   20.4116 C   0  0  0  0  0  0  0  0  0  0  0  0
   18.5622   19.4212   19.6439 H   0  0  0  0  0  0  0  0  0  0  0  0
   18.2955   17.7603   20.1795 H   0  0  0  0  0  0  0  0  0  0  0  0
   16.5677   19.0121   20.2919 C   0  0  0  0  0  0  0  0  0  0  0  0
   16.1626   20.0996   19.9316 O   0  5  0  0  0  0  0  0  0  0  0  0
   15.8389   18.0838   20.5812 O   0  0  0  0  0  0  0  0  0  0  0  0
  1  2  1  0  0  0  0
  1  3  1  0  0  0  0
  1  4  2  0  0  0  0
  4  5  1  0  0  0  0
  4  6  1  0  0  0  0
  6  7  1  0  0  0  0
  6  8  1  0  0  0  0
  6  9  1  0  0  0  0
  9 10  1  0  0  0  0
  9 11  1  0  0  0  0
  9 12  1  0  0  0  0
 12 13  1  0  0  0  0
 12 14  1  0  0  0  0
 12 15  1  0  0  0  0
 15 16  1  0  0  0  0
 15 17  1  0  0  0  0
 15 18  1  0  0  0  0
 18 19  1  0  0  0  0
 18 20  2  0  0  0  0
M  END
> <VConfSearch Rank>
983

> <Conf_Id>
44

> <Delta U+W>
-1.440

> <U+W>
-53.185

> <U>
6.572

> <W>
-59.757

> <W(PB)>
-62.007

> <W(SA)>
2.249

> <Valence>
7.989

> <Coulomb>
-2.697

> <VdW>
1.281

> <VdW6>
-6.467

> <VdW12>
7.748

> <Bond>
0.136

> <Angle>
2.854

> <Pdih>
4.997

> <Idih>
0.001

> <Tether>
0.000

$$$$
VeraChem MOL file


 20 19  0  0  0  0  0  0  0  0999 V2000     
   23.0000   19.2274   23.2212 C   0  0  0  0  0  0  0  0  0  0  0  0
   22.6972   18.2649   23.6305 H   0  0  0  0  0  0  0  0  0  0  0  0
   23.8993   19.6850   23.6301 H   0  0  0  0  0  0  0  0  0  0  0  0
   22.2973   19.8278   22.2572 C   0  0  0  0  0  0  0  0  0  0  0  0
   22.6174   20.7915   21.8617 H   0  0  0  0  0  0  0  0  0  0  0  0
   21.0412   19.2535   21.6405 C   0  0  0  0  0  0  0  0  0  0  0  0
   20.9536   18.1896   21.8955 H   0  0  0  0  0  0  0  0  0  0  0  0
   21.1100   19.3129   20.5461 H   0  0  0  0  0  0  0  0  0  0  0  0
   19.7870   20.0163   22.1231 C   0  0  0  0  0  0  0  0  0  0  0  0
   19.6889   19.9105   23.2124 H   0  0  0  0  0  0  0  0  0  0  0  0
   19.9257   21.0885   21.9273 H   0  0  0  0  0  0  0  0  0  0  0  0
   18.4803   19.5547   21.4349 C   0  0  0  0  0  0  0  0  0  0  0  0
   18.5733   19.6691   20.3460 H   0  0  0  0  0  0  0  0  0  0  0  0
   17.6636   20.2201   21.7477 H   0  0  0  0  0  0  0  0  0  0  0  0
   18.0869   18.0926   21.7704 C   0  0  0  0  0  0  0  0  0  0  0  0
   18.8390   17.3926   21.3895 H   0  0  0  0  0  0  0  0  0  0  0  0
   18.0339   17.9547   22.8569 H   0  0  0  0  0  0  0  0  0  0  0  0
   16.7406   17.6938   21.1769 C   0  0  0  0  0  0  0  0  0  0  0  0
   15.7418   17.8813   21.8433 O   0  5  0  0  0  0  0  0  0  0  0  0
   16.7239   17.2247   20.0560 O   0  0  0  0  0  0  0  0  0  0  0  0
  1  2  1  0  0  0  0
  1  3  1  0  0  0  0
  1  4  2  0  0  0  0
  4  5  1  0  0  0  0
  4  6  1  0  0  0  0
  6  7  1  0  0  0  0
  6  8  1  0  0  0  0
  6  9  1  0  0  0  0
  9 10  1  0  0  0  0
  9 11  1  0  0  0  0
  9 12  1  0  0  0  0
 12 13  1  0  0  0  0
 12 14  1  0  0  0  0
 12 15  1  0  0  0  0
 15 16  1  0  0  0  0
 15 17  1  0  0  0  0
 15 18  1  0  0  0  0
 18 19  1  0  0  0  0
 18 20  2  0  0  0  0
M  END
> <VConfSearch Rank>
984

> <Conf_Id>
38

> <Delta U+W>
-0.381

> <U+W>
-52.126

> <U>
7.601

> <W>
-59.727

> <W(PB)>
-61.964

> <W(SA)>
2.236

> <Valence>
9.602

> <Coulomb>
-2.686

> <VdW>
0.685

> <VdW6>
-6.453

> <VdW12>
7.139

> <Bond>
0.125

> <Angle>
2.485

> <Pdih>
6.991

> <Idih>
0.001

> <Tether>
0.000

$$$$
VeraChem MOL file


 20 19  0  0  0  0  0  0  0  0999 V2000     
   20.9078   17.0708   19.4662 C   0  0  0  0  0  0  0  0  0  0  0  0
   19.9023   16.8260   19.1277 H   0  0  0  0  0  0  0  0  0  0  0  0
   21.7238   16.9229   18.7608 H   0  0  0  0  0  0  0  0  0  0  0  0
   21.1356   17.5368   20.6969 C   0  0  0  0  0  0  0  0  0  0  0  0
   22.1497   17.7767   21.0157 H   0  0  0  0  0  0  0  0  0  0  0  0
   20.0549   17.7670   21.7297 C   0  0  0  0  0  0  0  0  0  0  0  0
   20.3567   17.3154   22.6842 H   0  0  0  0  0  0  0  0  0  0  0  0
   19.1247   17.2688   21.4243 H   0  0  0  0  0  0  0  0  0  0  0  0
   19.7892   19.2735   21.9319 C   0  0  0  0  0  0  0  0  0  0  0  0
   20.7205   19.7690   22.2396 H   0  0  0  0  0  0  0  0  0  0  0  0
   19.4922   19.7227   20.9741 H   0  0  0  0  0  0  0  0  0  0  0  0
   18.6888   19.5266   22.9871 C   0  0  0  0  0  0  0  0  0  0  0  0
   18.9875   19.0877   23.9492 H   0  0  0  0  0  0  0  0  0  0  0  0
   17.7670   19.0150   22.6788 H   0  0  0  0  0  0  0  0  0  0  0  0
   18.3858   21.0348   23.1826 C   0  0  0  0  0  0  0  0  0  0  0  0
   18.1128   21.4939   22.2247 H   0  0  0  0  0  0  0  0  0  0  0  0
   17.5226   21.1520   23.8483 H   0  0  0  0  0  0  0  0  0  0  0  0
   19.5410   21.8256   23.7902 C   0  0  0  0  0  0  0  0  0  0  0  0
   20.1891   22.5505   23.0611 O   0  5  0  0  0  0  0  0  0  0  0  0
   19.7547   21.7035   24.9803 O   0  0  0  0  0  0  0  0  0  0  0  0
  1  2  1  0  0  0  0
  1  3  1  0  0  0  0
  1  4  2  0  0  0  0
  4  5  1  0  0  0  0
  4  6  1  0  0  0  0
  6  7  1  0  0  0  0
  6  8  1  0  0  0  0
  6  9  1  0  0  0  0
  9 10  1  0  0  0  0
  9 11  1  0  0  0  0
  9 12  1  0  0  0  0
 12 13  1  0  0  0  0
 12 14  1  0  0  0  0
 12 15  1  0  0  0  0
 15 16  1  0  0  0  0
 15 17  1  0  0  0  0
 15 18  1  0  0  0  0
 18 19  1  0  0  0  0
 18 20  2  0  0  0  0
M  END
> <VConfSearch Rank>
985

> <Conf_Id>
58

> <Delta U+W>
0.019

> <U+W>
-51.727

> <U>
8.963

> <W>
-60.690

> <W(PB)>
-62.934

> <W(SA)>
2.244

> <Valence>
9.327

> <Coulomb>
-0.780

> <VdW>
0.417

> <VdW6>
-6.635

> <VdW12>
7.052

> <Bond>
0.105

> <Angle>
2.399

> <Pdih>
6.822

> <Idih>
0.000

> <Tether>
0.000

$$$$
VeraChem MOL file


 20 19  0  0  0  0  0  0  0  0999 V2000     
   17.3131   21.8278   21.7974 C   0  0  0  0  0  0  0  0  0  0  0  0
   17.7992   22.2797   20.9342 H   0  0  0  0  0  0  0  0  0  0  0  0
   16.6497   22.4591   22.3861 H   0  0  0  0  0  0  0  0  0  0  0  0
   17.5219   20.5503   22.1262 C   0  0  0  0  0  0  0  0  0  0  0  0
   17.0262   20.1175   22.9949 H   0  0  0  0  0  0  0  0  0  0  0  0
   18.4272   19.6140   21.3573 C   0  0  0  0  0  0  0  0  0  0  0  0
   18.6746   20.0439   20.3771 H   0  0  0  0  0  0  0  0  0  0  0  0
   17.9007   18.6697   21.1646 H   0  0  0  0  0  0  0  0  0  0  0  0
   19.7278   19.3307   22.1378 C   0  0  0  0  0  0  0  0  0  0  0  0
   20.2493   20.2780   22.3328 H   0  0  0  0  0  0  0  0  0  0  0  0
   19.4778   18.8987   23.1167 H   0  0  0  0  0  0  0  0  0  0  0  0
   20.6636   18.3724   21.3668 C   0  0  0  0  0  0  0  0  0  0  0  0
   20.8952   18.8051   20.3841 H   0  0  0  0  0  0  0  0  0  0  0  0
   20.1487   17.4198   21.1795 H   0  0  0  0  0  0  0  0  0  0  0  0
   21.9904   18.0992   22.1217 C   0  0  0  0  0  0  0  0  0  0  0  0
   22.6621   17.5142   21.4824 H   0  0  0  0  0  0  0  0  0  0  0  0
   22.5032   19.0436   22.3408 H   0  0  0  0  0  0  0  0  0  0  0  0
   21.8141   17.3266   23.4258 C   0  0  0  0  0  0  0  0  0  0  0  0
   21.5943   16.1332   23.3588 O   0  5  0  0  0  0  0  0  0  0  0  0
   21.9120   17.9349   24.4734 O   0  0  0  0  0  0  0  0  0  0  0  0
  1  2  1  0  0  0  0
  1  3  1  0  0  0  0
  1  4  2  0  0  0  0
  4  5  1  0  0  0  0
  4  6  1  0  0  0  0
  6  7  1  0  0  0  0
  6  8  1  0  0  0  0
  6  9  1  0  0  0  0
  9 10  1  0  0  0  0
  9 11  1  0  0  0  0
  9 12  1  0  0  0  0
 12 13  1  0  0  0  0
 12 14  1  0  0  0  0
 12 15  1  0  0  0  0
 15 16  1  0  0  0  0
 15 17  1  0  0  0  0
 15 18  1  0  0  0  0
 18 19  1  0  0  0  0
 18 20  2  0  0  0  0
M  END
> <VConfSearch Rank>
986

> <Conf_Id>
54

> <Delta U+W>
-0.048

> <U+W>
-51.793

> <U>
8.964

> <W>
-60.756

> <W(PB)>
-63.007

> <W(SA)>
2.251

> <Valence>
9.327

> <Coulomb>
-0.780

> <VdW>
0.417

> <VdW6>
-6.635

> <VdW12>
7.052

> <Bond>
0.105

> <Angle>
2.399

> <Pdih>
6.822

> <Idih>
0.000

> <Tether>
0.000

$$$$
VeraChem MOL file


 20 19  0  0  0  0  0  0  0  0999 V2000     
   22.8121   20.0471   23.1263 C   0  0  0  0  0  0  0  0  0  0  0  0
   23.6728   20.5128   22.6494 H   0  0  0  0  0  0  0  0  0  0  0  0
   22.5772   20.3523   24.1447 H   0  0  0  0  0  0  0  0  0  0  0  0
   22.0738   19.1392   22.4826 C   0  0  0  0  0  0  0  0  0  0  0  0
   22.3285   18.8454   21.4647 H   0  0  0  0  0  0  0  0  0  0  0  0
   20.8696   18.4458   23.0835 C   0  0  0  0  0  0  0  0  0  0  0  0
   20.9094   18.5183   24.1788 H   0  0  0  0  0  0  0  0  0  0  0  0
   20.8972   17.3741   22.8455 H   0  0  0  0  0  0  0  0  0  0  0  0
   19.5353   19.0540   22.5958 C   0  0  0  0  0  0  0  0  0  0  0  0
   18.7136   18.6035   23.1691 H   0  0  0  0  0  0  0  0  0  0  0  0
   19.5202   20.1294   22.8202 H   0  0  0  0  0  0  0  0  0  0  0  0
   19.2887   18.8305   21.0847 C   0  0  0  0  0  0  0  0  0  0  0  0
   19.3182   17.7559   20.8574 H   0  0  0  0  0  0  0  0  0  0  0  0
   20.0976   19.2982   20.5081 H   0  0  0  0  0  0  0  0  0  0  0  0
   17.9352   19.4193   20.6087 C   0  0  0  0  0  0  0  0  0  0  0  0
   17.8770   20.4854   20.8592 H   0  0  0  0  0  0  0  0  0  0  0  0
   17.8675   19.3455   19.5169 H   0  0  0  0  0  0  0  0  0  0  0  0
   16.7127   18.7144   21.1898 C   0  0  0  0  0  0  0  0  0  0  0  0
   16.0915   19.2727   22.0726 O   0  5  0  0  0  0  0  0  0  0  0  0
   16.4080   17.6291   20.7355 O   0  0  0  0  0  0  0  0  0  0  0  0
  1  2  1  0  0  0  0
  1  3  1  0  0  0  0
  1  4  2  0  0  0  0
  4  5  1  0  0  0  0
  4  6  1  0  0  0  0
  6  7  1  0  0  0  0
  6  8  1  0  0  0  0
  6  9  1  0  0  0  0
  9 10  1  0  0  0  0
  9 11  1  0  0  0  0
  9 12  1  0  0  0  0
 12 13  1  0  0  0  0
 12 14  1  0  0  0  0
 12 15  1  0  0  0  0
 15 16  1  0  0  0  0
 15 17  1  0  0  0  0
 15 18  1  0  0  0  0
 18 19  1  0  0  0  0
 18 20  2  0  0  0  0
M  END
> <VConfSearch Rank>
987

> <Conf_Id>
27

> <Delta U+W>
0.478

> <U+W>
-51.267

> <U>
9.192

> <W>
-60.459

> <W(PB)>
-62.649

> <W(SA)>
2.190

> <Valence>
9.572

> <Coulomb>
-0.884

> <VdW>
0.504

> <VdW6>
-7.168

> <VdW12>
7.672

> <Bond>
0.127

> <Angle>
2.504

> <Pdih>
6.941

> <Idih>
0.001

> <Tether>
0.000

$$$$
VeraChem MOL file


 20 19  0  0  0  0  0  0  0  0999 V2000     
   20.2609   15.7215   20.7622 C   0  0  0  0  0  0  0  0  0  0  0  0
   21.2682   15.7251   20.3491 H   0  0  0  0  0  0  0  0  0  0  0  0
   19.5418   15.0318   20.3235 H   0  0  0  0  0  0  0  0  0  0  0  0
   19.9158   16.5322   21.7659 C   0  0  0  0  0  0  0  0  0  0  0  0
   18.9027   16.5101   22.1665 H   0  0  0  0  0  0  0  0  0  0  0  0
   20.8620   17.5107   22.4285 C   0  0  0  0  0  0  0  0  0  0  0  0
   21.9006   17.2194   22.2214 H   0  0  0  0  0  0  0  0  0  0  0  0
   20.7422   17.4667   23.5192 H   0  0  0  0  0  0  0  0  0  0  0  0
   20.6472   18.9604   21.9382 C   0  0  0  0  0  0  0  0  0  0  0  0
   21.4432   19.5949   22.3512 H   0  0  0  0  0  0  0  0  0  0  0  0
   20.7526   18.9951   20.8450 H   0  0  0  0  0  0  0  0  0  0  0  0
   19.2734   19.5371   22.3505 C   0  0  0  0  0  0  0  0  0  0  0  0
   19.1589   19.4778   23.4417 H   0  0  0  0  0  0  0  0  0  0  0  0
   18.4666   18.9346   21.9115 H   0  0  0  0  0  0  0  0  0  0  0  0
   19.1081   21.0089   21.8982 C   0  0  0  0  0  0  0  0  0  0  0  0
   19.8953   21.6319   22.3395 H   0  0  0  0  0  0  0  0  0  0  0  0
   19.2079   21.0833   20.8087 H   0  0  0  0  0  0  0  0  0  0  0  0
   17.7596   21.6010   22.2920 C   0  0  0  0  0  0  0  0  0  0  0  0
   16.8348   21.4913   21.5115 O   0  5  0  0  0  0  0  0  0  0  0  0
   17.6651   22.1410   23.3766 O   0  0  0  0  0  0  0  0  0  0  0  0
  1  2  1  0  0  0  0
  1  3  1  0  0  0  0
  1  4  2  0  0  0  0
  4  5  1  0  0  0  0
  4  6  1  0  0  0  0
  6  7  1  0  0  0  0
  6  8  1  0  0  0  0
  6  9  1  0  0  0  0
  9 10  1  0  0  0  0
  9 11  1  0  0  0  0
  9 12  1  0  0  0  0
 12 13  1  0  0  0  0
 12 14  1  0  0  0  0
 12 15  1  0  0  0  0
 15 16  1  0  0  0  0
 15 17  1  0  0  0  0
 15 18  1  0  0  0  0
 18 19  1  0  0  0  0
 18 20  2  0  0  0  0
M  END
> <VConfSearch Rank>
988

> <Conf_Id>
41

> <Delta U+W>
-0.634

> <U+W>
-52.379

> <U>
7.828

> <W>
-60.207

> <W(PB)>
-62.449

> <W(SA)>
2.242

> <Valence>
9.300

> <Coulomb>
-2.080

> <VdW>
0.608

> <VdW6>
-6.341

> <VdW12>
6.949

> <Bond>
0.103

> <Angle>
2.334

> <Pdih>
6.862

> <Idih>
0.001

> <Tether>
0.000

$$$$
VeraChem MOL file


 20 19  0  0  0  0  0  0  0  0999 V2000     
   21.5160   19.0156   25.2404 C   0  0  0  0  0  0  0  0  0  0  0  0
   21.3949   19.1655   26.3119 H   0  0  0  0  0  0  0  0  0  0  0  0
   22.4211   18.5125   24.9040 H   0  0  0  0  0  0  0  0  0  0  0  0
   20.5871   19.4322   24.3759 C   0  0  0  0  0  0  0  0  0  0  0  0
   19.6876   19.9333   24.7330 H   0  0  0  0  0  0  0  0  0  0  0  0
   20.6862   19.2606   22.8765 C   0  0  0  0  0  0  0  0  0  0  0  0
   21.7122   18.9912   22.5915 H   0  0  0  0  0  0  0  0  0  0  0  0
   20.4604   20.2181   22.3894 H   0  0  0  0  0  0  0  0  0  0  0  0
   19.7092   18.1729   22.3768 C   0  0  0  0  0  0  0  0  0  0  0  0
   19.8844   17.2501   22.9468 H   0  0  0  0  0  0  0  0  0  0  0  0
   18.6766   18.4786   22.5948 H   0  0  0  0  0  0  0  0  0  0  0  0
   19.8555   17.8556   20.8681 C   0  0  0  0  0  0  0  0  0  0  0  0
   19.1837   17.0237   20.6150 H   0  0  0  0  0  0  0  0  0  0  0  0
   20.8752   17.4980   20.6710 H   0  0  0  0  0  0  0  0  0  0  0  0
   19.5445   19.0514   19.9271 C   0  0  0  0  0  0  0  0  0  0  0  0
   20.2468   19.8744   20.1015 H   0  0  0  0  0  0  0  0  0  0  0  0
   19.6850   18.7396   18.8856 H   0  0  0  0  0  0  0  0  0  0  0  0
   18.1215   19.5886   20.0518 C   0  0  0  0  0  0  0  0  0  0  0  0
   17.2140   18.9137   19.6065 O   0  5  0  0  0  0  0  0  0  0  0  0
   17.9592   20.6740   20.5738 O   0  0  0  0  0  0  0  0  0  0  0  0
  1  2  1  0  0  0  0
  1  3  1  0  0  0  0
  1  4  2  0  0  0  0
  4  5  1  0  0  0  0
  4  6  1  0  0  0  0
  6  7  1  0  0  0  0
  6  8  1  0  0  0  0
  6  9  1  0  0  0  0
  9 10  1  0  0  0  0
  9 11  1  0  0  0  0
  9 12  1  0  0  0  0
 12 13  1  0  0  0  0
 12 14  1  0  0  0  0
 12 15  1  0  0  0  0
 15 16  1  0  0  0  0
 15 17  1  0  0  0  0
 15 18  1  0  0  0  0
 18 19  1  0  0  0  0
 18 20  2  0  0  0  0
M  END
> <VConfSearch Rank>
989

> <Conf_Id>
84

> <Delta U+W>
0.942

> <U+W>
-50.803

> <U>
10.196

> <W>
-60.999

> <W(PB)>
-63.182

> <W(SA)>
2.182

> <Valence>
9.837

> <Coulomb>
0.032

> <VdW>
0.328

> <VdW6>
-7.642

> <VdW12>
7.969

> <Bond>
0.151

> <Angle>
2.748

> <Pdih>
6.937

> <Idih>
0.001

> <Tether>
0.000

$$$$
VeraChem MOL file


 20 19  0  0  0  0  0  0  0  0999 V2000     
   21.4046   20.9801   19.6459 C   0  0  0  0  0  0  0  0  0  0  0  0
   22.3081   21.5439   19.4198 H   0  0  0  0  0  0  0  0  0  0  0  0
   21.0997   20.2155   18.9332 H   0  0  0  0  0  0  0  0  0  0  0  0
   20.7022   21.2185   20.7565 C   0  0  0  0  0  0  0  0  0  0  0  0
   21.0251   21.9879   21.4575 H   0  0  0  0  0  0  0  0  0  0  0  0
   19.4393   20.4779   21.1362 C   0  0  0  0  0  0  0  0  0  0  0  0
   19.0519   19.9193   20.2732 H   0  0  0  0  0  0  0  0  0  0  0  0
   18.6618   21.1995   21.4205 H   0  0  0  0  0  0  0  0  0  0  0  0
   19.6945   19.5039   22.3055 C   0  0  0  0  0  0  0  0  0  0  0  0
   20.4776   18.7891   22.0166 H   0  0  0  0  0  0  0  0  0  0  0  0
   20.0780   20.0624   23.1704 H   0  0  0  0  0  0  0  0  0  0  0  0
   18.4122   18.7411   22.7082 C   0  0  0  0  0  0  0  0  0  0  0  0
   18.0335   18.1699   21.8491 H   0  0  0  0  0  0  0  0  0  0  0  0
   17.6299   19.4640   22.9767 H   0  0  0  0  0  0  0  0  0  0  0  0
   18.6406   17.7798   23.9035 C   0  0  0  0  0  0  0  0  0  0  0  0
   19.0445   18.3310   24.7613 H   0  0  0  0  0  0  0  0  0  0  0  0
   17.6807   17.3562   24.2217 H   0  0  0  0  0  0  0  0  0  0  0  0
   19.5731   16.6128   23.5914 C   0  0  0  0  0  0  0  0  0  0  0  0
   20.7037   16.6444   24.0360 O   0  5  0  0  0  0  0  0  0  0  0  0
   19.1386   15.6963   22.9219 O   0  0  0  0  0  0  0  0  0  0  0  0
  1  2  1  0  0  0  0
  1  3  1  0  0  0  0
  1  4  2  0  0  0  0
  4  5  1  0  0  0  0
  4  6  1  0  0  0  0
  6  7  1  0  0  0  0
  6  8  1  0  0  0  0
  6  9  1  0  0  0  0
  9 10  1  0  0  0  0
  9 11  1  0  0  0  0
  9 12  1  0  0  0  0
 12 13  1  0  0  0  0
 12 14  1  0  0  0  0
 12 15  1  0  0  0  0
 15 16  1  0  0  0  0
 15 17  1  0  0  0  0
 15 18  1  0  0  0  0
 18 19  1  0  0  0  0
 18 20  2  0  0  0  0
M  END
> <VConfSearch Rank>
990

> <Conf_Id>
81

> <Delta U+W>
-0.051

> <U+W>
-51.796

> <U>
9.412

> <W>
-61.209

> <W(PB)>
-63.452

> <W(SA)>
2.243

> <Valence>
9.329

> <Coulomb>
-0.323

> <VdW>
0.406

> <VdW6>
-6.640

> <VdW12>
7.046

> <Bond>
0.105

> <Angle>
2.401

> <Pdih>
6.823

> <Idih>
0.000

> <Tether>
0.000

$$$$
VeraChem MOL file


 20 19  0  0  0  0  0  0  0  0999 V2000     
   17.4016   20.7776   23.6471 C   0  0  0  0  0  0  0  0  0  0  0  0
   17.8946   21.6500   24.0729 H   0  0  0  0  0  0  0  0  0  0  0  0
   16.3137   20.7858   23.6082 H   0  0  0  0  0  0  0  0  0  0  0  0
   18.1007   19.7370   23.1867 C   0  0  0  0  0  0  0  0  0  0  0  0
   17.5877   18.8724   22.7664 H   0  0  0  0  0  0  0  0  0  0  0  0
   19.6119   19.6523   23.2126 C   0  0  0  0  0  0  0  0  0  0  0  0
   19.9277   18.6619   23.5652 H   0  0  0  0  0  0  0  0  0  0  0  0
   20.0105   20.3703   23.9418 H   0  0  0  0  0  0  0  0  0  0  0  0
   20.2445   19.9519   21.8324 C   0  0  0  0  0  0  0  0  0  0  0  0
   19.9862   20.9790   21.5406 H   0  0  0  0  0  0  0  0  0  0  0  0
   21.3386   19.9295   21.9300 H   0  0  0  0  0  0  0  0  0  0  0  0
   19.8127   18.9870   20.6982 C   0  0  0  0  0  0  0  0  0  0  0  0
   20.2953   19.3044   19.7635 H   0  0  0  0  0  0  0  0  0  0  0  0
   18.7319   19.0812   20.5287 H   0  0  0  0  0  0  0  0  0  0  0  0
   20.1602   17.4954   20.9561 C   0  0  0  0  0  0  0  0  0  0  0  0
   19.6333   17.1237   21.8422 H   0  0  0  0  0  0  0  0  0  0  0  0
   19.8115   16.8901   20.1113 H   0  0  0  0  0  0  0  0  0  0  0  0
   21.6523   17.2237   21.1246 C   0  0  0  0  0  0  0  0  0  0  0  0
   22.0655   16.9428   22.2325 O   0  5  0  0  0  0  0  0  0  0  0  0
   22.3599   17.2832   20.1381 O   0  0  0  0  0  0  0  0  0  0  0  0
  1  2  1  0  0  0  0
  1  3  1  0  0  0  0
  1  4  2  0  0  0  0
  4  5  1  0  0  0  0
  4  6  1  0  0  0  0
  6  7  1  0  0  0  0
  6  8  1  0  0  0  0
  6  9  1  0  0  0  0
  9 10  1  0  0  0  0
  9 11  1  0  0  0  0
  9 12  1  0  0  0  0
 12 13  1  0  0  0  0
 12 14  1  0  0  0  0
 12 15  1  0  0  0  0
 15 16  1  0  0  0  0
 15 17  1  0  0  0  0
 15 18  1  0  0  0  0
 18 19  1  0  0  0  0
 18 20  2  0  0  0  0
M  END
> <VConfSearch Rank>
991

> <Conf_Id>
86

> <Delta U+W>
1.248

> <U+W>
-50.498

> <U>
10.404

> <W>
-60.901

> <W(PB)>
-63.061

> <W(SA)>
2.159

> <Valence>
10.021

> <Coulomb>
0.094

> <VdW>
0.289

> <VdW6>
-8.409

> <VdW12>
8.698

> <Bond>
0.179

> <Angle>
2.939

> <Pdih>
6.902

> <Idih>
0.001

> <Tether>
0.000

$$$$
VeraChem MOL file


 20 19  0  0  0  0  0  0  0  0999 V2000     
   17.4066   19.5943   23.9431 C   0  0  0  0  0  0  0  0  0  0  0  0
   16.9472   19.1400   24.8193 H   0  0  0  0  0  0  0  0  0  0  0  0
   17.7516   20.6229   24.0346 H   0  0  0  0  0  0  0  0  0  0  0  0
   17.5431   18.9118   22.8032 C   0  0  0  0  0  0  0  0  0  0  0  0
   17.1930   17.8823   22.7332 H   0  0  0  0  0  0  0  0  0  0  0  0
   18.1707   19.4751   21.5458 C   0  0  0  0  0  0  0  0  0  0  0  0
   18.3081   20.5613   21.6350 H   0  0  0  0  0  0  0  0  0  0  0  0
   17.4859   19.3179   20.7019 H   0  0  0  0  0  0  0  0  0  0  0  0
   19.5261   18.8093   21.2178 C   0  0  0  0  0  0  0  0  0  0  0  0
   19.3904   17.7225   21.1323 H   0  0  0  0  0  0  0  0  0  0  0  0
   19.8624   19.1610   20.2328 H   0  0  0  0  0  0  0  0  0  0  0  0
   20.6146   19.1200   22.2725 C   0  0  0  0  0  0  0  0  0  0  0  0
   20.2827   18.7628   23.2566 H   0  0  0  0  0  0  0  0  0  0  0  0
   20.7473   20.2072   22.3605 H   0  0  0  0  0  0  0  0  0  0  0  0
   21.9772   18.4608   21.9356 C   0  0  0  0  0  0  0  0  0  0  0  0
   22.6722   18.6093   22.7705 H   0  0  0  0  0  0  0  0  0  0  0  0
   21.8541   17.3778   21.8137 H   0  0  0  0  0  0  0  0  0  0  0  0
   22.6441   19.0198   20.6820 C   0  0  0  0  0  0  0  0  0  0  0  0
   23.1862   20.1050   20.7574 O   0  5  0  0  0  0  0  0  0  0  0  0
   22.6143   18.3518   19.6672 O   0  0  0  0  0  0  0  0  0  0  0  0
  1  2  1  0  0  0  0
  1  3  1  0  0  0  0
  1  4  2  0  0  0  0
  4  5  1  0  0  0  0
  4  6  1  0  0  0  0
  6  7  1  0  0  0  0
  6  8  1  0  0  0  0
  6  9  1  0  0  0  0
  9 10  1  0  0  0  0
  9 11  1  0  0  0  0
  9 12  1  0  0  0  0
 12 13  1  0  0  0  0
 12 14  1  0  0  0  0
 12 15  1  0  0  0  0
 15 16  1  0  0  0  0
 15 17  1  0  0  0  0
 15 18  1  0  0  0  0
 18 19  1  0  0  0  0
 18 20  2  0  0  0  0
M  END
> <VConfSearch Rank>
992

> <Conf_Id>
28

> <Delta U+W>
0.446

> <U+W>
-51.299

> <U>
9.295

> <W>
-60.594

> <W(PB)>
-62.806

> <W(SA)>
2.212

> <Valence>
9.495

> <Coulomb>
-0.610

> <VdW>
0.409

> <VdW6>
-7.332

> <VdW12>
7.741

> <Bond>
0.126

> <Angle>
2.497

> <Pdih>
6.872

> <Idih>
0.000

> <Tether>
0.000

$$$$
VeraChem MOL file


 20 19  0  0  0  0  0  0  0  0999 V2000     
   18.5248   19.6918   24.9809 C   0  0  0  0  0  0  0  0  0  0  0  0
   18.1106   18.7727   24.5719 H   0  0  0  0  0  0  0  0  0  0  0  0
   18.2864   19.9190   26.0185 H   0  0  0  0  0  0  0  0  0  0  0  0
   19.2956   20.5149   24.2609 C   0  0  0  0  0  0  0  0  0  0  0  0
   19.6834   21.4204   24.7269 H   0  0  0  0  0  0  0  0  0  0  0  0
   19.7114   20.3343   22.8104 C   0  0  0  0  0  0  0  0  0  0  0  0
   20.8054   20.2551   22.7712 H   0  0  0  0  0  0  0  0  0  0  0  0
   19.4571   21.2474   22.2560 H   0  0  0  0  0  0  0  0  0  0  0  0
   19.0748   19.1172   22.0950 C   0  0  0  0  0  0  0  0  0  0  0  0
   19.3952   18.1895   22.5890 H   0  0  0  0  0  0  0  0  0  0  0  0
   17.9828   19.1699   22.2026 H   0  0  0  0  0  0  0  0  0  0  0  0
   19.4090   19.0445   20.5843 C   0  0  0  0  0  0  0  0  0  0  0  0
   19.0411   19.9528   20.0882 H   0  0  0  0  0  0  0  0  0  0  0  0
   18.8546   18.2062   20.1402 H   0  0  0  0  0  0  0  0  0  0  0  0
   20.9188   18.8664   20.2660 C   0  0  0  0  0  0  0  0  0  0  0  0
   21.0589   18.8369   19.1792 H   0  0  0  0  0  0  0  0  0  0  0  0
   21.4953   19.7248   20.6291 H   0  0  0  0  0  0  0  0  0  0  0  0
   21.5304   17.5898   20.8362 C   0  0  0  0  0  0  0  0  0  0  0  0
   21.2072   16.5286   20.3394 O   0  5  0  0  0  0  0  0  0  0  0  0
   22.3288   17.6907   21.7469 O   0  0  0  0  0  0  0  0  0  0  0  0
  1  2  1  0  0  0  0
  1  3  1  0  0  0  0
  1  4  2  0  0  0  0
  4  5  1  0  0  0  0
  4  6  1  0  0  0  0
  6  7  1  0  0  0  0
  6  8  1  0  0  0  0
  6  9  1  0  0  0  0
  9 10  1  0  0  0  0
  9 11  1  0  0  0  0
  9 12  1  0  0  0  0
 12 13  1  0  0  0  0
 12 14  1  0  0  0  0
 12 15  1  0  0  0  0
 15 16  1  0  0  0  0
 15 17  1  0  0  0  0
 15 18  1  0  0  0  0
 18 19  1  0  0  0  0
 18 20  2  0  0  0  0
M  END
> <VConfSearch Rank>
993

> <Conf_Id>
53

> <Delta U+W>
0.549

> <U+W>
-51.197

> <U>
10.870

> <W>
-62.067

> <W(PB)>
-64.228

> <W(SA)>
2.161

> <Valence>
8.803

> <Coulomb>
1.020

> <VdW>
1.048

> <VdW6>
-8.312

> <VdW12>
9.360

> <Bond>
0.212

> <Angle>
3.379

> <Pdih>
5.211

> <Idih>
0.001

> <Tether>
0.000

$$$$
VeraChem MOL file


 20 19  0  0  0  0  0  0  0  0999 V2000     
   20.6114   19.6388   24.5993 C   0  0  0  0  0  0  0  0  0  0  0  0
   20.8362   20.5411   24.0348 H   0  0  0  0  0  0  0  0  0  0  0  0
   21.2418   19.4247   25.4605 H   0  0  0  0  0  0  0  0  0  0  0  0
   19.6053   18.8229   24.2665 C   0  0  0  0  0  0  0  0  0  0  0  0
   19.4210   17.9330   24.8677 H   0  0  0  0  0  0  0  0  0  0  0  0
   18.6548   18.9951   23.0931 C   0  0  0  0  0  0  0  0  0  0  0  0
   17.7219   19.4438   23.4590 H   0  0  0  0  0  0  0  0  0  0  0  0
   18.3614   18.0044   22.7229 H   0  0  0  0  0  0  0  0  0  0  0  0
   19.1918   19.8336   21.9039 C   0  0  0  0  0  0  0  0  0  0  0  0
   18.3886   19.9427   21.1624 H   0  0  0  0  0  0  0  0  0  0  0  0
   19.4159   20.8521   22.2472 H   0  0  0  0  0  0  0  0  0  0  0  0
   20.4433   19.2415   21.2038 C   0  0  0  0  0  0  0  0  0  0  0  0
   21.2773   19.1949   21.9157 H   0  0  0  0  0  0  0  0  0  0  0  0
   20.7600   19.9303   20.4086 H   0  0  0  0  0  0  0  0  0  0  0  0
   20.2296   17.8330   20.5852 C   0  0  0  0  0  0  0  0  0  0  0  0
   21.1631   17.4962   20.1197 H   0  0  0  0  0  0  0  0  0  0  0  0
   19.9915   17.1012   21.3655 H   0  0  0  0  0  0  0  0  0  0  0  0
   19.1432   17.7794   19.5151 C   0  0  0  0  0  0  0  0  0  0  0  0
   18.0980   17.2195   19.7821 O   0  5  0  0  0  0  0  0  0  0  0  0
   19.3785   18.2843   18.4347 O   0  0  0  0  0  0  0  0  0  0  0  0
  1  2  1  0  0  0  0
  1  3  1  0  0  0  0
  1  4  2  0  0  0  0
  4  5  1  0  0  0  0
  4  6  1  0  0  0  0
  6  7  1  0  0  0  0
  6  8  1  0  0  0  0
  6  9  1  0  0  0  0
  9 10  1  0  0  0  0
  9 11  1  0  0  0  0
  9 12  1  0  0  0  0
 12 13  1  0  0  0  0
 12 14  1  0  0  0  0
 12 15  1  0  0  0  0
 15 16  1  0  0  0  0
 15 17  1  0  0  0  0
 15 18  1  0  0  0  0
 18 19  1  0  0  0  0
 18 20  2  0  0  0  0
M  END
> <VConfSearch Rank>
994

> <Conf_Id>
66

> <Delta U+W>
1.737

> <U+W>
-50.008

> <U>
11.091

> <W>
-61.099

> <W(PB)>
-63.213

> <W(SA)>
2.114

> <Valence>
9.664

> <Coulomb>
0.658

> <VdW>
0.769

> <VdW6>
-9.171

> <VdW12>
9.940

> <Bond>
0.244

> <Angle>
3.658

> <Pdih>
5.762

> <Idih>
0.001

> <Tether>
0.000

$$$$
VeraChem MOL file


 20 19  0  0  0  0  0  0  0  0999 V2000     
   17.7120   17.7959   23.4999 C   0  0  0  0  0  0  0  0  0  0  0  0
   18.5912   17.1779   23.6680 H   0  0  0  0  0  0  0  0  0  0  0  0
   17.0283   17.9200   24.3379 H   0  0  0  0  0  0  0  0  0  0  0  0
   17.4647   18.3789   22.3219 C   0  0  0  0  0  0  0  0  0  0  0  0
   16.5669   18.9859   22.2079 H   0  0  0  0  0  0  0  0  0  0  0  0
   18.3284   18.2982   21.0736 C   0  0  0  0  0  0  0  0  0  0  0  0
   18.2657   19.2526   20.5361 H   0  0  0  0  0  0  0  0  0  0  0  0
   17.8868   17.5617   20.3894 H   0  0  0  0  0  0  0  0  0  0  0  0
   19.8217   17.9470   21.3036 C   0  0  0  0  0  0  0  0  0  0  0  0
   19.8946   16.9651   21.7895 H   0  0  0  0  0  0  0  0  0  0  0  0
   20.3101   17.8306   20.3266 H   0  0  0  0  0  0  0  0  0  0  0  0
   20.6126   18.9910   22.1326 C   0  0  0  0  0  0  0  0  0  0  0  0
   21.6263   18.6044   22.3061 H   0  0  0  0  0  0  0  0  0  0  0  0
   20.1568   19.1130   23.1240 H   0  0  0  0  0  0  0  0  0  0  0  0
   20.7206   20.3763   21.4439 C   0  0  0  0  0  0  0  0  0  0  0  0
   21.1277   20.2660   20.4319 H   0  0  0  0  0  0  0  0  0  0  0  0
   19.7308   20.8371   21.3497 H   0  0  0  0  0  0  0  0  0  0  0  0
   21.6137   21.3468   22.2085 C   0  0  0  0  0  0  0  0  0  0  0  0
   21.0983   22.0734   23.0351 O   0  5  0  0  0  0  0  0  0  0  0  0
   22.8048   21.3408   21.9674 O   0  0  0  0  0  0  0  0  0  0  0  0
  1  2  1  0  0  0  0
  1  3  1  0  0  0  0
  1  4  2  0  0  0  0
  4  5  1  0  0  0  0
  4  6  1  0  0  0  0
  6  7  1  0  0  0  0
  6  8  1  0  0  0  0
  6  9  1  0  0  0  0
  9 10  1  0  0  0  0
  9 11  1  0  0  0  0
  9 12  1  0  0  0  0
 12 13  1  0  0  0  0
 12 14  1  0  0  0  0
 12 15  1  0  0  0  0
 15 16  1  0  0  0  0
 15 17  1  0  0  0  0
 15 18  1  0  0  0  0
 18 19  1  0  0  0  0
 18 20  2  0  0  0  0
M  END
> <VConfSearch Rank>
995

> <Conf_Id>
64

> <Delta U+W>
0.366

> <U+W>
-51.379

> <U>
10.000

> <W>
-61.379

> <W(PB)>
-63.541

> <W(SA)>
2.162

> <Valence>
9.398

> <Coulomb>
-0.504

> <VdW>
1.105

> <VdW6>
-7.975

> <VdW12>
9.080

> <Bond>
0.216

> <Angle>
3.417

> <Pdih>
5.765

> <Idih>
0.001

> <Tether>
0.000

$$$$
VeraChem MOL file


 20 19  0  0  0  0  0  0  0  0999 V2000     
   17.6892   17.6774   23.3887 C   0  0  0  0  0  0  0  0  0  0  0  0
   17.1069   18.5930   23.2985 H   0  0  0  0  0  0  0  0  0  0  0  0
   17.6032   17.1183   24.3188 H   0  0  0  0  0  0  0  0  0  0  0  0
   18.4825   17.2555   22.4004 C   0  0  0  0  0  0  0  0  0  0  0  0
   19.0590   16.3375   22.5118 H   0  0  0  0  0  0  0  0  0  0  0  0
   18.6539   17.9783   21.0813 C   0  0  0  0  0  0  0  0  0  0  0  0
   17.8967   18.7665   20.9711 H   0  0  0  0  0  0  0  0  0  0  0  0
   18.4851   17.2698   20.2595 H   0  0  0  0  0  0  0  0  0  0  0  0
   20.0637   18.5923   20.9285 C   0  0  0  0  0  0  0  0  0  0  0  0
   20.8209   17.8041   21.0394 H   0  0  0  0  0  0  0  0  0  0  0  0
   20.1693   18.9889   19.9095 H   0  0  0  0  0  0  0  0  0  0  0  0
   20.3341   19.7251   21.9450 C   0  0  0  0  0  0  0  0  0  0  0  0
   20.2578   19.3348   22.9692 H   0  0  0  0  0  0  0  0  0  0  0  0
   19.5659   20.5042   21.8439 H   0  0  0  0  0  0  0  0  0  0  0  0
   21.7338   20.3568   21.7451 C   0  0  0  0  0  0  0  0  0  0  0  0
   22.5128   19.5929   21.8556 H   0  0  0  0  0  0  0  0  0  0  0  0
   21.8231   20.7675   20.7322 H   0  0  0  0  0  0  0  0  0  0  0  0
   22.0245   21.4774   22.7370 C   0  0  0  0  0  0  0  0  0  0  0  0
   21.6872   22.6068   22.4413 O   0  5  0  0  0  0  0  0  0  0  0  0
   22.5678   21.1895   23.7852 O   0  0  0  0  0  0  0  0  0  0  0  0
  1  2  1  0  0  0  0
  1  3  1  0  0  0  0
  1  4  2  0  0  0  0
  4  5  1  0  0  0  0
  4  6  1  0  0  0  0
  6  7  1  0  0  0  0
  6  8  1  0  0  0  0
  6  9  1  0  0  0  0
  9 10  1  0  0  0  0
  9 11  1  0  0  0  0
  9 12  1  0  0  0  0
 12 13  1  0  0  0  0
 12 14  1  0  0  0  0
 12 15  1  0  0  0  0
 15 16  1  0  0  0  0
 15 17  1  0  0  0  0
 15 18  1  0  0  0  0
 18 19  1  0  0  0  0
 18 20  2  0  0  0  0
M  END
> <VConfSearch Rank>
996

> <Conf_Id>
42

> <Delta U+W>
-0.601

> <U+W>
-52.347

> <U>
8.428

> <W>
-60.774

> <W(PB)>
-62.982

> <W(SA)>
2.208

> <Valence>
9.231

> <Coulomb>
-1.304

> <VdW>
0.501

> <VdW6>
-6.515

> <VdW12>
7.016

> <Bond>
0.103

> <Angle>
2.328

> <Pdih>
6.799

> <Idih>
0.000

> <Tether>
0.000

$$$$
VeraChem MOL file


 20 19  0  0  0  0  0  0  0  0999 V2000     
   19.3036   18.9929   25.0526 C   0  0  0  0  0  0  0  0  0  0  0  0
   19.9576   18.1269   25.1404 H   0  0  0  0  0  0  0  0  0  0  0  0
   18.4184   19.0186   25.6857 H   0  0  0  0  0  0  0  0  0  0  0  0
   19.5713   19.9853   24.1998 C   0  0  0  0  0  0  0  0  0  0  0  0
   18.9021   20.8421   24.1252 H   0  0  0  0  0  0  0  0  0  0  0  0
   20.7795   20.0192   23.2881 C   0  0  0  0  0  0  0  0  0  0  0  0
   21.4930   19.2302   23.5621 H   0  0  0  0  0  0  0  0  0  0  0  0
   21.3054   20.9734   23.4246 H   0  0  0  0  0  0  0  0  0  0  0  0
   20.3935   19.8718   21.7991 C   0  0  0  0  0  0  0  0  0  0  0  0
   19.6851   20.6659   21.5255 H   0  0  0  0  0  0  0  0  0  0  0  0
   21.2896   20.0260   21.1826 H   0  0  0  0  0  0  0  0  0  0  0  0
   19.7851   18.4869   21.4746 C   0  0  0  0  0  0  0  0  0  0  0  0
   18.8638   18.3365   22.0540 H   0  0  0  0  0  0  0  0  0  0  0  0
   20.4860   17.7015   21.7879 H   0  0  0  0  0  0  0  0  0  0  0  0
   19.4731   18.3119   19.9657 C   0  0  0  0  0  0  0  0  0  0  0  0
   20.3774   18.4820   19.3690 H   0  0  0  0  0  0  0  0  0  0  0  0
   19.1562   17.2799   19.7745 H   0  0  0  0  0  0  0  0  0  0  0  0
   18.3699   19.2318   19.4503 C   0  0  0  0  0  0  0  0  0  0  0  0
   18.6906   20.2080   18.8013 O   0  5  0  0  0  0  0  0  0  0  0  0
   17.2169   18.9369   19.6968 O   0  0  0  0  0  0  0  0  0  0  0  0
  1  2  1  0  0  0  0
  1  3  1  0  0  0  0
  1  4  2  0  0  0  0
  4  5  1  0  0  0  0
  4  6  1  0  0  0  0
  6  7  1  0  0  0  0
  6  8  1  0  0  0  0
  6  9  1  0  0  0  0
  9 10  1  0  0  0  0
  9 11  1  0  0  0  0
  9 12  1  0  0  0  0
 12 13  1  0  0  0  0
 12 14  1  0  0  0  0
 12 15  1  0  0  0  0
 15 16  1  0  0  0  0
 15 17  1  0  0  0  0
 15 18  1  0  0  0  0
 18 19  1  0  0  0  0
 18 20  2  0  0  0  0
M  END
> <VConfSearch Rank>
997

> <Conf_Id>
68

> <Delta U+W>
0.492

> <U+W>
-51.253

> <U>
10.179

> <W>
-61.432

> <W(PB)>
-63.627

> <W(SA)>
2.195

> <Valence>
9.483

> <Coulomb>
0.361

> <VdW>
0.335

> <VdW6>
-7.385

> <VdW12>
7.720

> <Bond>
0.125

> <Angle>
2.487

> <Pdih>
6.870

> <Idih>
0.001

> <Tether>
0.000

$$$$
VeraChem MOL file


 20 19  0  0  0  0  0  0  0  0999 V2000     
   22.3196   19.6997   23.8080 C   0  0  0  0  0  0  0  0  0  0  0  0
   22.9048   18.8098   23.5820 H   0  0  0  0  0  0  0  0  0  0  0  0
   22.4372   20.1390   24.7971 H   0  0  0  0  0  0  0  0  0  0  0  0
   21.4862   20.2327   22.9108 C   0  0  0  0  0  0  0  0  0  0  0  0
   20.9119   21.1255   23.1567 H   0  0  0  0  0  0  0  0  0  0  0  0
   21.2759   19.6811   21.5168 C   0  0  0  0  0  0  0  0  0  0  0  0
   22.1171   19.0289   21.2456 H   0  0  0  0  0  0  0  0  0  0  0  0
   21.2749   20.5010   20.7862 H   0  0  0  0  0  0  0  0  0  0  0  0
   19.9642   18.8729   21.3959 C   0  0  0  0  0  0  0  0  0  0  0  0
   19.9334   18.3933   20.4081 H   0  0  0  0  0  0  0  0  0  0  0  0
   19.9675   18.0619   22.1374 H   0  0  0  0  0  0  0  0  0  0  0  0
   18.7004   19.7472   21.5753 C   0  0  0  0  0  0  0  0  0  0  0  0
   18.7330   20.5820   20.8623 H   0  0  0  0  0  0  0  0  0  0  0  0
   18.6883   20.1895   22.5808 H   0  0  0  0  0  0  0  0  0  0  0  0
   17.3890   18.9491   21.3560 C   0  0  0  0  0  0  0  0  0  0  0  0
   16.5343   19.6354   21.3792 H   0  0  0  0  0  0  0  0  0  0  0  0
   17.3920   18.4792   20.3651 H   0  0  0  0  0  0  0  0  0  0  0  0
   17.1374   17.8702   22.4055 C   0  0  0  0  0  0  0  0  0  0  0  0
   16.7210   18.2163   23.4936 O   0  5  0  0  0  0  0  0  0  0  0  0
   17.3453   16.7119   22.1019 O   0  0  0  0  0  0  0  0  0  0  0  0
  1  2  1  0  0  0  0
  1  3  1  0  0  0  0
  1  4  2  0  0  0  0
  4  5  1  0  0  0  0
  4  6  1  0  0  0  0
  6  7  1  0  0  0  0
  6  8  1  0  0  0  0
  6  9  1  0  0  0  0
  9 10  1  0  0  0  0
  9 11  1  0  0  0  0
  9 12  1  0  0  0  0
 12 13  1  0  0  0  0
 12 14  1  0  0  0  0
 12 15  1  0  0  0  0
 15 16  1  0  0  0  0
 15 17  1  0  0  0  0
 15 18  1  0  0  0  0
 18 19  1  0  0  0  0
 18 20  2  0  0  0  0
M  END
> <VConfSearch Rank>
998

> <Conf_Id>
87

> <Delta U+W>
0.339

> <U+W>
-51.407

> <U>
10.461

> <W>
-61.867

> <W(PB)>
-64.045

> <W(SA)>
2.178

> <Valence>
9.555

> <Coulomb>
0.483

> <VdW>
0.423

> <VdW6>
-7.223

> <VdW12>
7.646

> <Bond>
0.126

> <Angle>
2.492

> <Pdih>
6.936

> <Idih>
0.001

> <Tether>
0.000

$$$$
VeraChem MOL file


 20 19  0  0  0  0  0  0  0  0999 V2000     
   21.7006   19.6653   20.2280 C   0  0  0  0  0  0  0  0  0  0  0  0
   22.1405   18.7081   19.9530 H   0  0  0  0  0  0  0  0  0  0  0  0
   21.6779   20.4445   19.4681 H   0  0  0  0  0  0  0  0  0  0  0  0
   21.2048   19.8771   21.4499 C   0  0  0  0  0  0  0  0  0  0  0  0
   20.7768   20.8448   21.7090 H   0  0  0  0  0  0  0  0  0  0  0  0
   21.2148   18.8450   22.5573 C   0  0  0  0  0  0  0  0  0  0  0  0
   21.0874   19.3327   23.5330 H   0  0  0  0  0  0  0  0  0  0  0  0
   22.2073   18.3757   22.5863 H   0  0  0  0  0  0  0  0  0  0  0  0
   20.1514   17.7332   22.3775 C   0  0  0  0  0  0  0  0  0  0  0  0
   20.1553   17.3741   21.3392 H   0  0  0  0  0  0  0  0  0  0  0  0
   20.4531   16.8755   22.9938 H   0  0  0  0  0  0  0  0  0  0  0  0
   18.7140   18.1310   22.7977 C   0  0  0  0  0  0  0  0  0  0  0  0
   18.7163   18.5027   23.8315 H   0  0  0  0  0  0  0  0  0  0  0  0
   18.0922   17.2250   22.7983 H   0  0  0  0  0  0  0  0  0  0  0  0
   18.0466   19.1797   21.8713 C   0  0  0  0  0  0  0  0  0  0  0  0
   18.5524   20.1466   21.9574 H   0  0  0  0  0  0  0  0  0  0  0  0
   18.1209   18.8633   20.8240 H   0  0  0  0  0  0  0  0  0  0  0  0
   16.5740   19.4018   22.1964 C   0  0  0  0  0  0  0  0  0  0  0  0
   16.2897   20.2428   23.0263 O   0  5  0  0  0  0  0  0  0  0  0  0
   15.7504   18.7133   21.6267 O   0  0  0  0  0  0  0  0  0  0  0  0
  1  2  1  0  0  0  0
  1  3  1  0  0  0  0
  1  4  2  0  0  0  0
  4  5  1  0  0  0  0
  4  6  1  0  0  0  0
  6  7  1  0  0  0  0
  6  8  1  0  0  0  0
  6  9  1  0  0  0  0
  9 10  1  0  0  0  0
  9 11  1  0  0  0  0
  9 12  1  0  0  0  0
 12 13  1  0  0  0  0
 12 14  1  0  0  0  0
 12 15  1  0  0  0  0
 15 16  1  0  0  0  0
 15 17  1  0  0  0  0
 15 18  1  0  0  0  0
 18 19  1  0  0  0  0
 18 20  2  0  0  0  0
M  END
> <VConfSearch Rank>
999

> <Conf_Id>
51

> <Delta U+W>
1.709

> <U+W>
-50.036

> <U>
10.643

> <W>
-60.679

> <W(PB)>
-62.882

> <W(SA)>
2.203

> <Valence>
11.231

> <Coulomb>
-1.077

> <VdW>
0.489

> <VdW6>
-7.546

> <VdW12>
8.035

> <Bond>
0.159

> <Angle>
3.005

> <Pdih>
8.065

> <Idih>
0.002

> <Tether>
0.000

$$$$
VeraChem MOL file


 20 19  0  0  0  0  0  0  0  0999 V2000     
   16.9852   18.2809   22.6203 C   0  0  0  0  0  0  0  0  0  0  0  0
   16.5958   17.9162   21.6712 H   0  0  0  0  0  0  0  0  0  0  0  0
   16.2906   18.7909   23.2855 H   0  0  0  0  0  0  0  0  0  0  0  0
   18.2667   18.1125   22.9566 C   0  0  0  0  0  0  0  0  0  0  0  0
   18.6356   18.4766   23.9148 H   0  0  0  0  0  0  0  0  0  0  0  0
   19.2832   17.4032   22.0875 C   0  0  0  0  0  0  0  0  0  0  0  0
   18.8290   16.4794   21.7046 H   0  0  0  0  0  0  0  0  0  0  0  0
   20.1433   17.0842   22.6912 H   0  0  0  0  0  0  0  0  0  0  0  0
   19.7656   18.2487   20.8827 C   0  0  0  0  0  0  0  0  0  0  0  0
   20.2000   17.5632   20.1423 H   0  0  0  0  0  0  0  0  0  0  0  0
   18.9065   18.7215   20.3875 H   0  0  0  0  0  0  0  0  0  0  0  0
   20.8378   19.3149   21.2213 C   0  0  0  0  0  0  0  0  0  0  0  0
   21.2297   19.7208   20.2784 H   0  0  0  0  0  0  0  0  0  0  0  0
   21.6890   18.8407   21.7289 H   0  0  0  0  0  0  0  0  0  0  0  0
   20.3141   20.4948   22.0797 C   0  0  0  0  0  0  0  0  0  0  0  0
   19.4075   20.9179   21.6308 H   0  0  0  0  0  0  0  0  0  0  0  0
   20.0517   20.1523   23.0856 H   0  0  0  0  0  0  0  0  0  0  0  0
   21.3368   21.6153   22.2289 C   0  0  0  0  0  0  0  0  0  0  0  0
   22.1266   21.5528   23.1504 O   0  5  0  0  0  0  0  0  0  0  0  0
   21.3305   22.5111   21.4077 O   0  0  0  0  0  0  0  0  0  0  0  0
  1  2  1  0  0  0  0
  1  3  1  0  0  0  0
  1  4  2  0  0  0  0
  4  5  1  0  0  0  0
  4  6  1  0  0  0  0
  6  7  1  0  0  0  0
  6  8  1  0  0  0  0
  6  9  1  0  0  0  0
  9 10  1  0  0  0  0
  9 11  1  0  0  0  0
  9 12  1  0  0  0  0
 12 13  1  0  0  0  0
 12 14  1  0  0  0  0
 12 15  1  0  0  0  0
 15 16  1  0  0  0  0
 15 17  1  0  0  0  0
 15 18  1  0  0  0  0
 18 19  1  0  0  0  0
 18 20  2  0  0  0  0
M  END
> <VConfSearch Rank>
1000

> <Conf_Id>
91

> <Delta U+W>
1.604

> <U+W>
-50.141

> <U>
10.644

> <W>
-60.786

> <W(PB)>
-62.965

> <W(SA)>
2.179

> <Valence>
11.230

> <Coulomb>
-1.075

> <VdW>
0.489

> <VdW6>
-7.547

> <VdW12>
8.036

> <Bond>
0.159

> <Angle>
3.006

> <Pdih>
8.064

> <Idih>
0.002

> <Tether>
0.000

$$$$
