@<TRIPOS>MOLECULE
guest-s22_confgen4.mol2 : confsearch ligand conformer 1
          20          19           1
SMALL
USER_CHARGES
 
@<TRIPOS>ATOM
       1    C1      20.508562   18.314268   18.326658 C.2        1 MOL1        -0.2535
       2    H1      20.254604   17.272420   18.515465 H          1 MOL1         0.0845
       3    H2      21.110023   18.531494   17.445560 H          1 MOL1         0.0845
       4    C2      20.102401   19.290314   19.142757 C.2        1 MOL1        -0.1324
       5    H3      20.368164   20.326812   18.936116 H          1 MOL1         0.0833
       6    C3      19.265394   19.065506   20.382323 C.3        1 MOL1        -0.1813
       7    H4      18.831781   18.056226   20.370553 H          1 MOL1         0.0753
       8    H5      18.423621   19.770842   20.390256 H          1 MOL1         0.0753
       9    C4      20.106228   19.248622   21.663081 C.3        1 MOL1        -0.1855
      10    H6      20.949084   18.543813   21.648142 H          1 MOL1         0.0755
      11    H7      20.535939   20.259724   21.676631 H          1 MOL1         0.0755
      12    C5      19.265653   19.025350   22.939285 C.3        1 MOL1        -0.1855
      13    H8      18.835916   18.014058   22.926687 H          1 MOL1         0.0755
      14    H9      18.421836   19.729107   22.954194 H          1 MOL1         0.0755
      15    C6      20.111873   19.208901   24.227159 C.3        1 MOL1        -0.1958
      16    H10     20.952355   18.504999   24.221922 H          1 MOL1         0.0753
      17    H11     20.538753   20.218446   24.249542 H          1 MOL1         0.0753
      18    C7      19.354370   19.004874   25.540125 C.2        1 MOL1         0.6174
      19    O1      19.983713   19.141611   26.570352 O.co2      1 MOL1        -0.6695
      20    O2      18.172805   18.718553   25.516260 O.co2      1 MOL1        -0.6695
@<TRIPOS>BOND
    1     1     2    1
    2     1     3    1
    3     1     4    2
    4     4     5    1
    5     4     6    1
    6     6     7    1
    7     6     8    1
    8     6     9    1
    9     9    10    1
   10     9    11    1
   11     9    12    1
   12    12    13    1
   13    12    14    1
   14    12    15    1
   15    15    16    1
   16    15    17    1
   17    15    18    1
   18    18    19    1
   19    18    20    2
@<TRIPOS>SUBSTRUCTURE
       1 MOL1            1 RESIDUE      1      MOL     
@<SCITEGIC>MOL_PROPERTY
VConf Rank
SciTegic.value.IntegerValue
1

@<SCITEGIC>MOL_PROPERTY
Conf_Id
SciTegic.value.IntegerValue
33

@<SCITEGIC>MOL_PROPERTY
Delta U+W
SciTegic.value.DoubleValue
0.000

@<SCITEGIC>MOL_PROPERTY
U+W
SciTegic.value.DoubleValue
-51.745

@<SCITEGIC>MOL_PROPERTY
Grad RMS
SciTegic.value.DoubleValue
0.000000

@<SCITEGIC>MOL_PROPERTY
U
SciTegic.value.DoubleValue
7.593

@<SCITEGIC>MOL_PROPERTY
W
SciTegic.value.DoubleValue
-59.338

@<SCITEGIC>MOL_PROPERTY
W(PB)
SciTegic.value.DoubleValue
-61.574

@<SCITEGIC>MOL_PROPERTY
W(SA)
SciTegic.value.DoubleValue
2.236

@<SCITEGIC>MOL_PROPERTY
Valence
SciTegic.value.DoubleValue
9.570

@<SCITEGIC>MOL_PROPERTY
Coulomb
SciTegic.value.DoubleValue
-3.091

@<SCITEGIC>MOL_PROPERTY
VdW
SciTegic.value.DoubleValue
1.114

@<SCITEGIC>MOL_PROPERTY
VdW6
SciTegic.value.DoubleValue
-6.064

@<SCITEGIC>MOL_PROPERTY
VdW12
SciTegic.value.DoubleValue
7.178

@<SCITEGIC>MOL_PROPERTY
Bond
SciTegic.value.DoubleValue
0.117

@<SCITEGIC>MOL_PROPERTY
Angle
SciTegic.value.DoubleValue
2.692

@<SCITEGIC>MOL_PROPERTY
Pdih
SciTegic.value.DoubleValue
6.761

@<SCITEGIC>MOL_PROPERTY
Idih
SciTegic.value.DoubleValue
0.000

@<SCITEGIC>MOL_PROPERTY
Tether
SciTegic.value.DoubleValue
0.000

@<TRIPOS>MOLECULE
guest-s22_confgen4.mol2 : confsearch ligand conformer 2
          20          19           1
SMALL
USER_CHARGES
 
@<TRIPOS>ATOM
       1    C1      20.758533   19.113630   18.447824 C.2        1 MOL1        -0.2535
       2    H1      21.510212   19.857638   18.706682 H          1 MOL1         0.0845
       3    H2      20.584917   18.923990   17.389924 H          1 MOL1         0.0845
       4    C2      20.072313   18.458817   19.388035 C.2        1 MOL1        -0.1324
       5    H3      19.323466   17.718375   19.107667 H          1 MOL1         0.0833
       6    C3      20.258973   18.667985   20.874349 C.3        1 MOL1        -0.1813
       7    H4      21.187750   19.222270   21.066019 H          1 MOL1         0.0753
       8    H5      20.364793   17.692020   21.364600 H          1 MOL1         0.0753
       9    C4      19.065021   19.439451   21.480259 C.3        1 MOL1        -0.1855
      10    H6      18.926074   20.373533   20.918543 H          1 MOL1         0.0755
      11    H7      18.142855   18.857373   21.346885 H          1 MOL1         0.0755
      12    C5      19.249853   19.786521   22.976775 C.3        1 MOL1        -0.1855
      13    H8      18.415793   20.427101   23.295358 H          1 MOL1         0.0755
      14    H9      20.164889   20.380103   23.110052 H          1 MOL1         0.0755
      15    C6      19.301586   18.540973   23.899221 C.3        1 MOL1        -0.1958
      16    H10     18.412813   17.917765   23.744053 H          1 MOL1         0.0753
      17    H11     20.176804   17.923880   23.666982 H          1 MOL1         0.0753
      18    C7      19.371028   18.905583   25.377804 C.2        1 MOL1         0.6174
      19    O1      20.466607   19.066947   25.878180 O.co2      1 MOL1        -0.6695
      20    O2      18.327086   19.038094   25.985553 O.co2      1 MOL1        -0.6695
@<TRIPOS>BOND
    1     1     2    1
    2     1     3    1
    3     1     4    2
    4     4     5    1
    5     4     6    1
    6     6     7    1
    7     6     8    1
    8     6     9    1
    9     9    10    1
   10     9    11    1
   11     9    12    1
   12    12    13    1
   13    12    14    1
   14    12    15    1
   15    15    16    1
   16    15    17    1
   17    15    18    1
   18    18    19    1
   19    18    20    2
@<TRIPOS>SUBSTRUCTURE
       1 MOL1            1 RESIDUE      1      MOL     
@<SCITEGIC>MOL_PROPERTY
VConf Rank
SciTegic.value.IntegerValue
2

@<SCITEGIC>MOL_PROPERTY
Conf_Id
SciTegic.value.IntegerValue
37

@<SCITEGIC>MOL_PROPERTY
Delta U+W
SciTegic.value.DoubleValue
-0.384

@<SCITEGIC>MOL_PROPERTY
U+W
SciTegic.value.DoubleValue
-52.130

@<SCITEGIC>MOL_PROPERTY
Grad RMS
SciTegic.value.DoubleValue
0.000000

@<SCITEGIC>MOL_PROPERTY
U
SciTegic.value.DoubleValue
7.491

@<SCITEGIC>MOL_PROPERTY
W
SciTegic.value.DoubleValue
-59.621

@<SCITEGIC>MOL_PROPERTY
W(PB)
SciTegic.value.DoubleValue
-61.853

@<SCITEGIC>MOL_PROPERTY
W(SA)
SciTegic.value.DoubleValue
2.232

@<SCITEGIC>MOL_PROPERTY
Valence
SciTegic.value.DoubleValue
9.604

@<SCITEGIC>MOL_PROPERTY
Coulomb
SciTegic.value.DoubleValue
-2.799

@<SCITEGIC>MOL_PROPERTY
VdW
SciTegic.value.DoubleValue
0.686

@<SCITEGIC>MOL_PROPERTY
VdW6
SciTegic.value.DoubleValue
-6.435

@<SCITEGIC>MOL_PROPERTY
VdW12
SciTegic.value.DoubleValue
7.121

@<SCITEGIC>MOL_PROPERTY
Bond
SciTegic.value.DoubleValue
0.124

@<SCITEGIC>MOL_PROPERTY
Angle
SciTegic.value.DoubleValue
2.493

@<SCITEGIC>MOL_PROPERTY
Pdih
SciTegic.value.DoubleValue
6.986

@<SCITEGIC>MOL_PROPERTY
Idih
SciTegic.value.DoubleValue
0.001

@<SCITEGIC>MOL_PROPERTY
Tether
SciTegic.value.DoubleValue
0.000

@<TRIPOS>MOLECULE
guest-s22_confgen4.mol2 : confsearch ligand conformer 3
          20          19           1
SMALL
USER_CHARGES
 
@<TRIPOS>ATOM
       1    C1      20.734477   19.604170   18.743484 C.2        1 MOL1        -0.2535
       2    H1      21.032362   19.781493   17.711490 H          1 MOL1         0.0845
       3    H2      21.137043   20.281313   19.493794 H          1 MOL1         0.0845
       4    C2      19.911575   18.595861   19.053418 C.2        1 MOL1        -0.1324
       5    H3      19.540831   17.950635   18.257265 H          1 MOL1         0.0833
       6    C3      19.410222   18.225592   20.439261 C.3        1 MOL1        -0.1813
       7    H4      19.689445   17.184339   20.648930 H          1 MOL1         0.0753
       8    H5      18.312121   18.242142   20.433281 H          1 MOL1         0.0753
       9    C4      19.924778   19.128998   21.584282 C.3        1 MOL1        -0.1855
      10    H6      21.022803   19.100471   21.609037 H          1 MOL1         0.0755
      11    H7      19.630559   20.169757   21.391035 H          1 MOL1         0.0755
      12    C5      19.369998   18.686290   22.955869 C.3        1 MOL1        -0.1855
      13    H8      19.660948   17.645503   23.155161 H          1 MOL1         0.0755
      14    H9      18.271554   18.712599   22.937595 H          1 MOL1         0.0755
      15    C6      19.883801   19.589397   24.104123 C.3        1 MOL1        -0.1958
      16    H10     20.979381   19.563869   24.144822 H          1 MOL1         0.0753
      17    H11     19.590015   20.631023   23.927182 H          1 MOL1         0.0753
      18    C7      19.349459   19.172194   25.469556 C.2        1 MOL1         0.6174
      19    O1      19.986329   18.360026   26.110983 O.co2      1 MOL1        -0.6695
      20    O2      18.300361   19.655472   25.847024 O.co2      1 MOL1        -0.6695
@<TRIPOS>BOND
    1     1     2    1
    2     1     3    1
    3     1     4    2
    4     4     5    1
    5     4     6    1
    6     6     7    1
    7     6     8    1
    8     6     9    1
    9     9    10    1
   10     9    11    1
   11     9    12    1
   12    12    13    1
   13    12    14    1
   14    12    15    1
   15    15    16    1
   16    15    17    1
   17    15    18    1
   18    18    19    1
   19    18    20    2
@<TRIPOS>SUBSTRUCTURE
       1 MOL1            1 RESIDUE      1      MOL     
@<SCITEGIC>MOL_PROPERTY
VConf Rank
SciTegic.value.IntegerValue
3

@<SCITEGIC>MOL_PROPERTY
Conf_Id
SciTegic.value.IntegerValue
44

@<SCITEGIC>MOL_PROPERTY
Delta U+W
SciTegic.value.DoubleValue
-1.440

@<SCITEGIC>MOL_PROPERTY
U+W
SciTegic.value.DoubleValue
-53.185

@<SCITEGIC>MOL_PROPERTY
Grad RMS
SciTegic.value.DoubleValue
0.000000

@<SCITEGIC>MOL_PROPERTY
U
SciTegic.value.DoubleValue
6.572

@<SCITEGIC>MOL_PROPERTY
W
SciTegic.value.DoubleValue
-59.757

@<SCITEGIC>MOL_PROPERTY
W(PB)
SciTegic.value.DoubleValue
-62.007

@<SCITEGIC>MOL_PROPERTY
W(SA)
SciTegic.value.DoubleValue
2.249

@<SCITEGIC>MOL_PROPERTY
Valence
SciTegic.value.DoubleValue
7.989

@<SCITEGIC>MOL_PROPERTY
Coulomb
SciTegic.value.DoubleValue
-2.697

@<SCITEGIC>MOL_PROPERTY
VdW
SciTegic.value.DoubleValue
1.281

@<SCITEGIC>MOL_PROPERTY
VdW6
SciTegic.value.DoubleValue
-6.467

@<SCITEGIC>MOL_PROPERTY
VdW12
SciTegic.value.DoubleValue
7.748

@<SCITEGIC>MOL_PROPERTY
Bond
SciTegic.value.DoubleValue
0.136

@<SCITEGIC>MOL_PROPERTY
Angle
SciTegic.value.DoubleValue
2.854

@<SCITEGIC>MOL_PROPERTY
Pdih
SciTegic.value.DoubleValue
4.997

@<SCITEGIC>MOL_PROPERTY
Idih
SciTegic.value.DoubleValue
0.001

@<SCITEGIC>MOL_PROPERTY
Tether
SciTegic.value.DoubleValue
0.000

@<TRIPOS>MOLECULE
guest-s22_confgen4.mol2 : confsearch ligand conformer 4
          20          19           1
SMALL
USER_CHARGES
 
@<TRIPOS>ATOM
       1    C1      20.645038   18.090780   18.718436 C.2        1 MOL1        -0.2535
       2    H1      20.969994   17.203791   19.259945 H          1 MOL1         0.0845
       3    H2      20.979686   18.199305   17.688151 H          1 MOL1         0.0845
       4    C2      19.868535   19.013308   19.292633 C.2        1 MOL1        -0.1324
       5    H3      19.554884   19.894280   18.733037 H          1 MOL1         0.0833
       6    C3      19.364257   18.930240   20.716255 C.3        1 MOL1        -0.1813
       7    H4      19.495544   17.910089   21.099212 H          1 MOL1         0.0753
       8    H5      18.286618   19.140535   20.736315 H          1 MOL1         0.0753
       9    C4      20.105430   19.934687   21.627140 C.3        1 MOL1        -0.1855
      10    H6      21.176266   19.689734   21.649501 H          1 MOL1         0.0755
      11    H7      20.026378   20.938512   21.187629 H          1 MOL1         0.0755
      12    C5      19.551757   19.983995   23.071210 C.3        1 MOL1        -0.1855
      13    H8      18.483006   20.238421   23.050927 H          1 MOL1         0.0755
      14    H9      20.053773   20.797551   23.613066 H          1 MOL1         0.0755
      15    C6      19.754903   18.662887   23.857635 C.3        1 MOL1        -0.1958
      16    H10     19.190673   17.845999   23.393910 H          1 MOL1         0.0753
      17    H11     20.812961   18.375129   23.847342 H          1 MOL1         0.0753
      18    C7      19.307611   18.767918   25.311192 C.2        1 MOL1         0.6174
      19    O1      20.123078   19.126281   26.137827 O.co2      1 MOL1        -0.6695
      20    O2      18.150392   18.507903   25.575672 O.co2      1 MOL1        -0.6695
@<TRIPOS>BOND
    1     1     2    1
    2     1     3    1
    3     1     4    2
    4     4     5    1
    5     4     6    1
    6     6     7    1
    7     6     8    1
    8     6     9    1
    9     9    10    1
   10     9    11    1
   11     9    12    1
   12    12    13    1
   13    12    14    1
   14    12    15    1
   15    15    16    1
   16    15    17    1
   17    15    18    1
   18    18    19    1
   19    18    20    2
@<TRIPOS>SUBSTRUCTURE
       1 MOL1            1 RESIDUE      1      MOL     
@<SCITEGIC>MOL_PROPERTY
VConf Rank
SciTegic.value.IntegerValue
4

@<SCITEGIC>MOL_PROPERTY
Conf_Id
SciTegic.value.IntegerValue
38

@<SCITEGIC>MOL_PROPERTY
Delta U+W
SciTegic.value.DoubleValue
-0.381

@<SCITEGIC>MOL_PROPERTY
U+W
SciTegic.value.DoubleValue
-52.126

@<SCITEGIC>MOL_PROPERTY
Grad RMS
SciTegic.value.DoubleValue
0.000000

@<SCITEGIC>MOL_PROPERTY
U
SciTegic.value.DoubleValue
7.601

@<SCITEGIC>MOL_PROPERTY
W
SciTegic.value.DoubleValue
-59.727

@<SCITEGIC>MOL_PROPERTY
W(PB)
SciTegic.value.DoubleValue
-61.964

@<SCITEGIC>MOL_PROPERTY
W(SA)
SciTegic.value.DoubleValue
2.236

@<SCITEGIC>MOL_PROPERTY
Valence
SciTegic.value.DoubleValue
9.602

@<SCITEGIC>MOL_PROPERTY
Coulomb
SciTegic.value.DoubleValue
-2.686

@<SCITEGIC>MOL_PROPERTY
VdW
SciTegic.value.DoubleValue
0.685

@<SCITEGIC>MOL_PROPERTY
VdW6
SciTegic.value.DoubleValue
-6.453

@<SCITEGIC>MOL_PROPERTY
VdW12
SciTegic.value.DoubleValue
7.139

@<SCITEGIC>MOL_PROPERTY
Bond
SciTegic.value.DoubleValue
0.125

@<SCITEGIC>MOL_PROPERTY
Angle
SciTegic.value.DoubleValue
2.485

@<SCITEGIC>MOL_PROPERTY
Pdih
SciTegic.value.DoubleValue
6.991

@<SCITEGIC>MOL_PROPERTY
Idih
SciTegic.value.DoubleValue
0.001

@<SCITEGIC>MOL_PROPERTY
Tether
SciTegic.value.DoubleValue
0.000

@<TRIPOS>MOLECULE
guest-s22_confgen4.mol2 : confsearch ligand conformer 5
          20          19           1
SMALL
USER_CHARGES
 
@<TRIPOS>ATOM
       1    C1      20.892133   18.575325   18.737820 C.2        1 MOL1        -0.2535
       2    H1      21.096204   19.626545   18.540665 H          1 MOL1         0.0845
       3    H2      21.417150   17.840522   18.129798 H          1 MOL1         0.0845
       4    C2      20.033928   18.197634   19.688870 C.2        1 MOL1        -0.1324
       5    H3      19.844507   17.139967   19.870860 H          1 MOL1         0.0833
       6    C3      19.268847   19.159079   20.570870 C.3        1 MOL1        -0.1813
       7    H4      18.207511   18.877262   20.587363 H          1 MOL1         0.0753
       8    H5      19.319674   20.175995   20.158511 H          1 MOL1         0.0753
       9    C4      19.826097   19.158939   22.009788 C.3        1 MOL1        -0.1855
      10    H6      19.771954   18.141268   22.420696 H          1 MOL1         0.0755
      11    H7      20.888992   19.436574   21.988726 H          1 MOL1         0.0755
      12    C5      19.053017   20.134625   22.925602 C.3        1 MOL1        -0.1855
      13    H8      17.991147   19.853337   22.957296 H          1 MOL1         0.0755
      14    H9      19.099598   21.145728   22.498889 H          1 MOL1         0.0755
      15    C6      19.617815   20.171370   24.369399 C.3        1 MOL1        -0.1958
      16    H10     20.685002   20.423729   24.352538 H          1 MOL1         0.0753
      17    H11     19.113972   20.960305   24.940100 H          1 MOL1         0.0753
      18    C7      19.438014   18.865862   25.138936 C.2        1 MOL1         0.6174
      19    O1      20.409442   18.153466   25.299526 O.co2      1 MOL1        -0.6695
      20    O2      18.331708   18.601699   25.567190 O.co2      1 MOL1        -0.6695
@<TRIPOS>BOND
    1     1     2    1
    2     1     3    1
    3     1     4    2
    4     4     5    1
    5     4     6    1
    6     6     7    1
    7     6     8    1
    8     6     9    1
    9     9    10    1
   10     9    11    1
   11     9    12    1
   12    12    13    1
   13    12    14    1
   14    12    15    1
   15    15    16    1
   16    15    17    1
   17    15    18    1
   18    18    19    1
   19    18    20    2
@<TRIPOS>SUBSTRUCTURE
       1 MOL1            1 RESIDUE      1      MOL     
@<SCITEGIC>MOL_PROPERTY
VConf Rank
SciTegic.value.IntegerValue
5

@<SCITEGIC>MOL_PROPERTY
Conf_Id
SciTegic.value.IntegerValue
58

@<SCITEGIC>MOL_PROPERTY
Delta U+W
SciTegic.value.DoubleValue
0.019

@<SCITEGIC>MOL_PROPERTY
U+W
SciTegic.value.DoubleValue
-51.727

@<SCITEGIC>MOL_PROPERTY
Grad RMS
SciTegic.value.DoubleValue
0.000000

@<SCITEGIC>MOL_PROPERTY
U
SciTegic.value.DoubleValue
8.963

@<SCITEGIC>MOL_PROPERTY
W
SciTegic.value.DoubleValue
-60.690

@<SCITEGIC>MOL_PROPERTY
W(PB)
SciTegic.value.DoubleValue
-62.934

@<SCITEGIC>MOL_PROPERTY
W(SA)
SciTegic.value.DoubleValue
2.244

@<SCITEGIC>MOL_PROPERTY
Valence
SciTegic.value.DoubleValue
9.327

@<SCITEGIC>MOL_PROPERTY
Coulomb
SciTegic.value.DoubleValue
-0.780

@<SCITEGIC>MOL_PROPERTY
VdW
SciTegic.value.DoubleValue
0.417

@<SCITEGIC>MOL_PROPERTY
VdW6
SciTegic.value.DoubleValue
-6.635

@<SCITEGIC>MOL_PROPERTY
VdW12
SciTegic.value.DoubleValue
7.052

@<SCITEGIC>MOL_PROPERTY
Bond
SciTegic.value.DoubleValue
0.105

@<SCITEGIC>MOL_PROPERTY
Angle
SciTegic.value.DoubleValue
2.399

@<SCITEGIC>MOL_PROPERTY
Pdih
SciTegic.value.DoubleValue
6.822

@<SCITEGIC>MOL_PROPERTY
Idih
SciTegic.value.DoubleValue
0.000

@<SCITEGIC>MOL_PROPERTY
Tether
SciTegic.value.DoubleValue
0.000

@<TRIPOS>MOLECULE
guest-s22_confgen4.mol2 : confsearch ligand conformer 6
          20          19           1
SMALL
USER_CHARGES
 
@<TRIPOS>ATOM
       1    C1      19.543925   18.533235   18.554448 C.2        1 MOL1        -0.2535
       2    H1      19.310624   19.566542   18.302607 H          1 MOL1         0.0845
       3    H2      19.262305   17.766408   17.834772 H          1 MOL1         0.0845
       4    C2      20.149394   18.214271   19.701329 C.2        1 MOL1        -0.1324
       5    H3      20.373181   17.173546   19.934721 H          1 MOL1         0.0833
       6    C3      20.570124   19.222848   20.746987 C.3        1 MOL1        -0.1813
       7    H4      20.544094   20.238083   20.328226 H          1 MOL1         0.0753
       8    H5      21.609332   19.030572   21.045654 H          1 MOL1         0.0753
       9    C4      19.654728   19.154298   21.987295 C.3        1 MOL1        -0.1855
      10    H6      18.615591   19.342405   21.683846 H          1 MOL1         0.0755
      11    H7      19.684348   18.138600   22.405520 H          1 MOL1         0.0755
      12    C5      20.073071   20.177186   23.067581 C.3        1 MOL1        -0.1855
      13    H8      20.055551   21.187202   22.636139 H          1 MOL1         0.0755
      14    H9      21.108692   19.985119   23.381100 H          1 MOL1         0.0755
      15    C6      19.145950   20.144795   24.310276 C.3        1 MOL1        -0.1958
      16    H10     19.412617   20.964305   24.987971 H          1 MOL1         0.0753
      17    H11     18.103753   20.307416   24.009880 H          1 MOL1         0.0753
      18    C7      19.225746   18.847354   25.109741 C.2        1 MOL1         0.6174
      19    O1      20.197860   18.670005   25.817299 O.co2      1 MOL1        -0.6695
      20    O2      18.310201   18.054009   25.013044 O.co2      1 MOL1        -0.6695
@<TRIPOS>BOND
    1     1     2    1
    2     1     3    1
    3     1     4    2
    4     4     5    1
    5     4     6    1
    6     6     7    1
    7     6     8    1
    8     6     9    1
    9     9    10    1
   10     9    11    1
   11     9    12    1
   12    12    13    1
   13    12    14    1
   14    12    15    1
   15    15    16    1
   16    15    17    1
   17    15    18    1
   18    18    19    1
   19    18    20    2
@<TRIPOS>SUBSTRUCTURE
       1 MOL1            1 RESIDUE      1      MOL     
@<SCITEGIC>MOL_PROPERTY
VConf Rank
SciTegic.value.IntegerValue
6

@<SCITEGIC>MOL_PROPERTY
Conf_Id
SciTegic.value.IntegerValue
54

@<SCITEGIC>MOL_PROPERTY
Delta U+W
SciTegic.value.DoubleValue
-0.048

@<SCITEGIC>MOL_PROPERTY
U+W
SciTegic.value.DoubleValue
-51.793

@<SCITEGIC>MOL_PROPERTY
Grad RMS
SciTegic.value.DoubleValue
0.000000

@<SCITEGIC>MOL_PROPERTY
U
SciTegic.value.DoubleValue
8.964

@<SCITEGIC>MOL_PROPERTY
W
SciTegic.value.DoubleValue
-60.756

@<SCITEGIC>MOL_PROPERTY
W(PB)
SciTegic.value.DoubleValue
-63.007

@<SCITEGIC>MOL_PROPERTY
W(SA)
SciTegic.value.DoubleValue
2.251

@<SCITEGIC>MOL_PROPERTY
Valence
SciTegic.value.DoubleValue
9.327

@<SCITEGIC>MOL_PROPERTY
Coulomb
SciTegic.value.DoubleValue
-0.780

@<SCITEGIC>MOL_PROPERTY
VdW
SciTegic.value.DoubleValue
0.417

@<SCITEGIC>MOL_PROPERTY
VdW6
SciTegic.value.DoubleValue
-6.635

@<SCITEGIC>MOL_PROPERTY
VdW12
SciTegic.value.DoubleValue
7.052

@<SCITEGIC>MOL_PROPERTY
Bond
SciTegic.value.DoubleValue
0.105

@<SCITEGIC>MOL_PROPERTY
Angle
SciTegic.value.DoubleValue
2.399

@<SCITEGIC>MOL_PROPERTY
Pdih
SciTegic.value.DoubleValue
6.822

@<SCITEGIC>MOL_PROPERTY
Idih
SciTegic.value.DoubleValue
0.000

@<SCITEGIC>MOL_PROPERTY
Tether
SciTegic.value.DoubleValue
0.000

@<TRIPOS>MOLECULE
guest-s22_confgen4.mol2 : confsearch ligand conformer 7
          20          19           1
SMALL
USER_CHARGES
 
@<TRIPOS>ATOM
       1    C1      20.804264   18.956615   18.785068 C.2        1 MOL1        -0.2535
       2    H1      21.097346   19.716653   18.062826 H          1 MOL1         0.0845
       3    H2      21.352450   18.015945   18.773144 H          1 MOL1         0.0845
       4    C2      19.812315   19.174666   19.652340 C.2        1 MOL1        -0.1324
       5    H3      19.274291   20.122151   19.644862 H          1 MOL1         0.0833
       6    C3      19.346221   18.163790   20.678367 C.3        1 MOL1        -0.1813
       7    H4      19.671598   17.157759   20.380774 H          1 MOL1         0.0753
       8    H5      18.248693   18.136155   20.705082 H          1 MOL1         0.0753
       9    C4      19.894770   18.463047   22.091782 C.3        1 MOL1        -0.1855
      10    H6      19.636972   17.624674   22.753336 H          1 MOL1         0.0755
      11    H7      20.992001   18.507175   22.056090 H          1 MOL1         0.0755
      12    C5      19.336506   19.777068   22.688267 C.3        1 MOL1        -0.1855
      13    H8      18.238554   19.739086   22.710542 H          1 MOL1         0.0755
      14    H9      19.610860   20.619613   22.039930 H          1 MOL1         0.0755
      15    C6      19.869962   20.056194   24.117496 C.3        1 MOL1        -0.1958
      16    H10     20.966674   20.063591   24.117563 H          1 MOL1         0.0753
      17    H11     19.545762   21.052160   24.441381 H          1 MOL1         0.0753
      18    C7      19.389098   19.056990   25.165921 C.2        1 MOL1         0.6174
      19    O1      20.172104   18.216164   25.562108 O.co2      1 MOL1        -0.6695
      20    O2      18.245760   19.153466   25.566652 O.co2      1 MOL1        -0.6695
@<TRIPOS>BOND
    1     1     2    1
    2     1     3    1
    3     1     4    2
    4     4     5    1
    5     4     6    1
    6     6     7    1
    7     6     8    1
    8     6     9    1
    9     9    10    1
   10     9    11    1
   11     9    12    1
   12    12    13    1
   13    12    14    1
   14    12    15    1
   15    15    16    1
   16    15    17    1
   17    15    18    1
   18    18    19    1
   19    18    20    2
@<TRIPOS>SUBSTRUCTURE
       1 MOL1            1 RESIDUE      1      MOL     
@<SCITEGIC>MOL_PROPERTY
VConf Rank
SciTegic.value.IntegerValue
7

@<SCITEGIC>MOL_PROPERTY
Conf_Id
SciTegic.value.IntegerValue
27

@<SCITEGIC>MOL_PROPERTY
Delta U+W
SciTegic.value.DoubleValue
0.478

@<SCITEGIC>MOL_PROPERTY
U+W
SciTegic.value.DoubleValue
-51.267

@<SCITEGIC>MOL_PROPERTY
Grad RMS
SciTegic.value.DoubleValue
0.000000

@<SCITEGIC>MOL_PROPERTY
U
SciTegic.value.DoubleValue
9.192

@<SCITEGIC>MOL_PROPERTY
W
SciTegic.value.DoubleValue
-60.459

@<SCITEGIC>MOL_PROPERTY
W(PB)
SciTegic.value.DoubleValue
-62.649

@<SCITEGIC>MOL_PROPERTY
W(SA)
SciTegic.value.DoubleValue
2.190

@<SCITEGIC>MOL_PROPERTY
Valence
SciTegic.value.DoubleValue
9.572

@<SCITEGIC>MOL_PROPERTY
Coulomb
SciTegic.value.DoubleValue
-0.884

@<SCITEGIC>MOL_PROPERTY
VdW
SciTegic.value.DoubleValue
0.504

@<SCITEGIC>MOL_PROPERTY
VdW6
SciTegic.value.DoubleValue
-7.168

@<SCITEGIC>MOL_PROPERTY
VdW12
SciTegic.value.DoubleValue
7.672

@<SCITEGIC>MOL_PROPERTY
Bond
SciTegic.value.DoubleValue
0.127

@<SCITEGIC>MOL_PROPERTY
Angle
SciTegic.value.DoubleValue
2.504

@<SCITEGIC>MOL_PROPERTY
Pdih
SciTegic.value.DoubleValue
6.941

@<SCITEGIC>MOL_PROPERTY
Idih
SciTegic.value.DoubleValue
0.001

@<SCITEGIC>MOL_PROPERTY
Tether
SciTegic.value.DoubleValue
0.000

@<TRIPOS>MOLECULE
guest-s22_confgen4.mol2 : confsearch ligand conformer 8
          20          19           1
SMALL
USER_CHARGES
 
@<TRIPOS>ATOM
       1    C1      21.150212   19.334722   18.964428 C.2        1 MOL1        -0.2535
       2    H1      21.188488   18.372343   18.456621 H          1 MOL1         0.0845
       3    H2      21.930147   20.056886   18.729100 H          1 MOL1         0.0845
       4    C2      20.187556   19.620884   19.844816 C.2        1 MOL1        -0.1324
       5    H3      20.166214   20.591515   20.339500 H          1 MOL1         0.0833
       6    C3      19.069094   18.670716   20.216328 C.3        1 MOL1        -0.1813
       7    H4      18.963389   17.901445   19.439408 H          1 MOL1         0.0753
       8    H5      18.113437   19.211011   20.245686 H          1 MOL1         0.0753
       9    C4      19.316017   17.973456   21.573132 C.3        1 MOL1        -0.1855
      10    H6      18.544210   17.205951   21.721889 H          1 MOL1         0.0755
      11    H7      20.280490   17.447920   21.542975 H          1 MOL1         0.0755
      12    C5      19.291584   18.955490   22.766889 C.3        1 MOL1        -0.1855
      13    H8      18.336672   19.498923   22.780346 H          1 MOL1         0.0755
      14    H9      20.084848   19.706489   22.651066 H          1 MOL1         0.0755
      15    C6      19.482467   18.223390   24.118056 C.3        1 MOL1        -0.1958
      16    H10     18.689827   17.479276   24.261423 H          1 MOL1         0.0753
      17    H11     20.437945   17.685225   24.125033 H          1 MOL1         0.0753
      18    C7      19.463598   19.170851   25.312212 C.2        1 MOL1         0.6174
      19    O1      20.517149   19.652498   25.679239 O.co2      1 MOL1        -0.6695
      20    O2      18.393323   19.415993   25.832900 O.co2      1 MOL1        -0.6695
@<TRIPOS>BOND
    1     1     2    1
    2     1     3    1
    3     1     4    2
    4     4     5    1
    5     4     6    1
    6     6     7    1
    7     6     8    1
    8     6     9    1
    9     9    10    1
   10     9    11    1
   11     9    12    1
   12    12    13    1
   13    12    14    1
   14    12    15    1
   15    15    16    1
   16    15    17    1
   17    15    18    1
   18    18    19    1
   19    18    20    2
@<TRIPOS>SUBSTRUCTURE
       1 MOL1            1 RESIDUE      1      MOL     
@<SCITEGIC>MOL_PROPERTY
VConf Rank
SciTegic.value.IntegerValue
8

@<SCITEGIC>MOL_PROPERTY
Conf_Id
SciTegic.value.IntegerValue
41

@<SCITEGIC>MOL_PROPERTY
Delta U+W
SciTegic.value.DoubleValue
-0.634

@<SCITEGIC>MOL_PROPERTY
U+W
SciTegic.value.DoubleValue
-52.379

@<SCITEGIC>MOL_PROPERTY
Grad RMS
SciTegic.value.DoubleValue
0.000000

@<SCITEGIC>MOL_PROPERTY
U
SciTegic.value.DoubleValue
7.828

@<SCITEGIC>MOL_PROPERTY
W
SciTegic.value.DoubleValue
-60.207

@<SCITEGIC>MOL_PROPERTY
W(PB)
SciTegic.value.DoubleValue
-62.449

@<SCITEGIC>MOL_PROPERTY
W(SA)
SciTegic.value.DoubleValue
2.242

@<SCITEGIC>MOL_PROPERTY
Valence
SciTegic.value.DoubleValue
9.300

@<SCITEGIC>MOL_PROPERTY
Coulomb
SciTegic.value.DoubleValue
-2.080

@<SCITEGIC>MOL_PROPERTY
VdW
SciTegic.value.DoubleValue
0.608

@<SCITEGIC>MOL_PROPERTY
VdW6
SciTegic.value.DoubleValue
-6.341

@<SCITEGIC>MOL_PROPERTY
VdW12
SciTegic.value.DoubleValue
6.949

@<SCITEGIC>MOL_PROPERTY
Bond
SciTegic.value.DoubleValue
0.103

@<SCITEGIC>MOL_PROPERTY
Angle
SciTegic.value.DoubleValue
2.334

@<SCITEGIC>MOL_PROPERTY
Pdih
SciTegic.value.DoubleValue
6.862

@<SCITEGIC>MOL_PROPERTY
Idih
SciTegic.value.DoubleValue
0.001

@<SCITEGIC>MOL_PROPERTY
Tether
SciTegic.value.DoubleValue
0.000

@<TRIPOS>MOLECULE
guest-s22_confgen4.mol2 : confsearch ligand conformer 9
          20          19           1
SMALL
USER_CHARGES
 
@<TRIPOS>ATOM
       1    C1      19.756977   19.009606   18.667354 C.2        1 MOL1        -0.2535
       2    H1      19.325145   19.504620   17.799183 H          1 MOL1         0.0845
       3    H2      20.648376   18.405085   18.507618 H          1 MOL1         0.0845
       4    C2      19.212688   19.143141   19.879639 C.2        1 MOL1        -0.1324
       5    H3      18.320551   19.753410   20.018668 H          1 MOL1         0.0833
       6    C3      19.754642   18.486403   21.129671 C.3        1 MOL1        -0.1813
       7    H4      20.476847   17.702418   20.864792 H          1 MOL1         0.0753
       8    H5      18.930991   17.994758   21.663374 H          1 MOL1         0.0753
       9    C4      20.433784   19.523813   22.051475 C.3        1 MOL1        -0.1855
      10    H6      21.186849   20.074484   21.471118 H          1 MOL1         0.0755
      11    H7      19.692456   20.266308   22.377655 H          1 MOL1         0.0755
      12    C5      21.125846   18.895307   23.286069 C.3        1 MOL1        -0.1855
      13    H8      21.645804   19.688007   23.841638 H          1 MOL1         0.0755
      14    H9      21.902831   18.196271   22.948357 H          1 MOL1         0.0755
      15    C6      20.162959   18.156698   24.255463 C.3        1 MOL1        -0.1958
      16    H10     19.681630   17.310113   23.752847 H          1 MOL1         0.0753
      17    H11     20.738721   17.736103   25.088111 H          1 MOL1         0.0753
      18    C7      19.080089   19.047879   24.857065 C.2        1 MOL1         0.6174
      19    O1      19.410292   19.862386   25.696678 O.co2      1 MOL1        -0.6695
      20    O2      17.933724   18.892767   24.484587 O.co2      1 MOL1        -0.6695
@<TRIPOS>BOND
    1     1     2    1
    2     1     3    1
    3     1     4    2
    4     4     5    1
    5     4     6    1
    6     6     7    1
    7     6     8    1
    8     6     9    1
    9     9    10    1
   10     9    11    1
   11     9    12    1
   12    12    13    1
   13    12    14    1
   14    12    15    1
   15    15    16    1
   16    15    17    1
   17    15    18    1
   18    18    19    1
   19    18    20    2
@<TRIPOS>SUBSTRUCTURE
       1 MOL1            1 RESIDUE      1      MOL     
@<SCITEGIC>MOL_PROPERTY
VConf Rank
SciTegic.value.IntegerValue
9

@<SCITEGIC>MOL_PROPERTY
Conf_Id
SciTegic.value.IntegerValue
84

@<SCITEGIC>MOL_PROPERTY
Delta U+W
SciTegic.value.DoubleValue
0.942

@<SCITEGIC>MOL_PROPERTY
U+W
SciTegic.value.DoubleValue
-50.803

@<SCITEGIC>MOL_PROPERTY
Grad RMS
SciTegic.value.DoubleValue
0.000000

@<SCITEGIC>MOL_PROPERTY
U
SciTegic.value.DoubleValue
10.196

@<SCITEGIC>MOL_PROPERTY
W
SciTegic.value.DoubleValue
-60.999

@<SCITEGIC>MOL_PROPERTY
W(PB)
SciTegic.value.DoubleValue
-63.182

@<SCITEGIC>MOL_PROPERTY
W(SA)
SciTegic.value.DoubleValue
2.182

@<SCITEGIC>MOL_PROPERTY
Valence
SciTegic.value.DoubleValue
9.837

@<SCITEGIC>MOL_PROPERTY
Coulomb
SciTegic.value.DoubleValue
0.032

@<SCITEGIC>MOL_PROPERTY
VdW
SciTegic.value.DoubleValue
0.328

@<SCITEGIC>MOL_PROPERTY
VdW6
SciTegic.value.DoubleValue
-7.642

@<SCITEGIC>MOL_PROPERTY
VdW12
SciTegic.value.DoubleValue
7.969

@<SCITEGIC>MOL_PROPERTY
Bond
SciTegic.value.DoubleValue
0.151

@<SCITEGIC>MOL_PROPERTY
Angle
SciTegic.value.DoubleValue
2.748

@<SCITEGIC>MOL_PROPERTY
Pdih
SciTegic.value.DoubleValue
6.937

@<SCITEGIC>MOL_PROPERTY
Idih
SciTegic.value.DoubleValue
0.001

@<SCITEGIC>MOL_PROPERTY
Tether
SciTegic.value.DoubleValue
0.000

@<TRIPOS>MOLECULE
guest-s22_confgen4.mol2 : confsearch ligand conformer 10
          20          19           1
SMALL
USER_CHARGES
 
@<TRIPOS>ATOM
       1    C1      20.439700   17.670677   19.079180 C.2        1 MOL1        -0.2535
       2    H1      21.241791   17.305623   18.439924 H          1 MOL1         0.0845
       3    H2      19.590794   17.009276   19.244975 H          1 MOL1         0.0845
       4    C2      20.499870   18.882093   19.638210 C.2        1 MOL1        -0.1324
       5    H3      21.359088   19.528374   19.460160 H          1 MOL1         0.0833
       6    C3      19.425682   19.456268   20.534932 C.3        1 MOL1        -0.1813
       7    H4      18.504337   18.863772   20.452097 H          1 MOL1         0.0753
       8    H5      19.177683   20.474122   20.205459 H          1 MOL1         0.0753
       9    C4      19.886102   19.486221   22.007405 C.3        1 MOL1        -0.1855
      10    H6      20.138565   18.465939   22.328290 H          1 MOL1         0.0755
      11    H7      20.805307   20.082047   22.091684 H          1 MOL1         0.0755
      12    C5      18.800350   20.073813   22.937035 C.3        1 MOL1        -0.1855
      13    H8      17.883769   19.471715   22.865832 H          1 MOL1         0.0755
      14    H9      18.541111   21.085624   22.597029 H          1 MOL1         0.0755
      15    C6      19.256128   20.142005   24.417744 C.3        1 MOL1        -0.1958
      16    H10     20.185844   20.717670   24.501954 H          1 MOL1         0.0753
      17    H11     18.500285   20.671251   25.009838 H          1 MOL1         0.0753
      18    C7      19.468434   18.776325   25.064845 C.2        1 MOL1         0.6174
      19    O1      20.608348   18.395086   25.244353 O.co2      1 MOL1        -0.6695
      20    O2      18.486386   18.135512   25.384296 O.co2      1 MOL1        -0.6695
@<TRIPOS>BOND
    1     1     2    1
    2     1     3    1
    3     1     4    2
    4     4     5    1
    5     4     6    1
    6     6     7    1
    7     6     8    1
    8     6     9    1
    9     9    10    1
   10     9    11    1
   11     9    12    1
   12    12    13    1
   13    12    14    1
   14    12    15    1
   15    15    16    1
   16    15    17    1
   17    15    18    1
   18    18    19    1
   19    18    20    2
@<TRIPOS>SUBSTRUCTURE
       1 MOL1            1 RESIDUE      1      MOL     
@<SCITEGIC>MOL_PROPERTY
VConf Rank
SciTegic.value.IntegerValue
10

@<SCITEGIC>MOL_PROPERTY
Conf_Id
SciTegic.value.IntegerValue
81

@<SCITEGIC>MOL_PROPERTY
Delta U+W
SciTegic.value.DoubleValue
-0.051

@<SCITEGIC>MOL_PROPERTY
U+W
SciTegic.value.DoubleValue
-51.796

@<SCITEGIC>MOL_PROPERTY
Grad RMS
SciTegic.value.DoubleValue
0.000000

@<SCITEGIC>MOL_PROPERTY
U
SciTegic.value.DoubleValue
9.412

@<SCITEGIC>MOL_PROPERTY
W
SciTegic.value.DoubleValue
-61.209

@<SCITEGIC>MOL_PROPERTY
W(PB)
SciTegic.value.DoubleValue
-63.452

@<SCITEGIC>MOL_PROPERTY
W(SA)
SciTegic.value.DoubleValue
2.243

@<SCITEGIC>MOL_PROPERTY
Valence
SciTegic.value.DoubleValue
9.329

@<SCITEGIC>MOL_PROPERTY
Coulomb
SciTegic.value.DoubleValue
-0.323

@<SCITEGIC>MOL_PROPERTY
VdW
SciTegic.value.DoubleValue
0.406

@<SCITEGIC>MOL_PROPERTY
VdW6
SciTegic.value.DoubleValue
-6.640

@<SCITEGIC>MOL_PROPERTY
VdW12
SciTegic.value.DoubleValue
7.046

@<SCITEGIC>MOL_PROPERTY
Bond
SciTegic.value.DoubleValue
0.105

@<SCITEGIC>MOL_PROPERTY
Angle
SciTegic.value.DoubleValue
2.401

@<SCITEGIC>MOL_PROPERTY
Pdih
SciTegic.value.DoubleValue
6.823

@<SCITEGIC>MOL_PROPERTY
Idih
SciTegic.value.DoubleValue
0.000

@<SCITEGIC>MOL_PROPERTY
Tether
SciTegic.value.DoubleValue
0.000

@<TRIPOS>MOLECULE
guest-s22_confgen4.mol2 : confsearch ligand conformer 11
          20          19           1
SMALL
USER_CHARGES
 
@<TRIPOS>ATOM
       1    C1      20.465698   18.968980   18.900898 C.2        1 MOL1        -0.2535
       2    H1      20.181891   17.986911   18.526125 H          1 MOL1         0.0845
       3    H2      20.686372   19.741306   18.166078 H          1 MOL1         0.0845
       4    C2      20.538596   19.221252   20.210373 C.2        1 MOL1        -0.1324
       5    H3      20.826961   20.210483   20.564620 H          1 MOL1         0.0833
       6    C3      20.252012   18.198014   21.288510 C.3        1 MOL1        -0.1813
       7    H4      21.023412   18.246023   22.067978 H          1 MOL1         0.0753
       8    H5      20.316898   17.186531   20.865535 H          1 MOL1         0.0753
       9    C4      18.849349   18.378288   21.916796 C.3        1 MOL1        -0.1855
      10    H6      18.090946   18.239938   21.134161 H          1 MOL1         0.0755
      11    H7      18.681270   17.576088   22.648367 H          1 MOL1         0.0755
      12    C5      18.616731   19.750371   22.600439 C.3        1 MOL1        -0.1855
      13    H8      17.588245   19.781562   22.985699 H          1 MOL1         0.0755
      14    H9      18.684044   20.549520   21.850422 H          1 MOL1         0.0755
      15    C6      19.594580   20.061609   23.766258 C.3        1 MOL1        -0.1958
      16    H10     20.626676   20.113141   23.401343 H          1 MOL1         0.0753
      17    H11     19.362513   21.049536   24.180688 H          1 MOL1         0.0753
      18    C7      19.531784   19.060258   24.915996 C.2        1 MOL1         0.6174
      19    O1      20.464296   18.295346   25.065715 O.co2      1 MOL1        -0.6695
      20    O2      18.557954   19.083882   25.643016 O.co2      1 MOL1        -0.6695
@<TRIPOS>BOND
    1     1     2    1
    2     1     3    1
    3     1     4    2
    4     4     5    1
    5     4     6    1
    6     6     7    1
    7     6     8    1
    8     6     9    1
    9     9    10    1
   10     9    11    1
   11     9    12    1
   12    12    13    1
   13    12    14    1
   14    12    15    1
   15    15    16    1
   16    15    17    1
   17    15    18    1
   18    18    19    1
   19    18    20    2
@<TRIPOS>SUBSTRUCTURE
       1 MOL1            1 RESIDUE      1      MOL     
@<SCITEGIC>MOL_PROPERTY
VConf Rank
SciTegic.value.IntegerValue
11

@<SCITEGIC>MOL_PROPERTY
Conf_Id
SciTegic.value.IntegerValue
86

@<SCITEGIC>MOL_PROPERTY
Delta U+W
SciTegic.value.DoubleValue
1.248

@<SCITEGIC>MOL_PROPERTY
U+W
SciTegic.value.DoubleValue
-50.498

@<SCITEGIC>MOL_PROPERTY
Grad RMS
SciTegic.value.DoubleValue
0.000000

@<SCITEGIC>MOL_PROPERTY
U
SciTegic.value.DoubleValue
10.404

@<SCITEGIC>MOL_PROPERTY
W
SciTegic.value.DoubleValue
-60.901

@<SCITEGIC>MOL_PROPERTY
W(PB)
SciTegic.value.DoubleValue
-63.061

@<SCITEGIC>MOL_PROPERTY
W(SA)
SciTegic.value.DoubleValue
2.159

@<SCITEGIC>MOL_PROPERTY
Valence
SciTegic.value.DoubleValue
10.021

@<SCITEGIC>MOL_PROPERTY
Coulomb
SciTegic.value.DoubleValue
0.094

@<SCITEGIC>MOL_PROPERTY
VdW
SciTegic.value.DoubleValue
0.289

@<SCITEGIC>MOL_PROPERTY
VdW6
SciTegic.value.DoubleValue
-8.409

@<SCITEGIC>MOL_PROPERTY
VdW12
SciTegic.value.DoubleValue
8.698

@<SCITEGIC>MOL_PROPERTY
Bond
SciTegic.value.DoubleValue
0.179

@<SCITEGIC>MOL_PROPERTY
Angle
SciTegic.value.DoubleValue
2.939

@<SCITEGIC>MOL_PROPERTY
Pdih
SciTegic.value.DoubleValue
6.902

@<SCITEGIC>MOL_PROPERTY
Idih
SciTegic.value.DoubleValue
0.001

@<SCITEGIC>MOL_PROPERTY
Tether
SciTegic.value.DoubleValue
0.000

@<TRIPOS>MOLECULE
guest-s22_confgen4.mol2 : confsearch ligand conformer 12
          20          19           1
SMALL
USER_CHARGES
 
@<TRIPOS>ATOM
       1    C1      21.022353   18.755646   19.151298 C.2        1 MOL1        -0.2535
       2    H1      21.581269   19.354330   18.434154 H          1 MOL1         0.0845
       3    H2      21.468418   17.817153   19.476381 H          1 MOL1         0.0845
       4    C2      19.837354   19.161878   19.614740 C.2        1 MOL1        -0.1324
       5    H3      19.409378   20.105792   19.278210 H          1 MOL1         0.0833
       6    C3      19.003546   18.385326   20.611627 C.3        1 MOL1        -0.1813
       7    H4      19.401680   17.369772   20.741242 H          1 MOL1         0.0753
       8    H5      17.985839   18.270634   20.215473 H          1 MOL1         0.0753
       9    C4      18.926759   19.088171   21.985736 C.3        1 MOL1        -0.1855
      10    H6      18.532327   20.105346   21.856504 H          1 MOL1         0.0755
      11    H7      18.205491   18.550820   22.616638 H          1 MOL1         0.0755
      12    C5      20.295470   19.144310   22.704817 C.3        1 MOL1        -0.1855
      13    H8      21.015699   19.687197   22.078229 H          1 MOL1         0.0755
      14    H9      20.691406   18.127060   22.830471 H          1 MOL1         0.0755
      15    C6      20.214223   19.839482   24.088712 C.3        1 MOL1        -0.1958
      16    H10     21.224343   19.961432   24.497033 H          1 MOL1         0.0753
      17    H11     19.790857   20.845622   23.982779 H          1 MOL1         0.0753
      18    C7      19.394212   19.071821   25.121671 C.2        1 MOL1         0.6174
      19    O1      19.897216   18.094647   25.640561 O.co2      1 MOL1        -0.6695
      20    O2      18.279867   19.476719   25.388840 O.co2      1 MOL1        -0.6695
@<TRIPOS>BOND
    1     1     2    1
    2     1     3    1
    3     1     4    2
    4     4     5    1
    5     4     6    1
    6     6     7    1
    7     6     8    1
    8     6     9    1
    9     9    10    1
   10     9    11    1
   11     9    12    1
   12    12    13    1
   13    12    14    1
   14    12    15    1
   15    15    16    1
   16    15    17    1
   17    15    18    1
   18    18    19    1
   19    18    20    2
@<TRIPOS>SUBSTRUCTURE
       1 MOL1            1 RESIDUE      1      MOL     
@<SCITEGIC>MOL_PROPERTY
VConf Rank
SciTegic.value.IntegerValue
12

@<SCITEGIC>MOL_PROPERTY
Conf_Id
SciTegic.value.IntegerValue
28

@<SCITEGIC>MOL_PROPERTY
Delta U+W
SciTegic.value.DoubleValue
0.446

@<SCITEGIC>MOL_PROPERTY
U+W
SciTegic.value.DoubleValue
-51.299

@<SCITEGIC>MOL_PROPERTY
Grad RMS
SciTegic.value.DoubleValue
0.000000

@<SCITEGIC>MOL_PROPERTY
U
SciTegic.value.DoubleValue
9.295

@<SCITEGIC>MOL_PROPERTY
W
SciTegic.value.DoubleValue
-60.594

@<SCITEGIC>MOL_PROPERTY
W(PB)
SciTegic.value.DoubleValue
-62.806

@<SCITEGIC>MOL_PROPERTY
W(SA)
SciTegic.value.DoubleValue
2.212

@<SCITEGIC>MOL_PROPERTY
Valence
SciTegic.value.DoubleValue
9.495

@<SCITEGIC>MOL_PROPERTY
Coulomb
SciTegic.value.DoubleValue
-0.610

@<SCITEGIC>MOL_PROPERTY
VdW
SciTegic.value.DoubleValue
0.409

@<SCITEGIC>MOL_PROPERTY
VdW6
SciTegic.value.DoubleValue
-7.332

@<SCITEGIC>MOL_PROPERTY
VdW12
SciTegic.value.DoubleValue
7.741

@<SCITEGIC>MOL_PROPERTY
Bond
SciTegic.value.DoubleValue
0.126

@<SCITEGIC>MOL_PROPERTY
Angle
SciTegic.value.DoubleValue
2.497

@<SCITEGIC>MOL_PROPERTY
Pdih
SciTegic.value.DoubleValue
6.872

@<SCITEGIC>MOL_PROPERTY
Idih
SciTegic.value.DoubleValue
0.000

@<SCITEGIC>MOL_PROPERTY
Tether
SciTegic.value.DoubleValue
0.000

@<TRIPOS>MOLECULE
guest-s22_confgen4.mol2 : confsearch ligand conformer 13
          20          19           1
SMALL
USER_CHARGES
 
@<TRIPOS>ATOM
       1    C1      20.251951   17.767276   19.430319 C.2        1 MOL1        -0.2535
       2    H1      21.080179   17.505023   20.085114 H          1 MOL1         0.0845
       3    H2      20.179744   17.225884   18.488607 H          1 MOL1         0.0845
       4    C2      19.352407   18.704480   19.750391 C.2        1 MOL1        -0.1324
       5    H3      18.542888   18.921540   19.053896 H          1 MOL1         0.0833
       6    C3      19.322439   19.540138   21.019340 C.3        1 MOL1        -0.1813
       7    H4      18.389810   19.322160   21.555390 H          1 MOL1         0.0753
       8    H5      19.266713   20.600637   20.740076 H          1 MOL1         0.0753
       9    C4      20.529327   19.331848   21.967305 C.3        1 MOL1        -0.1855
      10    H6      20.543333   18.292808   22.324197 H          1 MOL1         0.0755
      11    H7      21.458771   19.482713   21.401560 H          1 MOL1         0.0755
      12    C5      20.537665   20.298034   23.177873 C.3        1 MOL1        -0.1855
      13    H8      20.574282   21.333729   22.814029 H          1 MOL1         0.0755
      14    H9      21.463148   20.140355   23.748861 H          1 MOL1         0.0755
      15    C6      19.327460   20.138357   24.138375 C.3        1 MOL1        -0.1958
      16    H10     19.413130   20.866492   24.953322 H          1 MOL1         0.0753
      17    H11     18.388704   20.363403   23.619733 H          1 MOL1         0.0753
      18    C7      19.215011   18.756447   24.776016 C.2        1 MOL1         0.6174
      19    O1      20.037896   18.443954   25.614264 O.co2      1 MOL1        -0.6695
      20    O2      18.296844   18.037468   24.434116 O.co2      1 MOL1        -0.6695
@<TRIPOS>BOND
    1     1     2    1
    2     1     3    1
    3     1     4    2
    4     4     5    1
    5     4     6    1
    6     6     7    1
    7     6     8    1
    8     6     9    1
    9     9    10    1
   10     9    11    1
   11     9    12    1
   12    12    13    1
   13    12    14    1
   14    12    15    1
   15    15    16    1
   16    15    17    1
   17    15    18    1
   18    18    19    1
   19    18    20    2
@<TRIPOS>SUBSTRUCTURE
       1 MOL1            1 RESIDUE      1      MOL     
@<SCITEGIC>MOL_PROPERTY
VConf Rank
SciTegic.value.IntegerValue
13

@<SCITEGIC>MOL_PROPERTY
Conf_Id
SciTegic.value.IntegerValue
53

@<SCITEGIC>MOL_PROPERTY
Delta U+W
SciTegic.value.DoubleValue
0.549

@<SCITEGIC>MOL_PROPERTY
U+W
SciTegic.value.DoubleValue
-51.197

@<SCITEGIC>MOL_PROPERTY
Grad RMS
SciTegic.value.DoubleValue
0.000000

@<SCITEGIC>MOL_PROPERTY
U
SciTegic.value.DoubleValue
10.870

@<SCITEGIC>MOL_PROPERTY
W
SciTegic.value.DoubleValue
-62.067

@<SCITEGIC>MOL_PROPERTY
W(PB)
SciTegic.value.DoubleValue
-64.228

@<SCITEGIC>MOL_PROPERTY
W(SA)
SciTegic.value.DoubleValue
2.161

@<SCITEGIC>MOL_PROPERTY
Valence
SciTegic.value.DoubleValue
8.803

@<SCITEGIC>MOL_PROPERTY
Coulomb
SciTegic.value.DoubleValue
1.020

@<SCITEGIC>MOL_PROPERTY
VdW
SciTegic.value.DoubleValue
1.048

@<SCITEGIC>MOL_PROPERTY
VdW6
SciTegic.value.DoubleValue
-8.312

@<SCITEGIC>MOL_PROPERTY
VdW12
SciTegic.value.DoubleValue
9.360

@<SCITEGIC>MOL_PROPERTY
Bond
SciTegic.value.DoubleValue
0.212

@<SCITEGIC>MOL_PROPERTY
Angle
SciTegic.value.DoubleValue
3.379

@<SCITEGIC>MOL_PROPERTY
Pdih
SciTegic.value.DoubleValue
5.211

@<SCITEGIC>MOL_PROPERTY
Idih
SciTegic.value.DoubleValue
0.001

@<SCITEGIC>MOL_PROPERTY
Tether
SciTegic.value.DoubleValue
0.000

@<TRIPOS>MOLECULE
guest-s22_confgen4.mol2 : confsearch ligand conformer 14
          20          19           1
SMALL
USER_CHARGES
 
@<TRIPOS>ATOM
       1    C1      20.198661   18.342209   19.347426 C.2        1 MOL1        -0.2535
       2    H1      19.153302   18.048165   19.411162 H          1 MOL1         0.0845
       3    H2      20.808702   17.839394   18.599128 H          1 MOL1         0.0845
       4    C2      20.723674   19.281850   20.141210 C.2        1 MOL1        -0.1324
       5    H3      21.776562   19.541194   20.034116 H          1 MOL1         0.0833
       6    C3      19.994237   20.056314   21.226574 C.3        1 MOL1        -0.1813
       7    H4      19.704914   21.036491   20.825393 H          1 MOL1         0.0753
       8    H5      20.698032   20.283415   22.037548 H          1 MOL1         0.0753
       9    C4      18.744562   19.363183   21.829612 C.3        1 MOL1        -0.1855
      10    H6      18.272161   20.053027   22.542206 H          1 MOL1         0.0755
      11    H7      18.000059   19.201002   21.039209 H          1 MOL1         0.0755
      12    C5      19.030507   18.018383   22.548364 C.3        1 MOL1        -0.1855
      13    H8      19.435620   17.294391   21.829842 H          1 MOL1         0.0755
      14    H9      18.078129   17.598184   22.899687 H          1 MOL1         0.0755
      15    C6      20.001322   18.126842   23.755871 C.3        1 MOL1        -0.1958
      16    H10     20.146251   17.132905   24.194791 H          1 MOL1         0.0753
      17    H11     20.989833   18.466618   23.426628 H          1 MOL1         0.0753
      18    C7      19.512074   19.048262   24.869445 C.2        1 MOL1         0.6174
      19    O1      20.073641   20.115081   25.023384 O.co2      1 MOL1        -0.6695
      20    O2      18.592322   18.665876   25.566113 O.co2      1 MOL1        -0.6695
@<TRIPOS>BOND
    1     1     2    1
    2     1     3    1
    3     1     4    2
    4     4     5    1
    5     4     6    1
    6     6     7    1
    7     6     8    1
    8     6     9    1
    9     9    10    1
   10     9    11    1
   11     9    12    1
   12    12    13    1
   13    12    14    1
   14    12    15    1
   15    15    16    1
   16    15    17    1
   17    15    18    1
   18    18    19    1
   19    18    20    2
@<TRIPOS>SUBSTRUCTURE
       1 MOL1            1 RESIDUE      1      MOL     
@<SCITEGIC>MOL_PROPERTY
VConf Rank
SciTegic.value.IntegerValue
14

@<SCITEGIC>MOL_PROPERTY
Conf_Id
SciTegic.value.IntegerValue
66

@<SCITEGIC>MOL_PROPERTY
Delta U+W
SciTegic.value.DoubleValue
1.737

@<SCITEGIC>MOL_PROPERTY
U+W
SciTegic.value.DoubleValue
-50.008

@<SCITEGIC>MOL_PROPERTY
Grad RMS
SciTegic.value.DoubleValue
0.000000

@<SCITEGIC>MOL_PROPERTY
U
SciTegic.value.DoubleValue
11.091

@<SCITEGIC>MOL_PROPERTY
W
SciTegic.value.DoubleValue
-61.099

@<SCITEGIC>MOL_PROPERTY
W(PB)
SciTegic.value.DoubleValue
-63.213

@<SCITEGIC>MOL_PROPERTY
W(SA)
SciTegic.value.DoubleValue
2.114

@<SCITEGIC>MOL_PROPERTY
Valence
SciTegic.value.DoubleValue
9.664

@<SCITEGIC>MOL_PROPERTY
Coulomb
SciTegic.value.DoubleValue
0.658

@<SCITEGIC>MOL_PROPERTY
VdW
SciTegic.value.DoubleValue
0.769

@<SCITEGIC>MOL_PROPERTY
VdW6
SciTegic.value.DoubleValue
-9.171

@<SCITEGIC>MOL_PROPERTY
VdW12
SciTegic.value.DoubleValue
9.940

@<SCITEGIC>MOL_PROPERTY
Bond
SciTegic.value.DoubleValue
0.244

@<SCITEGIC>MOL_PROPERTY
Angle
SciTegic.value.DoubleValue
3.658

@<SCITEGIC>MOL_PROPERTY
Pdih
SciTegic.value.DoubleValue
5.762

@<SCITEGIC>MOL_PROPERTY
Idih
SciTegic.value.DoubleValue
0.001

@<SCITEGIC>MOL_PROPERTY
Tether
SciTegic.value.DoubleValue
0.000

@<TRIPOS>MOLECULE
guest-s22_confgen4.mol2 : confsearch ligand conformer 15
          20          19           1
SMALL
USER_CHARGES
 
@<TRIPOS>ATOM
       1    C1      21.357621   19.229755   19.941736 C.2        1 MOL1        -0.2535
       2    H1      21.143511   20.277858   20.138763 H          1 MOL1         0.0845
       3    H2      22.372791   18.982225   19.636620 H          1 MOL1         0.0845
       4    C2      20.425989   18.277262   20.058776 C.2        1 MOL1        -0.1324
       5    H3      20.694678   17.242802   19.846551 H          1 MOL1         0.0833
       6    C3      18.978394   18.474515   20.478491 C.3        1 MOL1        -0.1813
       7    H4      18.652723   17.598436   21.053012 H          1 MOL1         0.0753
       8    H5      18.349237   18.469280   19.578648 H          1 MOL1         0.0753
       9    C4      18.679016   19.755494   21.300550 C.3        1 MOL1        -0.1855
      10    H6      18.948662   20.639930   20.708470 H          1 MOL1         0.0755
      11    H7      17.594446   19.825566   21.460008 H          1 MOL1         0.0755
      12    C5      19.388386   19.822462   22.677144 C.3        1 MOL1        -0.1855
      13    H8      19.176807   20.799797   23.132371 H          1 MOL1         0.0755
      14    H9      20.477455   19.774266   22.545986 H          1 MOL1         0.0755
      15    C6      18.940664   18.709524   23.659911 C.3        1 MOL1        -0.1958
      16    H10     17.849109   18.711308   23.763137 H          1 MOL1         0.0753
      17    H11     19.231678   17.722911   23.282090 H          1 MOL1         0.0753
      18    C7      19.546180   18.871553   25.049638 C.2        1 MOL1         0.6174
      19    O1      20.599662   18.314061   25.286557 O.co2      1 MOL1        -0.6695
      20    O2      18.955088   19.563374   25.855198 O.co2      1 MOL1        -0.6695
@<TRIPOS>BOND
    1     1     2    1
    2     1     3    1
    3     1     4    2
    4     4     5    1
    5     4     6    1
    6     6     7    1
    7     6     8    1
    8     6     9    1
    9     9    10    1
   10     9    11    1
   11     9    12    1
   12    12    13    1
   13    12    14    1
   14    12    15    1
   15    15    16    1
   16    15    17    1
   17    15    18    1
   18    18    19    1
   19    18    20    2
@<TRIPOS>SUBSTRUCTURE
       1 MOL1            1 RESIDUE      1      MOL     
@<SCITEGIC>MOL_PROPERTY
VConf Rank
SciTegic.value.IntegerValue
15

@<SCITEGIC>MOL_PROPERTY
Conf_Id
SciTegic.value.IntegerValue
64

@<SCITEGIC>MOL_PROPERTY
Delta U+W
SciTegic.value.DoubleValue
0.366

@<SCITEGIC>MOL_PROPERTY
U+W
SciTegic.value.DoubleValue
-51.379

@<SCITEGIC>MOL_PROPERTY
Grad RMS
SciTegic.value.DoubleValue
0.000000

@<SCITEGIC>MOL_PROPERTY
U
SciTegic.value.DoubleValue
10.000

@<SCITEGIC>MOL_PROPERTY
W
SciTegic.value.DoubleValue
-61.379

@<SCITEGIC>MOL_PROPERTY
W(PB)
SciTegic.value.DoubleValue
-63.541

@<SCITEGIC>MOL_PROPERTY
W(SA)
SciTegic.value.DoubleValue
2.162

@<SCITEGIC>MOL_PROPERTY
Valence
SciTegic.value.DoubleValue
9.398

@<SCITEGIC>MOL_PROPERTY
Coulomb
SciTegic.value.DoubleValue
-0.504

@<SCITEGIC>MOL_PROPERTY
VdW
SciTegic.value.DoubleValue
1.105

@<SCITEGIC>MOL_PROPERTY
VdW6
SciTegic.value.DoubleValue
-7.975

@<SCITEGIC>MOL_PROPERTY
VdW12
SciTegic.value.DoubleValue
9.080

@<SCITEGIC>MOL_PROPERTY
Bond
SciTegic.value.DoubleValue
0.216

@<SCITEGIC>MOL_PROPERTY
Angle
SciTegic.value.DoubleValue
3.417

@<SCITEGIC>MOL_PROPERTY
Pdih
SciTegic.value.DoubleValue
5.765

@<SCITEGIC>MOL_PROPERTY
Idih
SciTegic.value.DoubleValue
0.001

@<SCITEGIC>MOL_PROPERTY
Tether
SciTegic.value.DoubleValue
0.000

@<TRIPOS>MOLECULE
guest-s22_confgen4.mol2 : confsearch ligand conformer 16
          20          19           1
SMALL
USER_CHARGES
 
@<TRIPOS>ATOM
       1    C1      18.614553   18.475379   19.396709 C.2        1 MOL1        -0.2535
       2    H1      17.944557   19.313739   19.580218 H          1 MOL1         0.0845
       3    H2      18.184493   17.577006   18.957304 H          1 MOL1         0.0845
       4    C2      19.913386   18.541139   19.701212 C.2        1 MOL1        -0.1324
       5    H3      20.566507   17.689714   19.511740 H          1 MOL1         0.0833
       6    C3      20.581860   19.753482   20.313868 C.3        1 MOL1        -0.1813
       7    H4      19.910587   20.622428   20.282261 H          1 MOL1         0.0753
       8    H5      21.461623   20.019911   19.713138 H          1 MOL1         0.0753
       9    C4      21.030888   19.501202   21.770807 C.3        1 MOL1        -0.1855
      10    H6      21.701724   18.631682   21.802396 H          1 MOL1         0.0755
      11    H7      21.617436   20.363752   22.115554 H          1 MOL1         0.0755
      12    C5      19.840551   19.279519   22.731815 C.3        1 MOL1        -0.1855
      13    H8      19.260651   18.402455   22.412904 H          1 MOL1         0.0755
      14    H9      19.162189   20.142654   22.685870 H          1 MOL1         0.0755
      15    C6      20.310109   19.074090   24.193093 C.3        1 MOL1        -0.1958
      16    H10     20.978911   18.207381   24.257182 H          1 MOL1         0.0753
      17    H11     20.877450   19.947891   24.535267 H          1 MOL1         0.0753
      18    C7      19.153189   18.852848   25.160916 C.2        1 MOL1         0.6174
      19    O1      18.636640   19.828095   25.669660 O.co2      1 MOL1        -0.6695
      20    O2      18.789824   17.712245   25.369919 O.co2      1 MOL1        -0.6695
@<TRIPOS>BOND
    1     1     2    1
    2     1     3    1
    3     1     4    2
    4     4     5    1
    5     4     6    1
    6     6     7    1
    7     6     8    1
    8     6     9    1
    9     9    10    1
   10     9    11    1
   11     9    12    1
   12    12    13    1
   13    12    14    1
   14    12    15    1
   15    15    16    1
   16    15    17    1
   17    15    18    1
   18    18    19    1
   19    18    20    2
@<TRIPOS>SUBSTRUCTURE
       1 MOL1            1 RESIDUE      1      MOL     
@<SCITEGIC>MOL_PROPERTY
VConf Rank
SciTegic.value.IntegerValue
16

@<SCITEGIC>MOL_PROPERTY
Conf_Id
SciTegic.value.IntegerValue
42

@<SCITEGIC>MOL_PROPERTY
Delta U+W
SciTegic.value.DoubleValue
-0.601

@<SCITEGIC>MOL_PROPERTY
U+W
SciTegic.value.DoubleValue
-52.347

@<SCITEGIC>MOL_PROPERTY
Grad RMS
SciTegic.value.DoubleValue
0.000000

@<SCITEGIC>MOL_PROPERTY
U
SciTegic.value.DoubleValue
8.428

@<SCITEGIC>MOL_PROPERTY
W
SciTegic.value.DoubleValue
-60.774

@<SCITEGIC>MOL_PROPERTY
W(PB)
SciTegic.value.DoubleValue
-62.982

@<SCITEGIC>MOL_PROPERTY
W(SA)
SciTegic.value.DoubleValue
2.208

@<SCITEGIC>MOL_PROPERTY
Valence
SciTegic.value.DoubleValue
9.231

@<SCITEGIC>MOL_PROPERTY
Coulomb
SciTegic.value.DoubleValue
-1.304

@<SCITEGIC>MOL_PROPERTY
VdW
SciTegic.value.DoubleValue
0.501

@<SCITEGIC>MOL_PROPERTY
VdW6
SciTegic.value.DoubleValue
-6.515

@<SCITEGIC>MOL_PROPERTY
VdW12
SciTegic.value.DoubleValue
7.016

@<SCITEGIC>MOL_PROPERTY
Bond
SciTegic.value.DoubleValue
0.103

@<SCITEGIC>MOL_PROPERTY
Angle
SciTegic.value.DoubleValue
2.328

@<SCITEGIC>MOL_PROPERTY
Pdih
SciTegic.value.DoubleValue
6.799

@<SCITEGIC>MOL_PROPERTY
Idih
SciTegic.value.DoubleValue
0.000

@<SCITEGIC>MOL_PROPERTY
Tether
SciTegic.value.DoubleValue
0.000

@<TRIPOS>MOLECULE
guest-s22_confgen4.mol2 : confsearch ligand conformer 17
          20          19           1
SMALL
USER_CHARGES
 
@<TRIPOS>ATOM
       1    C1      19.171658   18.177496   19.287611 C.2        1 MOL1        -0.2535
       2    H1      18.605584   19.053159   18.974288 H          1 MOL1         0.0845
       3    H2      18.838504   17.207953   18.921428 H          1 MOL1         0.0845
       4    C2      20.231780   18.283980   20.093109 C.2        1 MOL1        -0.1324
       5    H3      20.783003   17.394588   20.397314 H          1 MOL1         0.0833
       6    C3      20.752697   19.594883   20.642730 C.3        1 MOL1        -0.1813
       7    H4      20.271345   20.444052   20.138923 H          1 MOL1         0.0753
       8    H5      21.826179   19.673848   20.425448 H          1 MOL1         0.0753
       9    C4      20.543440   19.713981   22.169160 C.3        1 MOL1        -0.1855
      10    H6      21.031442   18.867328   22.671525 H          1 MOL1         0.0755
      11    H7      21.046768   20.622410   22.527151 H          1 MOL1         0.0755
      12    C5      19.048741   19.771701   22.563888 C.3        1 MOL1        -0.1855
      13    H8      18.541324   18.849516   22.248520 H          1 MOL1         0.0755
      14    H9      18.564201   20.597590   22.025967 H          1 MOL1         0.0755
      15    C6      18.842106   19.972135   24.087683 C.3        1 MOL1        -0.1958
      16    H10     19.362333   20.876628   24.425298 H          1 MOL1         0.0753
      17    H11     17.776288   20.122479   24.296053 H          1 MOL1         0.0753
      18    C7      19.312310   18.794590   24.936864 C.2        1 MOL1         0.6174
      19    O1      20.367366   18.898274   25.531229 O.co2      1 MOL1        -0.6695
      20    O2      18.600902   17.810959   24.995726 O.co2      1 MOL1        -0.6695
@<TRIPOS>BOND
    1     1     2    1
    2     1     3    1
    3     1     4    2
    4     4     5    1
    5     4     6    1
    6     6     7    1
    7     6     8    1
    8     6     9    1
    9     9    10    1
   10     9    11    1
   11     9    12    1
   12    12    13    1
   13    12    14    1
   14    12    15    1
   15    15    16    1
   16    15    17    1
   17    15    18    1
   18    18    19    1
   19    18    20    2
@<TRIPOS>SUBSTRUCTURE
       1 MOL1            1 RESIDUE      1      MOL     
@<SCITEGIC>MOL_PROPERTY
VConf Rank
SciTegic.value.IntegerValue
17

@<SCITEGIC>MOL_PROPERTY
Conf_Id
SciTegic.value.IntegerValue
68

@<SCITEGIC>MOL_PROPERTY
Delta U+W
SciTegic.value.DoubleValue
0.492

@<SCITEGIC>MOL_PROPERTY
U+W
SciTegic.value.DoubleValue
-51.253

@<SCITEGIC>MOL_PROPERTY
Grad RMS
SciTegic.value.DoubleValue
0.000000

@<SCITEGIC>MOL_PROPERTY
U
SciTegic.value.DoubleValue
10.179

@<SCITEGIC>MOL_PROPERTY
W
SciTegic.value.DoubleValue
-61.432

@<SCITEGIC>MOL_PROPERTY
W(PB)
SciTegic.value.DoubleValue
-63.627

@<SCITEGIC>MOL_PROPERTY
W(SA)
SciTegic.value.DoubleValue
2.195

@<SCITEGIC>MOL_PROPERTY
Valence
SciTegic.value.DoubleValue
9.483

@<SCITEGIC>MOL_PROPERTY
Coulomb
SciTegic.value.DoubleValue
0.361

@<SCITEGIC>MOL_PROPERTY
VdW
SciTegic.value.DoubleValue
0.335

@<SCITEGIC>MOL_PROPERTY
VdW6
SciTegic.value.DoubleValue
-7.385

@<SCITEGIC>MOL_PROPERTY
VdW12
SciTegic.value.DoubleValue
7.720

@<SCITEGIC>MOL_PROPERTY
Bond
SciTegic.value.DoubleValue
0.125

@<SCITEGIC>MOL_PROPERTY
Angle
SciTegic.value.DoubleValue
2.487

@<SCITEGIC>MOL_PROPERTY
Pdih
SciTegic.value.DoubleValue
6.870

@<SCITEGIC>MOL_PROPERTY
Idih
SciTegic.value.DoubleValue
0.001

@<SCITEGIC>MOL_PROPERTY
Tether
SciTegic.value.DoubleValue
0.000

@<TRIPOS>MOLECULE
guest-s22_confgen4.mol2 : confsearch ligand conformer 18
          20          19           1
SMALL
USER_CHARGES
 
@<TRIPOS>ATOM
       1    C1      20.560592   17.631096   19.486763 C.2        1 MOL1        -0.2535
       2    H1      19.655259   17.089909   19.216616 H          1 MOL1         0.0845
       3    H2      21.514140   17.155814   19.263087 H          1 MOL1         0.0845
       4    C2      20.507743   18.829915   20.073055 C.2        1 MOL1        -0.1324
       5    H3      21.426224   19.355521   20.332622 H          1 MOL1         0.0833
       6    C3      19.220937   19.553403   20.408428 C.3        1 MOL1        -0.1813
       7    H4      18.395350   19.134221   19.817486 H          1 MOL1         0.0753
       8    H5      19.299755   20.610058   20.119870 H          1 MOL1         0.0753
       9    C4      18.860282   19.447439   21.907387 C.3        1 MOL1        -0.1855
      10    H6      17.860358   19.875130   22.062238 H          1 MOL1         0.0755
      11    H7      18.794616   18.387857   22.191241 H          1 MOL1         0.0755
      12    C5      19.871857   20.177530   22.822491 C.3        1 MOL1        -0.1855
      13    H8      19.965612   21.222576   22.497836 H          1 MOL1         0.0755
      14    H9      20.867069   19.723606   22.720900 H          1 MOL1         0.0755
      15    C6      19.451333   20.150043   24.314891 C.3        1 MOL1        -0.1958
      16    H10     20.135404   20.776098   24.899792 H          1 MOL1         0.0753
      17    H11     18.448687   20.578002   24.434533 H          1 MOL1         0.0753
      18    C7      19.463028   18.756340   24.936416 C.2        1 MOL1         0.6174
      19    O1      20.535573   18.278913   25.250767 O.co2      1 MOL1        -0.6695
      20    O2      18.399655   18.193322   25.107801 O.co2      1 MOL1        -0.6695
@<TRIPOS>BOND
    1     1     2    1
    2     1     3    1
    3     1     4    2
    4     4     5    1
    5     4     6    1
    6     6     7    1
    7     6     8    1
    8     6     9    1
    9     9    10    1
   10     9    11    1
   11     9    12    1
   12    12    13    1
   13    12    14    1
   14    12    15    1
   15    15    16    1
   16    15    17    1
   17    15    18    1
   18    18    19    1
   19    18    20    2
@<TRIPOS>SUBSTRUCTURE
       1 MOL1            1 RESIDUE      1      MOL     
@<SCITEGIC>MOL_PROPERTY
VConf Rank
SciTegic.value.IntegerValue
18

@<SCITEGIC>MOL_PROPERTY
Conf_Id
SciTegic.value.IntegerValue
87

@<SCITEGIC>MOL_PROPERTY
Delta U+W
SciTegic.value.DoubleValue
0.339

@<SCITEGIC>MOL_PROPERTY
U+W
SciTegic.value.DoubleValue
-51.407

@<SCITEGIC>MOL_PROPERTY
Grad RMS
SciTegic.value.DoubleValue
0.000000

@<SCITEGIC>MOL_PROPERTY
U
SciTegic.value.DoubleValue
10.461

@<SCITEGIC>MOL_PROPERTY
W
SciTegic.value.DoubleValue
-61.867

@<SCITEGIC>MOL_PROPERTY
W(PB)
SciTegic.value.DoubleValue
-64.045

@<SCITEGIC>MOL_PROPERTY
W(SA)
SciTegic.value.DoubleValue
2.178

@<SCITEGIC>MOL_PROPERTY
Valence
SciTegic.value.DoubleValue
9.555

@<SCITEGIC>MOL_PROPERTY
Coulomb
SciTegic.value.DoubleValue
0.483

@<SCITEGIC>MOL_PROPERTY
VdW
SciTegic.value.DoubleValue
0.423

@<SCITEGIC>MOL_PROPERTY
VdW6
SciTegic.value.DoubleValue
-7.223

@<SCITEGIC>MOL_PROPERTY
VdW12
SciTegic.value.DoubleValue
7.646

@<SCITEGIC>MOL_PROPERTY
Bond
SciTegic.value.DoubleValue
0.126

@<SCITEGIC>MOL_PROPERTY
Angle
SciTegic.value.DoubleValue
2.492

@<SCITEGIC>MOL_PROPERTY
Pdih
SciTegic.value.DoubleValue
6.936

@<SCITEGIC>MOL_PROPERTY
Idih
SciTegic.value.DoubleValue
0.001

@<SCITEGIC>MOL_PROPERTY
Tether
SciTegic.value.DoubleValue
0.000

@<TRIPOS>MOLECULE
guest-s22_confgen4.mol2 : confsearch ligand conformer 19
          20          19           1
SMALL
USER_CHARGES
 
@<TRIPOS>ATOM
       1    C1      20.860595   19.996719   19.667021 C.2        1 MOL1        -0.2535
       2    H1      20.026028   20.322609   19.048384 H          1 MOL1         0.0845
       3    H2      21.764303   20.603421   19.651382 H          1 MOL1         0.0845
       4    C2      20.780108   18.896057   20.419202 C.2        1 MOL1        -0.1324
       5    H3      21.629238   18.581150   21.024678 H          1 MOL1         0.0833
       6    C3      19.561530   17.999923   20.479368 C.3        1 MOL1        -0.1813
       7    H4      19.836460   17.009319   20.865442 H          1 MOL1         0.0753
       8    H5      19.202982   17.831246   19.454966 H          1 MOL1         0.0753
       9    C4      18.398831   18.590662   21.315026 C.3        1 MOL1        -0.1855
      10    H6      18.248174   19.647332   21.054859 H          1 MOL1         0.0755
      11    H7      17.475473   18.073568   21.020480 H          1 MOL1         0.0755
      12    C5      18.554202   18.437196   22.849108 C.3        1 MOL1        -0.1855
      13    H8      18.718526   17.381269   23.104168 H          1 MOL1         0.0755
      14    H9      17.604301   18.723178   23.321752 H          1 MOL1         0.0755
      15    C6      19.684657   19.301230   23.464558 C.3        1 MOL1        -0.1958
      16    H10     20.664977   18.947249   23.130267 H          1 MOL1         0.0753
      17    H11     19.584893   20.343969   23.140418 H          1 MOL1         0.0753
      18    C7      19.683121   19.275934   24.988693 C.2        1 MOL1         0.6174
      19    O1      20.314270   18.401577   25.549085 O.co2      1 MOL1        -0.6695
      20    O2      19.033686   20.118702   25.575940 O.co2      1 MOL1        -0.6695
@<TRIPOS>BOND
    1     1     2    1
    2     1     3    1
    3     1     4    2
    4     4     5    1
    5     4     6    1
    6     6     7    1
    7     6     8    1
    8     6     9    1
    9     9    10    1
   10     9    11    1
   11     9    12    1
   12    12    13    1
   13    12    14    1
   14    12    15    1
   15    15    16    1
   16    15    17    1
   17    15    18    1
   18    18    19    1
   19    18    20    2
@<TRIPOS>SUBSTRUCTURE
       1 MOL1            1 RESIDUE      1      MOL     
@<SCITEGIC>MOL_PROPERTY
VConf Rank
SciTegic.value.IntegerValue
19

@<SCITEGIC>MOL_PROPERTY
Conf_Id
SciTegic.value.IntegerValue
51

@<SCITEGIC>MOL_PROPERTY
Delta U+W
SciTegic.value.DoubleValue
1.709

@<SCITEGIC>MOL_PROPERTY
U+W
SciTegic.value.DoubleValue
-50.036

@<SCITEGIC>MOL_PROPERTY
Grad RMS
SciTegic.value.DoubleValue
0.000000

@<SCITEGIC>MOL_PROPERTY
U
SciTegic.value.DoubleValue
10.643

@<SCITEGIC>MOL_PROPERTY
W
SciTegic.value.DoubleValue
-60.679

@<SCITEGIC>MOL_PROPERTY
W(PB)
SciTegic.value.DoubleValue
-62.882

@<SCITEGIC>MOL_PROPERTY
W(SA)
SciTegic.value.DoubleValue
2.203

@<SCITEGIC>MOL_PROPERTY
Valence
SciTegic.value.DoubleValue
11.231

@<SCITEGIC>MOL_PROPERTY
Coulomb
SciTegic.value.DoubleValue
-1.077

@<SCITEGIC>MOL_PROPERTY
VdW
SciTegic.value.DoubleValue
0.489

@<SCITEGIC>MOL_PROPERTY
VdW6
SciTegic.value.DoubleValue
-7.546

@<SCITEGIC>MOL_PROPERTY
VdW12
SciTegic.value.DoubleValue
8.035

@<SCITEGIC>MOL_PROPERTY
Bond
SciTegic.value.DoubleValue
0.159

@<SCITEGIC>MOL_PROPERTY
Angle
SciTegic.value.DoubleValue
3.005

@<SCITEGIC>MOL_PROPERTY
Pdih
SciTegic.value.DoubleValue
8.065

@<SCITEGIC>MOL_PROPERTY
Idih
SciTegic.value.DoubleValue
0.002

@<SCITEGIC>MOL_PROPERTY
Tether
SciTegic.value.DoubleValue
0.000

@<TRIPOS>MOLECULE
guest-s22_confgen4.mol2 : confsearch ligand conformer 20
          20          19           1
SMALL
USER_CHARGES
 
@<TRIPOS>ATOM
       1    C1      20.493790   17.724431   19.650481 C.2        1 MOL1        -0.2535
       2    H1      19.600056   17.686244   19.029838 H          1 MOL1         0.0845
       3    H2      21.161034   16.864732   19.623583 H          1 MOL1         0.0845
       4    C2      20.762020   18.783624   20.418516 C.2        1 MOL1        -0.1324
       5    H3      21.666126   18.806982   21.025839 H          1 MOL1         0.0833
       6    C3      19.886732   20.016349   20.495070 C.3        1 MOL1        -0.1813
       7    H4      19.601875   20.304547   19.474185 H          1 MOL1         0.0753
       8    H5      20.458178   20.864402   20.895310 H          1 MOL1         0.0753
       9    C4      18.595267   19.808599   21.324605 C.3        1 MOL1        -0.1855
      10    H6      17.882232   20.594498   21.040566 H          1 MOL1         0.0755
      11    H7      18.120352   18.857197   21.048524 H          1 MOL1         0.0755
      12    C5      18.787461   19.881502   22.860461 C.3        1 MOL1        -0.1855
      13    H8      17.794718   19.901836   23.331138 H          1 MOL1         0.0755
      14    H9      19.275293   20.827887   23.131411 H          1 MOL1         0.0755
      15    C6      19.586900   18.696017   23.459451 C.3        1 MOL1        -0.1958
      16    H10     19.164740   17.742905   23.119331 H          1 MOL1         0.0753
      17    H11     20.629641   18.728547   23.128216 H          1 MOL1         0.0753
      18    C7      19.589607   18.696693   24.983792 C.2        1 MOL1         0.6174
      19    O1      20.462803   19.318632   25.556162 O.co2      1 MOL1        -0.6695
      20    O2      18.706420   18.092154   25.559462 O.co2      1 MOL1        -0.6695
@<TRIPOS>BOND
    1     1     2    1
    2     1     3    1
    3     1     4    2
    4     4     5    1
    5     4     6    1
    6     6     7    1
    7     6     8    1
    8     6     9    1
    9     9    10    1
   10     9    11    1
   11     9    12    1
   12    12    13    1
   13    12    14    1
   14    12    15    1
   15    15    16    1
   16    15    17    1
   17    15    18    1
   18    18    19    1
   19    18    20    2
@<TRIPOS>SUBSTRUCTURE
       1 MOL1            1 RESIDUE      1      MOL     
@<SCITEGIC>MOL_PROPERTY
VConf Rank
SciTegic.value.IntegerValue
20

@<SCITEGIC>MOL_PROPERTY
Conf_Id
SciTegic.value.IntegerValue
91

@<SCITEGIC>MOL_PROPERTY
Delta U+W
SciTegic.value.DoubleValue
1.604

@<SCITEGIC>MOL_PROPERTY
U+W
SciTegic.value.DoubleValue
-50.141

@<SCITEGIC>MOL_PROPERTY
Grad RMS
SciTegic.value.DoubleValue
0.000000

@<SCITEGIC>MOL_PROPERTY
U
SciTegic.value.DoubleValue
10.644

@<SCITEGIC>MOL_PROPERTY
W
SciTegic.value.DoubleValue
-60.786

@<SCITEGIC>MOL_PROPERTY
W(PB)
SciTegic.value.DoubleValue
-62.965

@<SCITEGIC>MOL_PROPERTY
W(SA)
SciTegic.value.DoubleValue
2.179

@<SCITEGIC>MOL_PROPERTY
Valence
SciTegic.value.DoubleValue
11.230

@<SCITEGIC>MOL_PROPERTY
Coulomb
SciTegic.value.DoubleValue
-1.075

@<SCITEGIC>MOL_PROPERTY
VdW
SciTegic.value.DoubleValue
0.489

@<SCITEGIC>MOL_PROPERTY
VdW6
SciTegic.value.DoubleValue
-7.547

@<SCITEGIC>MOL_PROPERTY
VdW12
SciTegic.value.DoubleValue
8.036

@<SCITEGIC>MOL_PROPERTY
Bond
SciTegic.value.DoubleValue
0.159

@<SCITEGIC>MOL_PROPERTY
Angle
SciTegic.value.DoubleValue
3.006

@<SCITEGIC>MOL_PROPERTY
Pdih
SciTegic.value.DoubleValue
8.064

@<SCITEGIC>MOL_PROPERTY
Idih
SciTegic.value.DoubleValue
0.002

@<SCITEGIC>MOL_PROPERTY
Tether
SciTegic.value.DoubleValue
0.000

@<TRIPOS>MOLECULE
guest-s22_confgen4.mol2 : confsearch ligand conformer 21
          20          19           1
SMALL
USER_CHARGES
 
@<TRIPOS>ATOM
       1    C1      19.412685   22.265398   23.581558 C.2        1 MOL1        -0.2535
       2    H1      20.261439   22.001380   24.210447 H          1 MOL1         0.0845
       3    H2      18.740675   23.040294   23.946546 H          1 MOL1         0.0845
       4    C2      19.199171   21.662992   22.408881 C.2        1 MOL1        -0.1324
       5    H3      18.343041   21.941577   21.794806 H          1 MOL1         0.0833
       6    C3      20.088161   20.580973   21.837416 C.3        1 MOL1        -0.1813
       7    H4      21.044279   20.549657   22.377474 H          1 MOL1         0.0753
       8    H5      20.324248   20.814163   20.790502 H          1 MOL1         0.0753
       9    C4      19.406482   19.199109   21.918896 C.3        1 MOL1        -0.1855
      10    H6      19.168707   18.972617   22.967490 H          1 MOL1         0.0755
      11    H7      18.452468   19.229631   21.374757 H          1 MOL1         0.0755
      12    C5      20.300045   18.082200   21.336509 C.3        1 MOL1        -0.1855
      13    H8      21.254266   18.050732   21.880584 H          1 MOL1         0.0755
      14    H9      20.539219   18.308771   20.288184 H          1 MOL1         0.0755
      15    C6      19.614369   16.692456   21.419316 C.3        1 MOL1        -0.1958
      16    H10     19.378628   16.457050   22.463789 H          1 MOL1         0.0753
      17    H11     18.664187   16.714695   20.872902 H          1 MOL1         0.0753
      18    C7      20.433293   15.526721   20.862772 C.2        1 MOL1         0.6174
      19    O1      19.928524   14.422547   20.909094 O.co2      1 MOL1        -0.6695
      20    O2      21.539189   15.732976   20.401143 O.co2      1 MOL1        -0.6695
@<TRIPOS>BOND
    1     1     2    1
    2     1     3    1
    3     1     4    2
    4     4     5    1
    5     4     6    1
    6     6     7    1
    7     6     8    1
    8     6     9    1
    9     9    10    1
   10     9    11    1
   11     9    12    1
   12    12    13    1
   13    12    14    1
   14    12    15    1
   15    15    16    1
   16    15    17    1
   17    15    18    1
   18    18    19    1
   19    18    20    2
@<TRIPOS>SUBSTRUCTURE
       1 MOL1            1 RESIDUE      1      MOL     
@<SCITEGIC>MOL_PROPERTY
VConf Rank
SciTegic.value.IntegerValue
21

@<SCITEGIC>MOL_PROPERTY
Conf_Id
SciTegic.value.IntegerValue
33

@<SCITEGIC>MOL_PROPERTY
Delta U+W
SciTegic.value.DoubleValue
0.000

@<SCITEGIC>MOL_PROPERTY
U+W
SciTegic.value.DoubleValue
-51.745

@<SCITEGIC>MOL_PROPERTY
Grad RMS
SciTegic.value.DoubleValue
0.000000

@<SCITEGIC>MOL_PROPERTY
U
SciTegic.value.DoubleValue
7.593

@<SCITEGIC>MOL_PROPERTY
W
SciTegic.value.DoubleValue
-59.338

@<SCITEGIC>MOL_PROPERTY
W(PB)
SciTegic.value.DoubleValue
-61.574

@<SCITEGIC>MOL_PROPERTY
W(SA)
SciTegic.value.DoubleValue
2.236

@<SCITEGIC>MOL_PROPERTY
Valence
SciTegic.value.DoubleValue
9.570

@<SCITEGIC>MOL_PROPERTY
Coulomb
SciTegic.value.DoubleValue
-3.091

@<SCITEGIC>MOL_PROPERTY
VdW
SciTegic.value.DoubleValue
1.114

@<SCITEGIC>MOL_PROPERTY
VdW6
SciTegic.value.DoubleValue
-6.064

@<SCITEGIC>MOL_PROPERTY
VdW12
SciTegic.value.DoubleValue
7.178

@<SCITEGIC>MOL_PROPERTY
Bond
SciTegic.value.DoubleValue
0.117

@<SCITEGIC>MOL_PROPERTY
Angle
SciTegic.value.DoubleValue
2.692

@<SCITEGIC>MOL_PROPERTY
Pdih
SciTegic.value.DoubleValue
6.761

@<SCITEGIC>MOL_PROPERTY
Idih
SciTegic.value.DoubleValue
0.000

@<SCITEGIC>MOL_PROPERTY
Tether
SciTegic.value.DoubleValue
0.000

@<TRIPOS>MOLECULE
guest-s22_confgen4.mol2 : confsearch ligand conformer 22
          20          19           1
SMALL
USER_CHARGES
 
@<TRIPOS>ATOM
       1    C1      19.972497   18.835690   18.303580 C.2        1 MOL1        -0.2535
       2    H1      20.798379   18.133867   18.408189 H          1 MOL1         0.0845
       3    H2      19.776781   19.234402   17.309606 H          1 MOL1         0.0845
       4    C2      19.227788   19.197879   19.351387 C.2        1 MOL1        -0.1324
       5    H3      18.406063   19.902520   19.225372 H          1 MOL1         0.0833
       6    C3      19.439011   18.686385   20.759039 C.3        1 MOL1        -0.1813
       7    H4      20.098784   17.808210   20.748842 H          1 MOL1         0.0753
       8    H5      18.476774   18.355774   21.169950 H          1 MOL1         0.0753
       9    C4      20.053071   19.780831   21.660665 C.3        1 MOL1        -0.1855
      10    H6      20.970648   20.155693   21.186460 H          1 MOL1         0.0755
      11    H7      19.365766   20.635522   21.724759 H          1 MOL1         0.0755
      12    C5      20.400827   19.284395   23.084321 C.3        1 MOL1        -0.1855
      13    H8      20.932030   20.085571   23.616706 H          1 MOL1         0.0755
      14    H9      21.098692   18.437914   23.022286 H          1 MOL1         0.0755
      15    C6      19.158973   18.871843   23.916531 C.3        1 MOL1        -0.1958
      16    H10     18.435147   19.694853   23.949899 H          1 MOL1         0.0753
      17    H11     18.654950   18.013015   23.459236 H          1 MOL1         0.0753
      18    C7      19.510450   18.492964   25.350715 C.2        1 MOL1         0.6174
      19    O1      19.796393   17.335305   25.584748 O.co2      1 MOL1        -0.6695
      20    O2      19.508341   19.369416   26.192476 O.co2      1 MOL1        -0.6695
@<TRIPOS>BOND
    1     1     2    1
    2     1     3    1
    3     1     4    2
    4     4     5    1
    5     4     6    1
    6     6     7    1
    7     6     8    1
    8     6     9    1
    9     9    10    1
   10     9    11    1
   11     9    12    1
   12    12    13    1
   13    12    14    1
   14    12    15    1
   15    15    16    1
   16    15    17    1
   17    15    18    1
   18    18    19    1
   19    18    20    2
@<TRIPOS>SUBSTRUCTURE
       1 MOL1            1 RESIDUE      1      MOL     
@<SCITEGIC>MOL_PROPERTY
VConf Rank
SciTegic.value.IntegerValue
22

@<SCITEGIC>MOL_PROPERTY
Conf_Id
SciTegic.value.IntegerValue
37

@<SCITEGIC>MOL_PROPERTY
Delta U+W
SciTegic.value.DoubleValue
-0.384

@<SCITEGIC>MOL_PROPERTY
U+W
SciTegic.value.DoubleValue
-52.130

@<SCITEGIC>MOL_PROPERTY
Grad RMS
SciTegic.value.DoubleValue
0.000000

@<SCITEGIC>MOL_PROPERTY
U
SciTegic.value.DoubleValue
7.491

@<SCITEGIC>MOL_PROPERTY
W
SciTegic.value.DoubleValue
-59.621

@<SCITEGIC>MOL_PROPERTY
W(PB)
SciTegic.value.DoubleValue
-61.853

@<SCITEGIC>MOL_PROPERTY
W(SA)
SciTegic.value.DoubleValue
2.232

@<SCITEGIC>MOL_PROPERTY
Valence
SciTegic.value.DoubleValue
9.604

@<SCITEGIC>MOL_PROPERTY
Coulomb
SciTegic.value.DoubleValue
-2.799

@<SCITEGIC>MOL_PROPERTY
VdW
SciTegic.value.DoubleValue
0.686

@<SCITEGIC>MOL_PROPERTY
VdW6
SciTegic.value.DoubleValue
-6.435

@<SCITEGIC>MOL_PROPERTY
VdW12
SciTegic.value.DoubleValue
7.121

@<SCITEGIC>MOL_PROPERTY
Bond
SciTegic.value.DoubleValue
0.124

@<SCITEGIC>MOL_PROPERTY
Angle
SciTegic.value.DoubleValue
2.493

@<SCITEGIC>MOL_PROPERTY
Pdih
SciTegic.value.DoubleValue
6.986

@<SCITEGIC>MOL_PROPERTY
Idih
SciTegic.value.DoubleValue
0.001

@<SCITEGIC>MOL_PROPERTY
Tether
SciTegic.value.DoubleValue
0.000

@<TRIPOS>MOLECULE
guest-s22_confgen4.mol2 : confsearch ligand conformer 23
          20          19           1
SMALL
USER_CHARGES
 
@<TRIPOS>ATOM
       1    C1      21.322541   19.773338   24.778480 C.2        1 MOL1        -0.2535
       2    H1      21.822667   20.037921   25.708566 H          1 MOL1         0.0845
       3    H2      21.057007   18.726879   24.644461 H          1 MOL1         0.0845
       4    C2      21.056246   20.705754   23.856742 C.2        1 MOL1        -0.1324
       5    H3      21.347022   21.738421   24.048254 H          1 MOL1         0.0833
       6    C3      20.368697   20.490370   22.518871 C.3        1 MOL1        -0.1813
       7    H4      21.035567   20.839592   21.719207 H          1 MOL1         0.0753
       8    H5      19.482779   21.137534   22.469240 H          1 MOL1         0.0753
       9    C4      19.947689   19.031086   22.226936 C.3        1 MOL1        -0.1855
      10    H6      20.833109   18.381194   22.254469 H          1 MOL1         0.0755
      11    H7      19.263494   18.682359   23.012655 H          1 MOL1         0.0755
      12    C5      19.257920   18.898718   20.851538 C.3        1 MOL1        -0.1855
      13    H8      19.937466   19.246194   20.060915 H          1 MOL1         0.0755
      14    H9      18.371067   19.546748   20.817557 H          1 MOL1         0.0755
      15    C6      18.835364   17.438343   20.556862 C.3        1 MOL1        -0.1958
      16    H10     19.711952   16.779625   20.573753 H          1 MOL1         0.0753
      17    H11     18.145572   17.080166   21.330490 H          1 MOL1         0.0753
      18    C7      18.151459   17.281718   19.203448 C.2        1 MOL1         0.6174
      19    O1      18.845748   17.050421   18.233339 O.co2      1 MOL1        -0.6695
      20    O2      16.944694   17.414760   19.151812 O.co2      1 MOL1        -0.6695
@<TRIPOS>BOND
    1     1     2    1
    2     1     3    1
    3     1     4    2
    4     4     5    1
    5     4     6    1
    6     6     7    1
    7     6     8    1
    8     6     9    1
    9     9    10    1
   10     9    11    1
   11     9    12    1
   12    12    13    1
   13    12    14    1
   14    12    15    1
   15    15    16    1
   16    15    17    1
   17    15    18    1
   18    18    19    1
   19    18    20    2
@<TRIPOS>SUBSTRUCTURE
       1 MOL1            1 RESIDUE      1      MOL     
@<SCITEGIC>MOL_PROPERTY
VConf Rank
SciTegic.value.IntegerValue
23

@<SCITEGIC>MOL_PROPERTY
Conf_Id
SciTegic.value.IntegerValue
44

@<SCITEGIC>MOL_PROPERTY
Delta U+W
SciTegic.value.DoubleValue
-1.440

@<SCITEGIC>MOL_PROPERTY
U+W
SciTegic.value.DoubleValue
-53.185

@<SCITEGIC>MOL_PROPERTY
Grad RMS
SciTegic.value.DoubleValue
0.000000

@<SCITEGIC>MOL_PROPERTY
U
SciTegic.value.DoubleValue
6.572

@<SCITEGIC>MOL_PROPERTY
W
SciTegic.value.DoubleValue
-59.757

@<SCITEGIC>MOL_PROPERTY
W(PB)
SciTegic.value.DoubleValue
-62.007

@<SCITEGIC>MOL_PROPERTY
W(SA)
SciTegic.value.DoubleValue
2.249

@<SCITEGIC>MOL_PROPERTY
Valence
SciTegic.value.DoubleValue
7.989

@<SCITEGIC>MOL_PROPERTY
Coulomb
SciTegic.value.DoubleValue
-2.697

@<SCITEGIC>MOL_PROPERTY
VdW
SciTegic.value.DoubleValue
1.281

@<SCITEGIC>MOL_PROPERTY
VdW6
SciTegic.value.DoubleValue
-6.467

@<SCITEGIC>MOL_PROPERTY
VdW12
SciTegic.value.DoubleValue
7.748

@<SCITEGIC>MOL_PROPERTY
Bond
SciTegic.value.DoubleValue
0.136

@<SCITEGIC>MOL_PROPERTY
Angle
SciTegic.value.DoubleValue
2.854

@<SCITEGIC>MOL_PROPERTY
Pdih
SciTegic.value.DoubleValue
4.997

@<SCITEGIC>MOL_PROPERTY
Idih
SciTegic.value.DoubleValue
0.001

@<SCITEGIC>MOL_PROPERTY
Tether
SciTegic.value.DoubleValue
0.000

@<TRIPOS>MOLECULE
guest-s22_confgen4.mol2 : confsearch ligand conformer 24
          20          19           1
SMALL
USER_CHARGES
 
@<TRIPOS>ATOM
       1    C1      22.544956   17.525020   20.498550 C.2        1 MOL1        -0.2535
       2    H1      21.973518   17.733128   19.595374 H          1 MOL1         0.0845
       3    H2      23.382422   16.834607   20.413497 H          1 MOL1         0.0845
       4    C2      22.232566   18.090305   21.667559 C.2        1 MOL1        -0.1324
       5    H3      22.817223   17.868032   22.559975 H          1 MOL1         0.0833
       6    C3      21.086487   19.058085   21.861984 C.3        1 MOL1        -0.1813
       7    H4      20.738997   19.424811   20.887632 H          1 MOL1         0.0753
       8    H5      21.437492   19.933845   22.423921 H          1 MOL1         0.0753
       9    C4      19.918096   18.389503   22.620815 C.3        1 MOL1        -0.1855
      10    H6      19.531813   17.546349   22.031689 H          1 MOL1         0.0755
      11    H7      20.300805   17.962909   23.558170 H          1 MOL1         0.0755
      12    C5      18.763075   19.362543   22.957626 C.3        1 MOL1        -0.1855
      13    H8      19.146156   20.201385   23.555091 H          1 MOL1         0.0755
      14    H9      18.034439   18.838039   23.591255 H          1 MOL1         0.0755
      15    C6      18.030134   19.910489   21.705583 C.3        1 MOL1        -0.1958
      16    H10     18.708026   20.517824   21.095412 H          1 MOL1         0.0753
      17    H11     17.681231   19.081581   21.078227 H          1 MOL1         0.0753
      18    C7      16.825518   20.775093   22.059547 C.2        1 MOL1         0.6174
      19    O1      15.745287   20.231821   22.180751 O.co2      1 MOL1        -0.6695
      20    O2      17.002543   21.965978   22.224378 O.co2      1 MOL1        -0.6695
@<TRIPOS>BOND
    1     1     2    1
    2     1     3    1
    3     1     4    2
    4     4     5    1
    5     4     6    1
    6     6     7    1
    7     6     8    1
    8     6     9    1
    9     9    10    1
   10     9    11    1
   11     9    12    1
   12    12    13    1
   13    12    14    1
   14    12    15    1
   15    15    16    1
   16    15    17    1
   17    15    18    1
   18    18    19    1
   19    18    20    2
@<TRIPOS>SUBSTRUCTURE
       1 MOL1            1 RESIDUE      1      MOL     
@<SCITEGIC>MOL_PROPERTY
VConf Rank
SciTegic.value.IntegerValue
24

@<SCITEGIC>MOL_PROPERTY
Conf_Id
SciTegic.value.IntegerValue
38

@<SCITEGIC>MOL_PROPERTY
Delta U+W
SciTegic.value.DoubleValue
-0.381

@<SCITEGIC>MOL_PROPERTY
U+W
SciTegic.value.DoubleValue
-52.126

@<SCITEGIC>MOL_PROPERTY
Grad RMS
SciTegic.value.DoubleValue
0.000000

@<SCITEGIC>MOL_PROPERTY
U
SciTegic.value.DoubleValue
7.601

@<SCITEGIC>MOL_PROPERTY
W
SciTegic.value.DoubleValue
-59.727

@<SCITEGIC>MOL_PROPERTY
W(PB)
SciTegic.value.DoubleValue
-61.964

@<SCITEGIC>MOL_PROPERTY
W(SA)
SciTegic.value.DoubleValue
2.236

@<SCITEGIC>MOL_PROPERTY
Valence
SciTegic.value.DoubleValue
9.602

@<SCITEGIC>MOL_PROPERTY
Coulomb
SciTegic.value.DoubleValue
-2.686

@<SCITEGIC>MOL_PROPERTY
VdW
SciTegic.value.DoubleValue
0.685

@<SCITEGIC>MOL_PROPERTY
VdW6
SciTegic.value.DoubleValue
-6.453

@<SCITEGIC>MOL_PROPERTY
VdW12
SciTegic.value.DoubleValue
7.139

@<SCITEGIC>MOL_PROPERTY
Bond
SciTegic.value.DoubleValue
0.125

@<SCITEGIC>MOL_PROPERTY
Angle
SciTegic.value.DoubleValue
2.485

@<SCITEGIC>MOL_PROPERTY
Pdih
SciTegic.value.DoubleValue
6.991

@<SCITEGIC>MOL_PROPERTY
Idih
SciTegic.value.DoubleValue
0.001

@<SCITEGIC>MOL_PROPERTY
Tether
SciTegic.value.DoubleValue
0.000

@<TRIPOS>MOLECULE
guest-s22_confgen4.mol2 : confsearch ligand conformer 25
          20          19           1
SMALL
USER_CHARGES
 
@<TRIPOS>ATOM
       1    C1      19.336656   17.076665   19.224072 C.2        1 MOL1        -0.2535
       2    H1      19.034894   17.892172   18.568736 H          1 MOL1         0.0845
       3    H2      19.733257   16.177749   18.755110 H          1 MOL1         0.0845
       4    C2      19.228432   17.172033   20.551798 C.2        1 MOL1        -0.1324
       5    H3      19.537124   16.344399   21.190072 H          1 MOL1         0.0833
       6    C3      18.687381   18.386267   21.273287 C.3        1 MOL1        -0.1813
       7    H4      17.939301   18.071000   22.012954 H          1 MOL1         0.0753
       8    H5      18.172428   19.050671   20.566087 H          1 MOL1         0.0753
       9    C4      19.817385   19.163782   21.980093 C.3        1 MOL1        -0.1855
      10    H6      20.329247   18.497734   22.688478 H          1 MOL1         0.0755
      11    H7      20.566047   19.473256   21.237798 H          1 MOL1         0.0755
      12    C5      19.280823   20.406852   22.725217 C.3        1 MOL1        -0.1855
      13    H8      18.539313   20.099754   23.475917 H          1 MOL1         0.0755
      14    H9      18.757719   21.058621   22.012377 H          1 MOL1         0.0755
      15    C6      20.406131   21.219032   23.417274 C.3        1 MOL1        -0.1958
      16    H10     21.169212   21.509336   22.684957 H          1 MOL1         0.0753
      17    H11     19.989742   22.146903   23.826727 H          1 MOL1         0.0753
      18    C7      21.088433   20.479763   24.564798 C.2        1 MOL1         0.6174
      19    O1      22.200616   20.026956   24.377756 O.co2      1 MOL1        -0.6695
      20    O2      20.492572   20.386286   25.619933 O.co2      1 MOL1        -0.6695
@<TRIPOS>BOND
    1     1     2    1
    2     1     3    1
    3     1     4    2
    4     4     5    1
    5     4     6    1
    6     6     7    1
    7     6     8    1
    8     6     9    1
    9     9    10    1
   10     9    11    1
   11     9    12    1
   12    12    13    1
   13    12    14    1
   14    12    15    1
   15    15    16    1
   16    15    17    1
   17    15    18    1
   18    18    19    1
   19    18    20    2
@<TRIPOS>SUBSTRUCTURE
       1 MOL1            1 RESIDUE      1      MOL     
@<SCITEGIC>MOL_PROPERTY
VConf Rank
SciTegic.value.IntegerValue
25

@<SCITEGIC>MOL_PROPERTY
Conf_Id
SciTegic.value.IntegerValue
58

@<SCITEGIC>MOL_PROPERTY
Delta U+W
SciTegic.value.DoubleValue
0.019

@<SCITEGIC>MOL_PROPERTY
U+W
SciTegic.value.DoubleValue
-51.727

@<SCITEGIC>MOL_PROPERTY
Grad RMS
SciTegic.value.DoubleValue
0.000000

@<SCITEGIC>MOL_PROPERTY
U
SciTegic.value.DoubleValue
8.963

@<SCITEGIC>MOL_PROPERTY
W
SciTegic.value.DoubleValue
-60.690

@<SCITEGIC>MOL_PROPERTY
W(PB)
SciTegic.value.DoubleValue
-62.934

@<SCITEGIC>MOL_PROPERTY
W(SA)
SciTegic.value.DoubleValue
2.244

@<SCITEGIC>MOL_PROPERTY
Valence
SciTegic.value.DoubleValue
9.327

@<SCITEGIC>MOL_PROPERTY
Coulomb
SciTegic.value.DoubleValue
-0.780

@<SCITEGIC>MOL_PROPERTY
VdW
SciTegic.value.DoubleValue
0.417

@<SCITEGIC>MOL_PROPERTY
VdW6
SciTegic.value.DoubleValue
-6.635

@<SCITEGIC>MOL_PROPERTY
VdW12
SciTegic.value.DoubleValue
7.052

@<SCITEGIC>MOL_PROPERTY
Bond
SciTegic.value.DoubleValue
0.105

@<SCITEGIC>MOL_PROPERTY
Angle
SciTegic.value.DoubleValue
2.399

@<SCITEGIC>MOL_PROPERTY
Pdih
SciTegic.value.DoubleValue
6.822

@<SCITEGIC>MOL_PROPERTY
Idih
SciTegic.value.DoubleValue
0.000

@<SCITEGIC>MOL_PROPERTY
Tether
SciTegic.value.DoubleValue
0.000

@<TRIPOS>MOLECULE
guest-s22_confgen4.mol2 : confsearch ligand conformer 26
          20          19           1
SMALL
USER_CHARGES
 
@<TRIPOS>ATOM
       1    C1      18.953660   22.526721   20.927142 C.2        1 MOL1        -0.2535
       2    H1      18.167935   22.650070   21.670780 H          1 MOL1         0.0845
       3    H2      18.910663   23.160674   20.043105 H          1 MOL1         0.0845
       4    C2      19.932244   21.632187   21.087923 C.2        1 MOL1        -0.1324
       5    H3      20.708783   21.523851   20.331015 H          1 MOL1         0.0833
       6    C3      20.057735   20.719256   22.287278 C.3        1 MOL1        -0.1813
       7    H4      19.402748   21.065057   23.098545 H          1 MOL1         0.0753
       8    H5      21.085492   20.757935   22.672435 H          1 MOL1         0.0753
       9    C4      19.697743   19.264396   21.920125 C.3        1 MOL1        -0.1855
      10    H6      18.670812   19.230477   21.530854 H          1 MOL1         0.0755
      11    H7      20.355736   18.920213   21.110177 H          1 MOL1         0.0755
      12    C5      19.823803   18.317140   23.134680 C.3        1 MOL1        -0.1855
      13    H8      19.174811   18.677820   23.944188 H          1 MOL1         0.0755
      14    H9      20.852727   18.340583   23.519985 H          1 MOL1         0.0755
      15    C6      19.436579   16.854855   22.793102 C.3        1 MOL1        -0.1958
      16    H10     19.428798   16.254009   23.710108 H          1 MOL1         0.0753
      17    H11     18.420961   16.818233   22.380745 H          1 MOL1         0.0753
      18    C7      20.386131   16.175382   21.810487 C.2        1 MOL1         0.6174
      19    O1      21.467155   15.803799   22.223294 O.co2      1 MOL1        -0.6695
      20    O2      20.016571   16.025539   20.662470 O.co2      1 MOL1        -0.6695
@<TRIPOS>BOND
    1     1     2    1
    2     1     3    1
    3     1     4    2
    4     4     5    1
    5     4     6    1
    6     6     7    1
    7     6     8    1
    8     6     9    1
    9     9    10    1
   10     9    11    1
   11     9    12    1
   12    12    13    1
   13    12    14    1
   14    12    15    1
   15    15    16    1
   16    15    17    1
   17    15    18    1
   18    18    19    1
   19    18    20    2
@<TRIPOS>SUBSTRUCTURE
       1 MOL1            1 RESIDUE      1      MOL     
@<SCITEGIC>MOL_PROPERTY
VConf Rank
SciTegic.value.IntegerValue
26

@<SCITEGIC>MOL_PROPERTY
Conf_Id
SciTegic.value.IntegerValue
54

@<SCITEGIC>MOL_PROPERTY
Delta U+W
SciTegic.value.DoubleValue
-0.048

@<SCITEGIC>MOL_PROPERTY
U+W
SciTegic.value.DoubleValue
-51.793

@<SCITEGIC>MOL_PROPERTY
Grad RMS
SciTegic.value.DoubleValue
0.000000

@<SCITEGIC>MOL_PROPERTY
U
SciTegic.value.DoubleValue
8.964

@<SCITEGIC>MOL_PROPERTY
W
SciTegic.value.DoubleValue
-60.756

@<SCITEGIC>MOL_PROPERTY
W(PB)
SciTegic.value.DoubleValue
-63.007

@<SCITEGIC>MOL_PROPERTY
W(SA)
SciTegic.value.DoubleValue
2.251

@<SCITEGIC>MOL_PROPERTY
Valence
SciTegic.value.DoubleValue
9.327

@<SCITEGIC>MOL_PROPERTY
Coulomb
SciTegic.value.DoubleValue
-0.780

@<SCITEGIC>MOL_PROPERTY
VdW
SciTegic.value.DoubleValue
0.417

@<SCITEGIC>MOL_PROPERTY
VdW6
SciTegic.value.DoubleValue
-6.635

@<SCITEGIC>MOL_PROPERTY
VdW12
SciTegic.value.DoubleValue
7.052

@<SCITEGIC>MOL_PROPERTY
Bond
SciTegic.value.DoubleValue
0.105

@<SCITEGIC>MOL_PROPERTY
Angle
SciTegic.value.DoubleValue
2.399

@<SCITEGIC>MOL_PROPERTY
Pdih
SciTegic.value.DoubleValue
6.822

@<SCITEGIC>MOL_PROPERTY
Idih
SciTegic.value.DoubleValue
0.000

@<SCITEGIC>MOL_PROPERTY
Tether
SciTegic.value.DoubleValue
0.000

@<TRIPOS>MOLECULE
guest-s22_confgen4.mol2 : confsearch ligand conformer 27
          20          19           1
SMALL
USER_CHARGES
 
@<TRIPOS>ATOM
       1    C1      21.273000   17.405192   24.516181 C.2        1 MOL1        -0.2535
       2    H1      22.226635   17.520699   25.028455 H          1 MOL1         0.0845
       3    H2      20.414740   17.106683   25.116007 H          1 MOL1         0.0845
       4    C2      21.163674   17.625000   23.203396 C.2        1 MOL1        -0.1324
       5    H3      22.036220   17.919713   22.621107 H          1 MOL1         0.0833
       6    C3      19.874241   17.477589   22.423986 C.3        1 MOL1        -0.1813
       7    H4      19.171915   16.847688   22.986564 H          1 MOL1         0.0753
       8    H5      20.066292   16.953954   21.477958 H          1 MOL1         0.0753
       9    C4      19.199135   18.838194   22.139052 C.3        1 MOL1        -0.1855
      10    H6      18.209951   18.653914   21.697987 H          1 MOL1         0.0755
      11    H7      19.025381   19.365521   23.087141 H          1 MOL1         0.0755
      12    C5      20.026799   19.732807   21.185772 C.3        1 MOL1        -0.1855
      13    H8      20.213194   19.199991   20.243010 H          1 MOL1         0.0755
      14    H9      21.008380   19.936082   21.633737 H          1 MOL1         0.0755
      15    C6      19.329841   21.084683   20.882689 C.3        1 MOL1        -0.1958
      16    H10     19.106668   21.613512   21.817230 H          1 MOL1         0.0753
      17    H11     20.009022   21.726390   20.309207 H          1 MOL1         0.0753
      18    C7      18.040139   20.951687   20.077819 C.2        1 MOL1         0.6174
      19    O1      16.981707   21.090485   20.658773 O.co2      1 MOL1        -0.6695
      20    O2      18.129267   20.723178   18.887459 O.co2      1 MOL1        -0.6695
@<TRIPOS>BOND
    1     1     2    1
    2     1     3    1
    3     1     4    2
    4     4     5    1
    5     4     6    1
    6     6     7    1
    7     6     8    1
    8     6     9    1
    9     9    10    1
   10     9    11    1
   11     9    12    1
   12    12    13    1
   13    12    14    1
   14    12    15    1
   15    15    16    1
   16    15    17    1
   17    15    18    1
   18    18    19    1
   19    18    20    2
@<TRIPOS>SUBSTRUCTURE
       1 MOL1            1 RESIDUE      1      MOL     
@<SCITEGIC>MOL_PROPERTY
VConf Rank
SciTegic.value.IntegerValue
27

@<SCITEGIC>MOL_PROPERTY
Conf_Id
SciTegic.value.IntegerValue
27

@<SCITEGIC>MOL_PROPERTY
Delta U+W
SciTegic.value.DoubleValue
0.478

@<SCITEGIC>MOL_PROPERTY
U+W
SciTegic.value.DoubleValue
-51.267

@<SCITEGIC>MOL_PROPERTY
Grad RMS
SciTegic.value.DoubleValue
0.000000

@<SCITEGIC>MOL_PROPERTY
U
SciTegic.value.DoubleValue
9.192

@<SCITEGIC>MOL_PROPERTY
W
SciTegic.value.DoubleValue
-60.459

@<SCITEGIC>MOL_PROPERTY
W(PB)
SciTegic.value.DoubleValue
-62.649

@<SCITEGIC>MOL_PROPERTY
W(SA)
SciTegic.value.DoubleValue
2.190

@<SCITEGIC>MOL_PROPERTY
Valence
SciTegic.value.DoubleValue
9.572

@<SCITEGIC>MOL_PROPERTY
Coulomb
SciTegic.value.DoubleValue
-0.884

@<SCITEGIC>MOL_PROPERTY
VdW
SciTegic.value.DoubleValue
0.504

@<SCITEGIC>MOL_PROPERTY
VdW6
SciTegic.value.DoubleValue
-7.168

@<SCITEGIC>MOL_PROPERTY
VdW12
SciTegic.value.DoubleValue
7.672

@<SCITEGIC>MOL_PROPERTY
Bond
SciTegic.value.DoubleValue
0.127

@<SCITEGIC>MOL_PROPERTY
Angle
SciTegic.value.DoubleValue
2.504

@<SCITEGIC>MOL_PROPERTY
Pdih
SciTegic.value.DoubleValue
6.941

@<SCITEGIC>MOL_PROPERTY
Idih
SciTegic.value.DoubleValue
0.001

@<SCITEGIC>MOL_PROPERTY
Tether
SciTegic.value.DoubleValue
0.000

@<TRIPOS>MOLECULE
guest-s22_confgen4.mol2 : confsearch ligand conformer 28
          20          19           1
SMALL
USER_CHARGES
 
@<TRIPOS>ATOM
       1    C1      22.713211   20.224530   21.758779 C.2        1 MOL1        -0.2535
       2    H1      23.333045   19.733152   22.507017 H          1 MOL1         0.0845
       3    H2      22.950165   21.258038   21.511974 H          1 MOL1         0.0845
       4    C2      21.698771   19.588778   21.166827 C.2        1 MOL1        -0.1324
       5    H3      21.092868   20.098400   20.418188 H          1 MOL1         0.0833
       6    C3      21.315223   18.152789   21.454269 C.3        1 MOL1        -0.1813
       7    H4      22.160599   17.630303   21.922141 H          1 MOL1         0.0753
       8    H5      21.110435   17.624716   20.513386 H          1 MOL1         0.0753
       9    C4      20.089293   18.047302   22.389164 C.3        1 MOL1        -0.1855
      10    H6      19.944050   16.993693   22.664284 H          1 MOL1         0.0755
      11    H7      20.294139   18.590587   23.322001 H          1 MOL1         0.0755
      12    C5      18.792385   18.586270   21.742956 C.3        1 MOL1        -0.1855
      13    H8      18.602988   18.059888   20.797225 H          1 MOL1         0.0755
      14    H9      18.909624   19.650689   21.498109 H          1 MOL1         0.0755
      15    C6      17.569628   18.414633   22.677550 C.3        1 MOL1        -0.1958
      16    H10     17.424482   17.355383   22.921390 H          1 MOL1         0.0753
      17    H11     17.738315   18.945022   23.622452 H          1 MOL1         0.0753
      18    C7      16.277095   18.940205   22.063401 C.2        1 MOL1         0.6174
      19    O1      15.980696   20.102573   22.257591 O.co2      1 MOL1        -0.6695
      20    O2      15.609655   18.178031   21.392345 O.co2      1 MOL1        -0.6695
@<TRIPOS>BOND
    1     1     2    1
    2     1     3    1
    3     1     4    2
    4     4     5    1
    5     4     6    1
    6     6     7    1
    7     6     8    1
    8     6     9    1
    9     9    10    1
   10     9    11    1
   11     9    12    1
   12    12    13    1
   13    12    14    1
   14    12    15    1
   15    15    16    1
   16    15    17    1
   17    15    18    1
   18    18    19    1
   19    18    20    2
@<TRIPOS>SUBSTRUCTURE
       1 MOL1            1 RESIDUE      1      MOL     
@<SCITEGIC>MOL_PROPERTY
VConf Rank
SciTegic.value.IntegerValue
28

@<SCITEGIC>MOL_PROPERTY
Conf_Id
SciTegic.value.IntegerValue
41

@<SCITEGIC>MOL_PROPERTY
Delta U+W
SciTegic.value.DoubleValue
-0.634

@<SCITEGIC>MOL_PROPERTY
U+W
SciTegic.value.DoubleValue
-52.379

@<SCITEGIC>MOL_PROPERTY
Grad RMS
SciTegic.value.DoubleValue
0.000000

@<SCITEGIC>MOL_PROPERTY
U
SciTegic.value.DoubleValue
7.828

@<SCITEGIC>MOL_PROPERTY
W
SciTegic.value.DoubleValue
-60.207

@<SCITEGIC>MOL_PROPERTY
W(PB)
SciTegic.value.DoubleValue
-62.449

@<SCITEGIC>MOL_PROPERTY
W(SA)
SciTegic.value.DoubleValue
2.242

@<SCITEGIC>MOL_PROPERTY
Valence
SciTegic.value.DoubleValue
9.300

@<SCITEGIC>MOL_PROPERTY
Coulomb
SciTegic.value.DoubleValue
-2.080

@<SCITEGIC>MOL_PROPERTY
VdW
SciTegic.value.DoubleValue
0.608

@<SCITEGIC>MOL_PROPERTY
VdW6
SciTegic.value.DoubleValue
-6.341

@<SCITEGIC>MOL_PROPERTY
VdW12
SciTegic.value.DoubleValue
6.949

@<SCITEGIC>MOL_PROPERTY
Bond
SciTegic.value.DoubleValue
0.103

@<SCITEGIC>MOL_PROPERTY
Angle
SciTegic.value.DoubleValue
2.334

@<SCITEGIC>MOL_PROPERTY
Pdih
SciTegic.value.DoubleValue
6.862

@<SCITEGIC>MOL_PROPERTY
Idih
SciTegic.value.DoubleValue
0.001

@<SCITEGIC>MOL_PROPERTY
Tether
SciTegic.value.DoubleValue
0.000

@<TRIPOS>MOLECULE
guest-s22_confgen4.mol2 : confsearch ligand conformer 29
          20          19           1
SMALL
USER_CHARGES
 
@<TRIPOS>ATOM
       1    C1      21.522653   21.777371   21.001408 C.2        1 MOL1        -0.2535
       2    H1      21.419598   22.709126   20.447829 H          1 MOL1         0.0845
       3    H2      22.365443   21.691526   21.685432 H          1 MOL1         0.0845
       4    C2      20.645968   20.781852   20.846226 C.2        1 MOL1        -0.1324
       5    H3      19.808564   20.887825   20.156886 H          1 MOL1         0.0833
       6    C3      20.724464   19.460768   21.578465 C.3        1 MOL1        -0.1813
       7    H4      21.713588   19.340264   22.040511 H          1 MOL1         0.0753
       8    H5      20.607324   18.642168   20.856574 H          1 MOL1         0.0753
       9    C4      19.631347   19.363510   22.666035 C.3        1 MOL1        -0.1855
      10    H6      19.702131   20.243896   23.319542 H          1 MOL1         0.0755
      11    H7      18.639655   19.408129   22.195062 H          1 MOL1         0.0755
      12    C5      19.740425   18.090348   23.540879 C.3        1 MOL1        -0.1855
      13    H8      18.979347   18.138675   24.331962 H          1 MOL1         0.0755
      14    H9      20.713425   18.083885   24.050425 H          1 MOL1         0.0755
      15    C6      19.565081   16.758431   22.761346 C.3        1 MOL1        -0.1958
      16    H10     20.355448   16.641795   22.011199 H          1 MOL1         0.0753
      17    H11     19.669276   15.915835   23.454801 H          1 MOL1         0.0753
      18    C7      18.211495   16.613761   22.071698 C.2        1 MOL1         0.6174
      19    O1      17.233700   16.415464   22.765961 O.co2      1 MOL1        -0.6695
      20    O2      18.172270   16.684946   20.859120 O.co2      1 MOL1        -0.6695
@<TRIPOS>BOND
    1     1     2    1
    2     1     3    1
    3     1     4    2
    4     4     5    1
    5     4     6    1
    6     6     7    1
    7     6     8    1
    8     6     9    1
    9     9    10    1
   10     9    11    1
   11     9    12    1
   12    12    13    1
   13    12    14    1
   14    12    15    1
   15    15    16    1
   16    15    17    1
   17    15    18    1
   18    18    19    1
   19    18    20    2
@<TRIPOS>SUBSTRUCTURE
       1 MOL1            1 RESIDUE      1      MOL     
@<SCITEGIC>MOL_PROPERTY
VConf Rank
SciTegic.value.IntegerValue
29

@<SCITEGIC>MOL_PROPERTY
Conf_Id
SciTegic.value.IntegerValue
84

@<SCITEGIC>MOL_PROPERTY
Delta U+W
SciTegic.value.DoubleValue
0.942

@<SCITEGIC>MOL_PROPERTY
U+W
SciTegic.value.DoubleValue
-50.803

@<SCITEGIC>MOL_PROPERTY
Grad RMS
SciTegic.value.DoubleValue
0.000000

@<SCITEGIC>MOL_PROPERTY
U
SciTegic.value.DoubleValue
10.196

@<SCITEGIC>MOL_PROPERTY
W
SciTegic.value.DoubleValue
-60.999

@<SCITEGIC>MOL_PROPERTY
W(PB)
SciTegic.value.DoubleValue
-63.182

@<SCITEGIC>MOL_PROPERTY
W(SA)
SciTegic.value.DoubleValue
2.182

@<SCITEGIC>MOL_PROPERTY
Valence
SciTegic.value.DoubleValue
9.837

@<SCITEGIC>MOL_PROPERTY
Coulomb
SciTegic.value.DoubleValue
0.032

@<SCITEGIC>MOL_PROPERTY
VdW
SciTegic.value.DoubleValue
0.328

@<SCITEGIC>MOL_PROPERTY
VdW6
SciTegic.value.DoubleValue
-7.642

@<SCITEGIC>MOL_PROPERTY
VdW12
SciTegic.value.DoubleValue
7.969

@<SCITEGIC>MOL_PROPERTY
Bond
SciTegic.value.DoubleValue
0.151

@<SCITEGIC>MOL_PROPERTY
Angle
SciTegic.value.DoubleValue
2.748

@<SCITEGIC>MOL_PROPERTY
Pdih
SciTegic.value.DoubleValue
6.937

@<SCITEGIC>MOL_PROPERTY
Idih
SciTegic.value.DoubleValue
0.001

@<SCITEGIC>MOL_PROPERTY
Tether
SciTegic.value.DoubleValue
0.000

@<TRIPOS>MOLECULE
guest-s22_confgen4.mol2 : confsearch ligand conformer 30
          20          19           1
SMALL
USER_CHARGES
 
@<TRIPOS>ATOM
       1    C1      19.416334   15.825369   22.698786 C.2        1 MOL1        -0.2535
       2    H1      19.104892   15.057571   23.405008 H          1 MOL1         0.0845
       3    H2      19.126601   15.695311   21.657286 H          1 MOL1         0.0845
       4    C2      20.123869   16.885037   23.098989 C.2        1 MOL1        -0.1324
       5    H3      20.402964   16.996765   24.146491 H          1 MOL1         0.0833
       6    C3      20.591809   17.989174   22.177264 C.3        1 MOL1        -0.1813
       7    H4      20.496838   17.675182   21.128847 H          1 MOL1         0.0753
       8    H5      21.657731   18.186911   22.352739 H          1 MOL1         0.0753
       9    C4      19.781292   19.283019   22.401071 C.3        1 MOL1        -0.1855
      10    H6      18.715573   19.076387   22.230116 H          1 MOL1         0.0755
      11    H7      19.879119   19.599935   23.448470 H          1 MOL1         0.0755
      12    C5      20.249691   20.422949   21.468605 C.3        1 MOL1        -0.1855
      13    H8      20.139924   20.114511   20.419544 H          1 MOL1         0.0755
      14    H9      21.319690   20.609015   21.633081 H          1 MOL1         0.0755
      15    C6      19.468201   21.742210   21.700353 C.3        1 MOL1        -0.1958
      16    H10     19.545763   22.049167   22.750408 H          1 MOL1         0.0753
      17    H11     19.916349   22.543681   21.101368 H          1 MOL1         0.0753
      18    C7      17.991440   21.662603   21.323876 C.2        1 MOL1         0.6174
      19    O1      17.171836   21.595491   22.218704 O.co2      1 MOL1        -0.6695
      20    O2      17.699657   21.683124   20.144237 O.co2      1 MOL1        -0.6695
@<TRIPOS>BOND
    1     1     2    1
    2     1     3    1
    3     1     4    2
    4     4     5    1
    5     4     6    1
    6     6     7    1
    7     6     8    1
    8     6     9    1
    9     9    10    1
   10     9    11    1
   11     9    12    1
   12    12    13    1
   13    12    14    1
   14    12    15    1
   15    15    16    1
   16    15    17    1
   17    15    18    1
   18    18    19    1
   19    18    20    2
@<TRIPOS>SUBSTRUCTURE
       1 MOL1            1 RESIDUE      1      MOL     
@<SCITEGIC>MOL_PROPERTY
VConf Rank
SciTegic.value.IntegerValue
30

@<SCITEGIC>MOL_PROPERTY
Conf_Id
SciTegic.value.IntegerValue
81

@<SCITEGIC>MOL_PROPERTY
Delta U+W
SciTegic.value.DoubleValue
-0.051

@<SCITEGIC>MOL_PROPERTY
U+W
SciTegic.value.DoubleValue
-51.796

@<SCITEGIC>MOL_PROPERTY
Grad RMS
SciTegic.value.DoubleValue
0.000000

@<SCITEGIC>MOL_PROPERTY
U
SciTegic.value.DoubleValue
9.412

@<SCITEGIC>MOL_PROPERTY
W
SciTegic.value.DoubleValue
-61.209

@<SCITEGIC>MOL_PROPERTY
W(PB)
SciTegic.value.DoubleValue
-63.452

@<SCITEGIC>MOL_PROPERTY
W(SA)
SciTegic.value.DoubleValue
2.243

@<SCITEGIC>MOL_PROPERTY
Valence
SciTegic.value.DoubleValue
9.329

@<SCITEGIC>MOL_PROPERTY
Coulomb
SciTegic.value.DoubleValue
-0.323

@<SCITEGIC>MOL_PROPERTY
VdW
SciTegic.value.DoubleValue
0.406

@<SCITEGIC>MOL_PROPERTY
VdW6
SciTegic.value.DoubleValue
-6.640

@<SCITEGIC>MOL_PROPERTY
VdW12
SciTegic.value.DoubleValue
7.046

@<SCITEGIC>MOL_PROPERTY
Bond
SciTegic.value.DoubleValue
0.105

@<SCITEGIC>MOL_PROPERTY
Angle
SciTegic.value.DoubleValue
2.401

@<SCITEGIC>MOL_PROPERTY
Pdih
SciTegic.value.DoubleValue
6.823

@<SCITEGIC>MOL_PROPERTY
Idih
SciTegic.value.DoubleValue
0.000

@<SCITEGIC>MOL_PROPERTY
Tether
SciTegic.value.DoubleValue
0.000

@<TRIPOS>MOLECULE
guest-s22_confgen4.mol2 : confsearch ligand conformer 31
          20          19           1
SMALL
USER_CHARGES
 
@<TRIPOS>ATOM
       1    C1      19.744856   16.035971   20.939449 C.2        1 MOL1        -0.2535
       2    H1      20.583743   15.964568   20.249065 H          1 MOL1         0.0845
       3    H2      19.318484   15.104618   21.308140 H          1 MOL1         0.0845
       4    C2      19.256814   17.218237   21.323821 C.2        1 MOL1        -0.1324
       5    H3      18.415003   17.267623   22.013850 H          1 MOL1         0.0833
       6    C3      19.793490   18.551991   20.849896 C.3        1 MOL1        -0.1813
       7    H4      18.963372   19.217923   20.580879 H          1 MOL1         0.0753
       8    H5      20.374354   18.411011   19.928518 H          1 MOL1         0.0753
       9    C4      20.700835   19.232043   21.902968 C.3        1 MOL1        -0.1855
      10    H6      21.569183   18.586080   22.091485 H          1 MOL1         0.0755
      11    H7      21.100935   20.163565   21.479697 H          1 MOL1         0.0755
      12    C5      20.006193   19.541634   23.254158 C.3        1 MOL1        -0.1855
      13    H8      20.742233   19.994936   23.932351 H          1 MOL1         0.0755
      14    H9      19.694084   18.602249   23.729382 H          1 MOL1         0.0755
      15    C6      18.780610   20.489323   23.144510 C.3        1 MOL1        -0.1958
      16    H10     17.992989   20.033085   22.534148 H          1 MOL1         0.0753
      17    H11     18.350626   20.643368   24.140999 H          1 MOL1         0.0753
      18    C7      19.106939   21.865887   22.572563 C.2        1 MOL1         0.6174
      19    O1      18.719854   22.130729   21.451355 O.co2      1 MOL1        -0.6695
      20    O2      19.725634   22.644200   23.271782 O.co2      1 MOL1        -0.6695
@<TRIPOS>BOND
    1     1     2    1
    2     1     3    1
    3     1     4    2
    4     4     5    1
    5     4     6    1
    6     6     7    1
    7     6     8    1
    8     6     9    1
    9     9    10    1
   10     9    11    1
   11     9    12    1
   12    12    13    1
   13    12    14    1
   14    12    15    1
   15    15    16    1
   16    15    17    1
   17    15    18    1
   18    18    19    1
   19    18    20    2
@<TRIPOS>SUBSTRUCTURE
       1 MOL1            1 RESIDUE      1      MOL     
@<SCITEGIC>MOL_PROPERTY
VConf Rank
SciTegic.value.IntegerValue
31

@<SCITEGIC>MOL_PROPERTY
Conf_Id
SciTegic.value.IntegerValue
86

@<SCITEGIC>MOL_PROPERTY
Delta U+W
SciTegic.value.DoubleValue
1.248

@<SCITEGIC>MOL_PROPERTY
U+W
SciTegic.value.DoubleValue
-50.498

@<SCITEGIC>MOL_PROPERTY
Grad RMS
SciTegic.value.DoubleValue
0.000000

@<SCITEGIC>MOL_PROPERTY
U
SciTegic.value.DoubleValue
10.404

@<SCITEGIC>MOL_PROPERTY
W
SciTegic.value.DoubleValue
-60.901

@<SCITEGIC>MOL_PROPERTY
W(PB)
SciTegic.value.DoubleValue
-63.061

@<SCITEGIC>MOL_PROPERTY
W(SA)
SciTegic.value.DoubleValue
2.159

@<SCITEGIC>MOL_PROPERTY
Valence
SciTegic.value.DoubleValue
10.021

@<SCITEGIC>MOL_PROPERTY
Coulomb
SciTegic.value.DoubleValue
0.094

@<SCITEGIC>MOL_PROPERTY
VdW
SciTegic.value.DoubleValue
0.289

@<SCITEGIC>MOL_PROPERTY
VdW6
SciTegic.value.DoubleValue
-8.409

@<SCITEGIC>MOL_PROPERTY
VdW12
SciTegic.value.DoubleValue
8.698

@<SCITEGIC>MOL_PROPERTY
Bond
SciTegic.value.DoubleValue
0.179

@<SCITEGIC>MOL_PROPERTY
Angle
SciTegic.value.DoubleValue
2.939

@<SCITEGIC>MOL_PROPERTY
Pdih
SciTegic.value.DoubleValue
6.902

@<SCITEGIC>MOL_PROPERTY
Idih
SciTegic.value.DoubleValue
0.001

@<SCITEGIC>MOL_PROPERTY
Tether
SciTegic.value.DoubleValue
0.000

@<TRIPOS>MOLECULE
guest-s22_confgen4.mol2 : confsearch ligand conformer 32
          20          19           1
SMALL
USER_CHARGES
 
@<TRIPOS>ATOM
       1    C1      20.827000   18.124807   24.819018 C.2        1 MOL1        -0.2535
       2    H1      21.716972   17.674262   25.254979 H          1 MOL1         0.0845
       3    H2      20.502998   19.083843   25.219886 H          1 MOL1         0.0845
       4    C2      20.163185   17.522979   23.828474 C.2        1 MOL1        -0.1324
       5    H3      20.505476   16.564178   23.439980 H          1 MOL1         0.0833
       6    C3      18.920533   18.087136   23.173039 C.3        1 MOL1        -0.1813
       7    H4      18.531740   18.938072   23.748721 H          1 MOL1         0.0753
       8    H5      18.132578   17.322354   23.180638 H          1 MOL1         0.0753
       9    C4      19.174912   18.525551   21.713195 C.3        1 MOL1        -0.1855
      10    H6      19.567482   17.676092   21.137669 H          1 MOL1         0.0755
      11    H7      18.214349   18.797077   21.254280 H          1 MOL1         0.0755
      12    C5      20.149212   19.722977   21.610690 C.3        1 MOL1        -0.1855
      13    H8      21.112179   19.450592   22.062984 H          1 MOL1         0.0755
      14    H9      19.758107   20.571097   22.189552 H          1 MOL1         0.0755
      15    C6      20.394128   20.169074   20.145751 C.3        1 MOL1        -0.1958
      16    H10     21.179885   20.933256   20.122243 H          1 MOL1         0.0753
      17    H11     20.755332   19.323620   19.547823 H          1 MOL1         0.0753
      18    C7      19.163595   20.758850   19.462614 C.2        1 MOL1         0.6174
      19    O1      18.834873   21.892022   19.754148 O.co2      1 MOL1        -0.6695
      20    O2      18.573171   20.075320   18.649426 O.co2      1 MOL1        -0.6695
@<TRIPOS>BOND
    1     1     2    1
    2     1     3    1
    3     1     4    2
    4     4     5    1
    5     4     6    1
    6     6     7    1
    7     6     8    1
    8     6     9    1
    9     9    10    1
   10     9    11    1
   11     9    12    1
   12    12    13    1
   13    12    14    1
   14    12    15    1
   15    15    16    1
   16    15    17    1
   17    15    18    1
   18    18    19    1
   19    18    20    2
@<TRIPOS>SUBSTRUCTURE
       1 MOL1            1 RESIDUE      1      MOL     
@<SCITEGIC>MOL_PROPERTY
VConf Rank
SciTegic.value.IntegerValue
32

@<SCITEGIC>MOL_PROPERTY
Conf_Id
SciTegic.value.IntegerValue
28

@<SCITEGIC>MOL_PROPERTY
Delta U+W
SciTegic.value.DoubleValue
0.446

@<SCITEGIC>MOL_PROPERTY
U+W
SciTegic.value.DoubleValue
-51.299

@<SCITEGIC>MOL_PROPERTY
Grad RMS
SciTegic.value.DoubleValue
0.000000

@<SCITEGIC>MOL_PROPERTY
U
SciTegic.value.DoubleValue
9.295

@<SCITEGIC>MOL_PROPERTY
W
SciTegic.value.DoubleValue
-60.594

@<SCITEGIC>MOL_PROPERTY
W(PB)
SciTegic.value.DoubleValue
-62.806

@<SCITEGIC>MOL_PROPERTY
W(SA)
SciTegic.value.DoubleValue
2.212

@<SCITEGIC>MOL_PROPERTY
Valence
SciTegic.value.DoubleValue
9.495

@<SCITEGIC>MOL_PROPERTY
Coulomb
SciTegic.value.DoubleValue
-0.610

@<SCITEGIC>MOL_PROPERTY
VdW
SciTegic.value.DoubleValue
0.409

@<SCITEGIC>MOL_PROPERTY
VdW6
SciTegic.value.DoubleValue
-7.332

@<SCITEGIC>MOL_PROPERTY
VdW12
SciTegic.value.DoubleValue
7.741

@<SCITEGIC>MOL_PROPERTY
Bond
SciTegic.value.DoubleValue
0.126

@<SCITEGIC>MOL_PROPERTY
Angle
SciTegic.value.DoubleValue
2.497

@<SCITEGIC>MOL_PROPERTY
Pdih
SciTegic.value.DoubleValue
6.872

@<SCITEGIC>MOL_PROPERTY
Idih
SciTegic.value.DoubleValue
0.000

@<SCITEGIC>MOL_PROPERTY
Tether
SciTegic.value.DoubleValue
0.000

@<TRIPOS>MOLECULE
guest-s22_confgen4.mol2 : confsearch ligand conformer 33
          20          19           1
SMALL
USER_CHARGES
 
@<TRIPOS>ATOM
       1    C1      17.881001   19.627846   19.710841 C.2        1 MOL1        -0.2535
       2    H1      17.965470   20.589867   20.211715 H          1 MOL1         0.0845
       3    H2      17.354625   19.614606   18.758007 H          1 MOL1         0.0845
       4    C2      18.395779   18.504047   20.222755 C.2        1 MOL1        -0.1324
       5    H3      18.280963   17.570300   19.672779 H          1 MOL1         0.0833
       6    C3      19.150664   18.364987   21.534344 C.3        1 MOL1        -0.1813
       7    H4      20.166241   18.012170   21.313473 H          1 MOL1         0.0753
       8    H5      18.679770   17.570164   22.127865 H          1 MOL1         0.0753
       9    C4      19.221339   19.655701   22.387375 C.3        1 MOL1        -0.1855
      10    H6      19.769965   20.432349   21.836919 H          1 MOL1         0.0755
      11    H7      18.203423   20.038872   22.541394 H          1 MOL1         0.0755
      12    C5      19.873465   19.443152   23.776121 C.3        1 MOL1        -0.1855
      13    H8      19.290744   18.702283   24.339981 H          1 MOL1         0.0755
      14    H9      19.808323   20.381638   24.343932 H          1 MOL1         0.0755
      15    C6      21.359290   18.992925   23.728412 C.3        1 MOL1        -0.1958
      16    H10     21.729985   18.857840   24.751152 H          1 MOL1         0.0753
      17    H11     21.453615   18.019514   23.233972 H          1 MOL1         0.0753
      18    C7      22.290039   19.985132   23.036937 C.2        1 MOL1         0.6174
      19    O1      22.531156   21.033716   23.602432 O.co2      1 MOL1        -0.6695
      20    O2      22.765847   19.675634   21.962379 O.co2      1 MOL1        -0.6695
@<TRIPOS>BOND
    1     1     2    1
    2     1     3    1
    3     1     4    2
    4     4     5    1
    5     4     6    1
    6     6     7    1
    7     6     8    1
    8     6     9    1
    9     9    10    1
   10     9    11    1
   11     9    12    1
   12    12    13    1
   13    12    14    1
   14    12    15    1
   15    15    16    1
   16    15    17    1
   17    15    18    1
   18    18    19    1
   19    18    20    2
@<TRIPOS>SUBSTRUCTURE
       1 MOL1            1 RESIDUE      1      MOL     
@<SCITEGIC>MOL_PROPERTY
VConf Rank
SciTegic.value.IntegerValue
33

@<SCITEGIC>MOL_PROPERTY
Conf_Id
SciTegic.value.IntegerValue
53

@<SCITEGIC>MOL_PROPERTY
Delta U+W
SciTegic.value.DoubleValue
0.549

@<SCITEGIC>MOL_PROPERTY
U+W
SciTegic.value.DoubleValue
-51.197

@<SCITEGIC>MOL_PROPERTY
Grad RMS
SciTegic.value.DoubleValue
0.000000

@<SCITEGIC>MOL_PROPERTY
U
SciTegic.value.DoubleValue
10.870

@<SCITEGIC>MOL_PROPERTY
W
SciTegic.value.DoubleValue
-62.067

@<SCITEGIC>MOL_PROPERTY
W(PB)
SciTegic.value.DoubleValue
-64.228

@<SCITEGIC>MOL_PROPERTY
W(SA)
SciTegic.value.DoubleValue
2.161

@<SCITEGIC>MOL_PROPERTY
Valence
SciTegic.value.DoubleValue
8.803

@<SCITEGIC>MOL_PROPERTY
Coulomb
SciTegic.value.DoubleValue
1.020

@<SCITEGIC>MOL_PROPERTY
VdW
SciTegic.value.DoubleValue
1.048

@<SCITEGIC>MOL_PROPERTY
VdW6
SciTegic.value.DoubleValue
-8.312

@<SCITEGIC>MOL_PROPERTY
VdW12
SciTegic.value.DoubleValue
9.360

@<SCITEGIC>MOL_PROPERTY
Bond
SciTegic.value.DoubleValue
0.212

@<SCITEGIC>MOL_PROPERTY
Angle
SciTegic.value.DoubleValue
3.379

@<SCITEGIC>MOL_PROPERTY
Pdih
SciTegic.value.DoubleValue
5.211

@<SCITEGIC>MOL_PROPERTY
Idih
SciTegic.value.DoubleValue
0.001

@<SCITEGIC>MOL_PROPERTY
Tether
SciTegic.value.DoubleValue
0.000

@<TRIPOS>MOLECULE
guest-s22_confgen4.mol2 : confsearch ligand conformer 34
          20          19           1
SMALL
USER_CHARGES
 
@<TRIPOS>ATOM
       1    C1      22.337537   18.651788   21.131975 C.2        1 MOL1        -0.2535
       2    H1      22.230921   19.734195   21.150041 H          1 MOL1         0.0845
       3    H2      23.033001   18.235791   20.405201 H          1 MOL1         0.0845
       4    C2      21.656660   17.855288   21.963029 C.2        1 MOL1        -0.1324
       5    H3      21.802668   16.777024   21.905316 H          1 MOL1         0.0833
       6    C3      20.654518   18.296980   23.016835 C.3        1 MOL1        -0.1813
       7    H4      21.157114   18.319721   23.992684 H          1 MOL1         0.0753
       8    H5      19.880737   17.525405   23.119385 H          1 MOL1         0.0753
       9    C4      19.966127   19.664067   22.765909 C.3        1 MOL1        -0.1855
      10    H6      19.328028   19.897597   23.629119 H          1 MOL1         0.0755
      11    H7      20.726108   20.455912   22.738815 H          1 MOL1         0.0755
      12    C5      19.108060   19.732583   21.475219 C.3        1 MOL1        -0.1855
      13    H8      19.747607   19.573347   20.597620 H          1 MOL1         0.0755
      14    H9      18.702823   20.748939   21.376114 H          1 MOL1         0.0755
      15    C6      17.930050   18.721354   21.430192 C.3        1 MOL1        -0.1958
      16    H10     17.386896   18.839511   20.485423 H          1 MOL1         0.0753
      17    H11     18.304953   17.691674   21.444661 H          1 MOL1         0.0753
      18    C7      16.918469   18.890619   22.560006 C.2        1 MOL1         0.6174
      19    O1      16.887848   18.049872   23.437140 O.co2      1 MOL1        -0.6695
      20    O2      16.174443   19.851122   22.523025 O.co2      1 MOL1        -0.6695
@<TRIPOS>BOND
    1     1     2    1
    2     1     3    1
    3     1     4    2
    4     4     5    1
    5     4     6    1
    6     6     7    1
    7     6     8    1
    8     6     9    1
    9     9    10    1
   10     9    11    1
   11     9    12    1
   12    12    13    1
   13    12    14    1
   14    12    15    1
   15    15    16    1
   16    15    17    1
   17    15    18    1
   18    18    19    1
   19    18    20    2
@<TRIPOS>SUBSTRUCTURE
       1 MOL1            1 RESIDUE      1      MOL     
@<SCITEGIC>MOL_PROPERTY
VConf Rank
SciTegic.value.IntegerValue
34

@<SCITEGIC>MOL_PROPERTY
Conf_Id
SciTegic.value.IntegerValue
66

@<SCITEGIC>MOL_PROPERTY
Delta U+W
SciTegic.value.DoubleValue
1.737

@<SCITEGIC>MOL_PROPERTY
U+W
SciTegic.value.DoubleValue
-50.008

@<SCITEGIC>MOL_PROPERTY
Grad RMS
SciTegic.value.DoubleValue
0.000000

@<SCITEGIC>MOL_PROPERTY
U
SciTegic.value.DoubleValue
11.091

@<SCITEGIC>MOL_PROPERTY
W
SciTegic.value.DoubleValue
-61.099

@<SCITEGIC>MOL_PROPERTY
W(PB)
SciTegic.value.DoubleValue
-63.213

@<SCITEGIC>MOL_PROPERTY
W(SA)
SciTegic.value.DoubleValue
2.114

@<SCITEGIC>MOL_PROPERTY
Valence
SciTegic.value.DoubleValue
9.664

@<SCITEGIC>MOL_PROPERTY
Coulomb
SciTegic.value.DoubleValue
0.658

@<SCITEGIC>MOL_PROPERTY
VdW
SciTegic.value.DoubleValue
0.769

@<SCITEGIC>MOL_PROPERTY
VdW6
SciTegic.value.DoubleValue
-9.171

@<SCITEGIC>MOL_PROPERTY
VdW12
SciTegic.value.DoubleValue
9.940

@<SCITEGIC>MOL_PROPERTY
Bond
SciTegic.value.DoubleValue
0.244

@<SCITEGIC>MOL_PROPERTY
Angle
SciTegic.value.DoubleValue
3.658

@<SCITEGIC>MOL_PROPERTY
Pdih
SciTegic.value.DoubleValue
5.762

@<SCITEGIC>MOL_PROPERTY
Idih
SciTegic.value.DoubleValue
0.001

@<SCITEGIC>MOL_PROPERTY
Tether
SciTegic.value.DoubleValue
0.000

@<TRIPOS>MOLECULE
guest-s22_confgen4.mol2 : confsearch ligand conformer 35
          20          19           1
SMALL
USER_CHARGES
 
@<TRIPOS>ATOM
       1    C1      21.058081   19.827354   19.842227 C.2        1 MOL1        -0.2535
       2    H1      21.668091   19.029314   20.259602 H          1 MOL1         0.0845
       3    H2      21.059293   19.934522   18.758968 H          1 MOL1         0.0845
       4    C2      20.338206   20.651445   20.611339 C.2        1 MOL1        -0.1324
       5    H3      19.746461   21.435871   20.140326 H          1 MOL1         0.0833
       6    C3      20.237263   20.616246   22.127641 C.3        1 MOL1        -0.1813
       7    H4      19.224826   20.918324   22.423228 H          1 MOL1         0.0753
       8    H5      20.893469   21.393881   22.540267 H          1 MOL1         0.0753
       9    C4      20.573740   19.258670   22.798527 C.3        1 MOL1        -0.1855
      10    H6      21.606654   18.977541   22.554503 H          1 MOL1         0.0755
      11    H7      20.552651   19.390415   23.888861 H          1 MOL1         0.0755
      12    C5      19.621344   18.095548   22.420653 C.3        1 MOL1        -0.1855
      13    H8      19.998870   17.171350   22.879470 H          1 MOL1         0.0755
      14    H9      19.637734   17.928448   21.335569 H          1 MOL1         0.0755
      15    C6      18.157869   18.317651   22.883067 C.3        1 MOL1        -0.1958
      16    H10     18.128495   18.536224   23.957085 H          1 MOL1         0.0753
      17    H11     17.716038   19.174943   22.362798 H          1 MOL1         0.0753
      18    C7      17.267415   17.107734   22.623379 C.2        1 MOL1         0.6174
      19    O1      16.665211   17.052474   21.569316 O.co2      1 MOL1        -0.6695
      20    O2      17.210383   16.244424   23.476828 O.co2      1 MOL1        -0.6695
@<TRIPOS>BOND
    1     1     2    1
    2     1     3    1
    3     1     4    2
    4     4     5    1
    5     4     6    1
    6     6     7    1
    7     6     8    1
    8     6     9    1
    9     9    10    1
   10     9    11    1
   11     9    12    1
   12    12    13    1
   13    12    14    1
   14    12    15    1
   15    15    16    1
   16    15    17    1
   17    15    18    1
   18    18    19    1
   19    18    20    2
@<TRIPOS>SUBSTRUCTURE
       1 MOL1            1 RESIDUE      1      MOL     
@<SCITEGIC>MOL_PROPERTY
VConf Rank
SciTegic.value.IntegerValue
35

@<SCITEGIC>MOL_PROPERTY
Conf_Id
SciTegic.value.IntegerValue
64

@<SCITEGIC>MOL_PROPERTY
Delta U+W
SciTegic.value.DoubleValue
0.366

@<SCITEGIC>MOL_PROPERTY
U+W
SciTegic.value.DoubleValue
-51.379

@<SCITEGIC>MOL_PROPERTY
Grad RMS
SciTegic.value.DoubleValue
0.000000

@<SCITEGIC>MOL_PROPERTY
U
SciTegic.value.DoubleValue
10.000

@<SCITEGIC>MOL_PROPERTY
W
SciTegic.value.DoubleValue
-61.379

@<SCITEGIC>MOL_PROPERTY
W(PB)
SciTegic.value.DoubleValue
-63.541

@<SCITEGIC>MOL_PROPERTY
W(SA)
SciTegic.value.DoubleValue
2.162

@<SCITEGIC>MOL_PROPERTY
Valence
SciTegic.value.DoubleValue
9.398

@<SCITEGIC>MOL_PROPERTY
Coulomb
SciTegic.value.DoubleValue
-0.504

@<SCITEGIC>MOL_PROPERTY
VdW
SciTegic.value.DoubleValue
1.105

@<SCITEGIC>MOL_PROPERTY
VdW6
SciTegic.value.DoubleValue
-7.975

@<SCITEGIC>MOL_PROPERTY
VdW12
SciTegic.value.DoubleValue
9.080

@<SCITEGIC>MOL_PROPERTY
Bond
SciTegic.value.DoubleValue
0.216

@<SCITEGIC>MOL_PROPERTY
Angle
SciTegic.value.DoubleValue
3.417

@<SCITEGIC>MOL_PROPERTY
Pdih
SciTegic.value.DoubleValue
5.765

@<SCITEGIC>MOL_PROPERTY
Idih
SciTegic.value.DoubleValue
0.001

@<SCITEGIC>MOL_PROPERTY
Tether
SciTegic.value.DoubleValue
0.000

@<TRIPOS>MOLECULE
guest-s22_confgen4.mol2 : confsearch ligand conformer 36
          20          19           1
SMALL
USER_CHARGES
 
@<TRIPOS>ATOM
       1    C1      17.232076   18.380242   20.934629 C.2        1 MOL1        -0.2535
       2    H1      16.857819   19.305816   21.368982 H          1 MOL1         0.0845
       3    H2      16.595474   17.500009   21.005566 H          1 MOL1         0.0845
       4    C2      18.426964   18.321904   20.340616 C.2        1 MOL1        -0.1324
       5    H3      18.784071   17.384824   19.914297 H          1 MOL1         0.0833
       6    C3      19.366364   19.501304   20.204522 C.3        1 MOL1        -0.1813
       7    H4      18.854541   20.436042   20.470933 H          1 MOL1         0.0753
       8    H5      19.666352   19.601473   19.152943 H          1 MOL1         0.0753
       9    C4      20.635343   19.342656   21.071970 C.3        1 MOL1        -0.1855
      10    H6      21.146802   18.407400   20.805907 H          1 MOL1         0.0755
      11    H7      21.330760   20.159685   20.835874 H          1 MOL1         0.0755
      12    C5      20.328047   19.358887   22.586859 C.3        1 MOL1        -0.1855
      13    H8      19.653840   18.529280   22.840683 H          1 MOL1         0.0755
      14    H9      19.801450   20.287307   22.847666 H          1 MOL1         0.0755
      15    C6      21.616897   19.244537   23.437629 C.3        1 MOL1        -0.1958
      16    H10     22.147636   18.315503   23.197214 H          1 MOL1         0.0753
      17    H11     22.296220   20.074696   23.209941 H          1 MOL1         0.0753
      18    C7      21.339657   19.257930   24.936647 C.2        1 MOL1         0.6174
      19    O1      21.295010   20.332712   25.501978 O.co2      1 MOL1        -0.6695
      20    O2      21.161805   18.194404   25.496978 O.co2      1 MOL1        -0.6695
@<TRIPOS>BOND
    1     1     2    1
    2     1     3    1
    3     1     4    2
    4     4     5    1
    5     4     6    1
    6     6     7    1
    7     6     8    1
    8     6     9    1
    9     9    10    1
   10     9    11    1
   11     9    12    1
   12    12    13    1
   13    12    14    1
   14    12    15    1
   15    15    16    1
   16    15    17    1
   17    15    18    1
   18    18    19    1
   19    18    20    2
@<TRIPOS>SUBSTRUCTURE
       1 MOL1            1 RESIDUE      1      MOL     
@<SCITEGIC>MOL_PROPERTY
VConf Rank
SciTegic.value.IntegerValue
36

@<SCITEGIC>MOL_PROPERTY
Conf_Id
SciTegic.value.IntegerValue
42

@<SCITEGIC>MOL_PROPERTY
Delta U+W
SciTegic.value.DoubleValue
-0.601

@<SCITEGIC>MOL_PROPERTY
U+W
SciTegic.value.DoubleValue
-52.347

@<SCITEGIC>MOL_PROPERTY
Grad RMS
SciTegic.value.DoubleValue
0.000000

@<SCITEGIC>MOL_PROPERTY
U
SciTegic.value.DoubleValue
8.428

@<SCITEGIC>MOL_PROPERTY
W
SciTegic.value.DoubleValue
-60.774

@<SCITEGIC>MOL_PROPERTY
W(PB)
SciTegic.value.DoubleValue
-62.982

@<SCITEGIC>MOL_PROPERTY
W(SA)
SciTegic.value.DoubleValue
2.208

@<SCITEGIC>MOL_PROPERTY
Valence
SciTegic.value.DoubleValue
9.231

@<SCITEGIC>MOL_PROPERTY
Coulomb
SciTegic.value.DoubleValue
-1.304

@<SCITEGIC>MOL_PROPERTY
VdW
SciTegic.value.DoubleValue
0.501

@<SCITEGIC>MOL_PROPERTY
VdW6
SciTegic.value.DoubleValue
-6.515

@<SCITEGIC>MOL_PROPERTY
VdW12
SciTegic.value.DoubleValue
7.016

@<SCITEGIC>MOL_PROPERTY
Bond
SciTegic.value.DoubleValue
0.103

@<SCITEGIC>MOL_PROPERTY
Angle
SciTegic.value.DoubleValue
2.328

@<SCITEGIC>MOL_PROPERTY
Pdih
SciTegic.value.DoubleValue
6.799

@<SCITEGIC>MOL_PROPERTY
Idih
SciTegic.value.DoubleValue
0.000

@<SCITEGIC>MOL_PROPERTY
Tether
SciTegic.value.DoubleValue
0.000

@<TRIPOS>MOLECULE
guest-s22_confgen4.mol2 : confsearch ligand conformer 37
          20          19           1
SMALL
USER_CHARGES
 
@<TRIPOS>ATOM
       1    C1      20.497027   20.011054   19.269487 C.2        1 MOL1        -0.2535
       2    H1      21.170519   20.798740   19.603183 H          1 MOL1         0.0845
       3    H2      19.925062   20.192175   18.361111 H          1 MOL1         0.0845
       4    C2      20.371526   18.867189   19.947607 C.2        1 MOL1        -0.1324
       5    H3      19.689524   18.092517   19.598088 H          1 MOL1         0.0833
       6    C3      21.130766   18.544579   21.217009 C.3        1 MOL1        -0.1813
       7    H4      21.927766   19.280740   21.388673 H          1 MOL1         0.0753
       8    H5      21.627234   17.572033   21.100889 H          1 MOL1         0.0753
       9    C4      20.205866   18.487117   22.453625 C.3        1 MOL1        -0.1855
      10    H6      19.413478   17.745381   22.282490 H          1 MOL1         0.0755
      11    H7      20.786510   18.131265   23.315578 H          1 MOL1         0.0755
      12    C5      19.579215   19.859857   22.794448 C.3        1 MOL1        -0.1855
      13    H8      18.960797   20.208784   21.955899 H          1 MOL1         0.0755
      14    H9      20.379642   20.600456   22.925068 H          1 MOL1         0.0755
      15    C6      18.715955   19.817691   24.082014 C.3        1 MOL1        -0.1958
      16    H10     19.311222   19.448575   24.925897 H          1 MOL1         0.0753
      17    H11     18.394270   20.833376   24.340651 H          1 MOL1         0.0753
      18    C7      17.461056   18.958135   23.958717 C.2        1 MOL1         0.6174
      19    O1      17.463835   17.857754   24.474778 O.co2      1 MOL1        -0.6695
      20    O2      16.506699   19.420134   23.364701 O.co2      1 MOL1        -0.6695
@<TRIPOS>BOND
    1     1     2    1
    2     1     3    1
    3     1     4    2
    4     4     5    1
    5     4     6    1
    6     6     7    1
    7     6     8    1
    8     6     9    1
    9     9    10    1
   10     9    11    1
   11     9    12    1
   12    12    13    1
   13    12    14    1
   14    12    15    1
   15    15    16    1
   16    15    17    1
   17    15    18    1
   18    18    19    1
   19    18    20    2
@<TRIPOS>SUBSTRUCTURE
       1 MOL1            1 RESIDUE      1      MOL     
@<SCITEGIC>MOL_PROPERTY
VConf Rank
SciTegic.value.IntegerValue
37

@<SCITEGIC>MOL_PROPERTY
Conf_Id
SciTegic.value.IntegerValue
68

@<SCITEGIC>MOL_PROPERTY
Delta U+W
SciTegic.value.DoubleValue
0.492

@<SCITEGIC>MOL_PROPERTY
U+W
SciTegic.value.DoubleValue
-51.253

@<SCITEGIC>MOL_PROPERTY
Grad RMS
SciTegic.value.DoubleValue
0.000000

@<SCITEGIC>MOL_PROPERTY
U
SciTegic.value.DoubleValue
10.179

@<SCITEGIC>MOL_PROPERTY
W
SciTegic.value.DoubleValue
-61.432

@<SCITEGIC>MOL_PROPERTY
W(PB)
SciTegic.value.DoubleValue
-63.627

@<SCITEGIC>MOL_PROPERTY
W(SA)
SciTegic.value.DoubleValue
2.195

@<SCITEGIC>MOL_PROPERTY
Valence
SciTegic.value.DoubleValue
9.483

@<SCITEGIC>MOL_PROPERTY
Coulomb
SciTegic.value.DoubleValue
0.361

@<SCITEGIC>MOL_PROPERTY
VdW
SciTegic.value.DoubleValue
0.335

@<SCITEGIC>MOL_PROPERTY
VdW6
SciTegic.value.DoubleValue
-7.385

@<SCITEGIC>MOL_PROPERTY
VdW12
SciTegic.value.DoubleValue
7.720

@<SCITEGIC>MOL_PROPERTY
Bond
SciTegic.value.DoubleValue
0.125

@<SCITEGIC>MOL_PROPERTY
Angle
SciTegic.value.DoubleValue
2.487

@<SCITEGIC>MOL_PROPERTY
Pdih
SciTegic.value.DoubleValue
6.870

@<SCITEGIC>MOL_PROPERTY
Idih
SciTegic.value.DoubleValue
0.001

@<SCITEGIC>MOL_PROPERTY
Tether
SciTegic.value.DoubleValue
0.000

@<TRIPOS>MOLECULE
guest-s22_confgen4.mol2 : confsearch ligand conformer 38
          20          19           1
SMALL
USER_CHARGES
 
@<TRIPOS>ATOM
       1    C1      21.534050   17.427163   23.935882 C.2        1 MOL1        -0.2535
       2    H1      22.472951   17.978462   23.940978 H          1 MOL1         0.0845
       3    H2      21.589576   16.342219   24.006534 H          1 MOL1         0.0845
       4    C2      20.358088   18.053427   23.843137 C.2        1 MOL1        -0.1324
       5    H3      19.430084   17.482416   23.842546 H          1 MOL1         0.0833
       6    C3      20.203413   19.556343   23.747735 C.3        1 MOL1        -0.1813
       7    H4      21.121502   20.046354   24.099189 H          1 MOL1         0.0753
       8    H5      19.400118   19.892918   24.416638 H          1 MOL1         0.0753
       9    C4      19.912388   20.027075   22.304857 C.3        1 MOL1        -0.1855
      10    H6      19.941022   21.124889   22.277843 H          1 MOL1         0.0755
      11    H7      20.714033   19.676854   21.639794 H          1 MOL1         0.0755
      12    C5      18.540495   19.542057   21.779123 C.3        1 MOL1        -0.1855
      13    H8      17.753163   19.855727   22.477714 H          1 MOL1         0.0755
      14    H9      18.516523   18.444243   21.746764 H          1 MOL1         0.0755
      15    C6      18.213214   20.098724   20.369207 C.3        1 MOL1        -0.1958
      16    H10     17.188400   19.822036   20.094970 H          1 MOL1         0.0753
      17    H11     18.255408   21.194604   20.374743 H          1 MOL1         0.0753
      18    C7      19.136034   19.581640   19.269268 C.2        1 MOL1         0.6174
      19    O1      18.948905   18.457558   18.846742 O.co2      1 MOL1        -0.6695
      20    O2      20.004108   20.322081   18.850556 O.co2      1 MOL1        -0.6695
@<TRIPOS>BOND
    1     1     2    1
    2     1     3    1
    3     1     4    2
    4     4     5    1
    5     4     6    1
    6     6     7    1
    7     6     8    1
    8     6     9    1
    9     9    10    1
   10     9    11    1
   11     9    12    1
   12    12    13    1
   13    12    14    1
   14    12    15    1
   15    15    16    1
   16    15    17    1
   17    15    18    1
   18    18    19    1
   19    18    20    2
@<TRIPOS>SUBSTRUCTURE
       1 MOL1            1 RESIDUE      1      MOL     
@<SCITEGIC>MOL_PROPERTY
VConf Rank
SciTegic.value.IntegerValue
38

@<SCITEGIC>MOL_PROPERTY
Conf_Id
SciTegic.value.IntegerValue
87

@<SCITEGIC>MOL_PROPERTY
Delta U+W
SciTegic.value.DoubleValue
0.339

@<SCITEGIC>MOL_PROPERTY
U+W
SciTegic.value.DoubleValue
-51.407

@<SCITEGIC>MOL_PROPERTY
Grad RMS
SciTegic.value.DoubleValue
0.000000

@<SCITEGIC>MOL_PROPERTY
U
SciTegic.value.DoubleValue
10.461

@<SCITEGIC>MOL_PROPERTY
W
SciTegic.value.DoubleValue
-61.867

@<SCITEGIC>MOL_PROPERTY
W(PB)
SciTegic.value.DoubleValue
-64.045

@<SCITEGIC>MOL_PROPERTY
W(SA)
SciTegic.value.DoubleValue
2.178

@<SCITEGIC>MOL_PROPERTY
Valence
SciTegic.value.DoubleValue
9.555

@<SCITEGIC>MOL_PROPERTY
Coulomb
SciTegic.value.DoubleValue
0.483

@<SCITEGIC>MOL_PROPERTY
VdW
SciTegic.value.DoubleValue
0.423

@<SCITEGIC>MOL_PROPERTY
VdW6
SciTegic.value.DoubleValue
-7.223

@<SCITEGIC>MOL_PROPERTY
VdW12
SciTegic.value.DoubleValue
7.646

@<SCITEGIC>MOL_PROPERTY
Bond
SciTegic.value.DoubleValue
0.126

@<SCITEGIC>MOL_PROPERTY
Angle
SciTegic.value.DoubleValue
2.492

@<SCITEGIC>MOL_PROPERTY
Pdih
SciTegic.value.DoubleValue
6.936

@<SCITEGIC>MOL_PROPERTY
Idih
SciTegic.value.DoubleValue
0.001

@<SCITEGIC>MOL_PROPERTY
Tether
SciTegic.value.DoubleValue
0.000

@<TRIPOS>MOLECULE
guest-s22_confgen4.mol2 : confsearch ligand conformer 39
          20          19           1
SMALL
USER_CHARGES
 
@<TRIPOS>ATOM
       1    C1      19.000138   21.547403   22.855210 C.2        1 MOL1        -0.2535
       2    H1      18.141100   21.399631   23.507616 H          1 MOL1         0.0845
       3    H2      19.720887   22.312144   23.139306 H          1 MOL1         0.0845
       4    C2      19.166667   20.817665   21.749107 C.2        1 MOL1        -0.1324
       5    H3      20.028197   20.986532   21.104097 H          1 MOL1         0.0833
       6    C3      18.199566   19.748380   21.287641 C.3        1 MOL1        -0.1813
       7    H4      18.345390   19.538828   20.219578 H          1 MOL1         0.0753
       8    H5      17.177867   20.141476   21.377164 H          1 MOL1         0.0753
       9    C4      18.293033   18.434892   22.103227 C.3        1 MOL1        -0.1855
      10    H6      18.335158   18.661757   23.177328 H          1 MOL1         0.0755
      11    H7      17.359832   17.875963   21.950034 H          1 MOL1         0.0755
      12    C5      19.467865   17.504457   21.709321 C.3        1 MOL1        -0.1855
      13    H8      19.430470   17.291088   20.632235 H          1 MOL1         0.0755
      14    H9      19.329371   16.540553   22.218436 H          1 MOL1         0.0755
      15    C6      20.868687   18.055111   22.080454 C.3        1 MOL1        -0.1958
      16    H10     21.106417   18.938687   21.479740 H          1 MOL1         0.0753
      17    H11     20.890238   18.359536   23.133633 H          1 MOL1         0.0753
      18    C7      21.980766   17.036542   21.858132 C.2        1 MOL1         0.6174
      19    O1      22.505673   16.989349   20.763082 O.co2      1 MOL1        -0.6695
      20    O2      22.279031   16.302318   22.779455 O.co2      1 MOL1        -0.6695
@<TRIPOS>BOND
    1     1     2    1
    2     1     3    1
    3     1     4    2
    4     4     5    1
    5     4     6    1
    6     6     7    1
    7     6     8    1
    8     6     9    1
    9     9    10    1
   10     9    11    1
   11     9    12    1
   12    12    13    1
   13    12    14    1
   14    12    15    1
   15    15    16    1
   16    15    17    1
   17    15    18    1
   18    18    19    1
   19    18    20    2
@<TRIPOS>SUBSTRUCTURE
       1 MOL1            1 RESIDUE      1      MOL     
@<SCITEGIC>MOL_PROPERTY
VConf Rank
SciTegic.value.IntegerValue
39

@<SCITEGIC>MOL_PROPERTY
Conf_Id
SciTegic.value.IntegerValue
51

@<SCITEGIC>MOL_PROPERTY
Delta U+W
SciTegic.value.DoubleValue
1.709

@<SCITEGIC>MOL_PROPERTY
U+W
SciTegic.value.DoubleValue
-50.036

@<SCITEGIC>MOL_PROPERTY
Grad RMS
SciTegic.value.DoubleValue
0.000000

@<SCITEGIC>MOL_PROPERTY
U
SciTegic.value.DoubleValue
10.643

@<SCITEGIC>MOL_PROPERTY
W
SciTegic.value.DoubleValue
-60.679

@<SCITEGIC>MOL_PROPERTY
W(PB)
SciTegic.value.DoubleValue
-62.882

@<SCITEGIC>MOL_PROPERTY
W(SA)
SciTegic.value.DoubleValue
2.203

@<SCITEGIC>MOL_PROPERTY
Valence
SciTegic.value.DoubleValue
11.231

@<SCITEGIC>MOL_PROPERTY
Coulomb
SciTegic.value.DoubleValue
-1.077

@<SCITEGIC>MOL_PROPERTY
VdW
SciTegic.value.DoubleValue
0.489

@<SCITEGIC>MOL_PROPERTY
VdW6
SciTegic.value.DoubleValue
-7.546

@<SCITEGIC>MOL_PROPERTY
VdW12
SciTegic.value.DoubleValue
8.035

@<SCITEGIC>MOL_PROPERTY
Bond
SciTegic.value.DoubleValue
0.159

@<SCITEGIC>MOL_PROPERTY
Angle
SciTegic.value.DoubleValue
3.005

@<SCITEGIC>MOL_PROPERTY
Pdih
SciTegic.value.DoubleValue
8.065

@<SCITEGIC>MOL_PROPERTY
Idih
SciTegic.value.DoubleValue
0.002

@<SCITEGIC>MOL_PROPERTY
Tether
SciTegic.value.DoubleValue
0.000

@<TRIPOS>MOLECULE
guest-s22_confgen4.mol2 : confsearch ligand conformer 40
          20          19           1
SMALL
USER_CHARGES
 
@<TRIPOS>ATOM
       1    C1      21.344906   21.272057   22.542232 C.2        1 MOL1        -0.2535
       2    H1      20.761468   22.142071   22.245429 H          1 MOL1         0.0845
       3    H2      22.419940   21.307303   22.374663 H          1 MOL1         0.0845
       4    C2      20.765496   20.200061   23.088880 C.2        1 MOL1        -0.1324
       5    H3      21.367453   19.342624   23.387619 H          1 MOL1         0.0833
       6    C3      19.280734   20.087920   23.361837 C.3        1 MOL1        -0.1813
       7    H4      18.940112   21.024950   23.822662 H          1 MOL1         0.0753
       8    H5      19.088915   19.303341   24.105864 H          1 MOL1         0.0753
       9    C4      18.434737   19.830763   22.090094 C.3        1 MOL1        -0.1855
      10    H6      17.396446   20.111340   22.313621 H          1 MOL1         0.0755
      11    H7      18.759694   20.499276   21.281129 H          1 MOL1         0.0755
      12    C5      18.428518   18.361939   21.596512 C.3        1 MOL1        -0.1855
      13    H8      17.665182   18.265543   20.811964 H          1 MOL1         0.0755
      14    H9      18.116690   17.695086   22.412053 H          1 MOL1         0.0755
      15    C6      19.783809   17.877735   21.020315 C.3        1 MOL1        -0.1958
      16    H10     20.152192   18.586719   20.269344 H          1 MOL1         0.0753
      17    H11     20.538485   17.817198   21.810810 H          1 MOL1         0.0753
      18    C7      19.690379   16.502679   20.369074 C.2        1 MOL1         0.6174
      19    O1      19.861729   15.523441   21.068087 O.co2      1 MOL1        -0.6695
      20    O2      19.428358   16.445730   19.183753 O.co2      1 MOL1        -0.6695
@<TRIPOS>BOND
    1     1     2    1
    2     1     3    1
    3     1     4    2
    4     4     5    1
    5     4     6    1
    6     6     7    1
    7     6     8    1
    8     6     9    1
    9     9    10    1
   10     9    11    1
   11     9    12    1
   12    12    13    1
   13    12    14    1
   14    12    15    1
   15    15    16    1
   16    15    17    1
   17    15    18    1
   18    18    19    1
   19    18    20    2
@<TRIPOS>SUBSTRUCTURE
       1 MOL1            1 RESIDUE      1      MOL     
@<SCITEGIC>MOL_PROPERTY
VConf Rank
SciTegic.value.IntegerValue
40

@<SCITEGIC>MOL_PROPERTY
Conf_Id
SciTegic.value.IntegerValue
91

@<SCITEGIC>MOL_PROPERTY
Delta U+W
SciTegic.value.DoubleValue
1.604

@<SCITEGIC>MOL_PROPERTY
U+W
SciTegic.value.DoubleValue
-50.141

@<SCITEGIC>MOL_PROPERTY
Grad RMS
SciTegic.value.DoubleValue
0.000000

@<SCITEGIC>MOL_PROPERTY
U
SciTegic.value.DoubleValue
10.644

@<SCITEGIC>MOL_PROPERTY
W
SciTegic.value.DoubleValue
-60.786

@<SCITEGIC>MOL_PROPERTY
W(PB)
SciTegic.value.DoubleValue
-62.965

@<SCITEGIC>MOL_PROPERTY
W(SA)
SciTegic.value.DoubleValue
2.179

@<SCITEGIC>MOL_PROPERTY
Valence
SciTegic.value.DoubleValue
11.230

@<SCITEGIC>MOL_PROPERTY
Coulomb
SciTegic.value.DoubleValue
-1.075

@<SCITEGIC>MOL_PROPERTY
VdW
SciTegic.value.DoubleValue
0.489

@<SCITEGIC>MOL_PROPERTY
VdW6
SciTegic.value.DoubleValue
-7.547

@<SCITEGIC>MOL_PROPERTY
VdW12
SciTegic.value.DoubleValue
8.036

@<SCITEGIC>MOL_PROPERTY
Bond
SciTegic.value.DoubleValue
0.159

@<SCITEGIC>MOL_PROPERTY
Angle
SciTegic.value.DoubleValue
3.006

@<SCITEGIC>MOL_PROPERTY
Pdih
SciTegic.value.DoubleValue
8.064

@<SCITEGIC>MOL_PROPERTY
Idih
SciTegic.value.DoubleValue
0.002

@<SCITEGIC>MOL_PROPERTY
Tether
SciTegic.value.DoubleValue
0.000

@<TRIPOS>MOLECULE
guest-s22_confgen4.mol2 : confsearch ligand conformer 41
          20          19           1
SMALL
USER_CHARGES
 
@<TRIPOS>ATOM
       1    C1      22.677968   20.298485   23.809344 C.2        1 MOL1        -0.2535
       2    H1      22.475646   19.533792   24.557609 H          1 MOL1         0.0845
       3    H2      23.270702   21.157676   24.118754 H          1 MOL1         0.0845
       4    C2      22.216856   20.191868   22.560481 C.2        1 MOL1        -0.1324
       5    H3      22.430101   20.968975   21.826798 H          1 MOL1         0.0833
       6    C3      21.389479   19.029426   22.058667 C.3        1 MOL1        -0.1813
       7    H4      21.444630   18.190220   22.765418 H          1 MOL1         0.0753
       8    H5      21.801977   18.668500   21.106972 H          1 MOL1         0.0753
       9    C4      19.914982   19.439136   21.861516 C.3        1 MOL1        -0.1855
      10    H6      19.508504   19.803255   22.815234 H          1 MOL1         0.0755
      11    H7      19.859975   20.275465   21.151102 H          1 MOL1         0.0755
      12    C5      19.055837   18.263778   21.346232 C.3        1 MOL1        -0.1855
      13    H8      19.109964   17.427057   22.056522 H          1 MOL1         0.0755
      14    H9      19.462589   17.898367   20.393051 H          1 MOL1         0.0755
      15    C6      17.572793   18.676076   21.148777 C.3        1 MOL1        -0.1958
      16    H10     17.158529   19.035832   22.097921 H          1 MOL1         0.0753
      17    H11     17.510662   19.506737   20.436001 H          1 MOL1         0.0753
      18    C7      16.649870   17.567963   20.639253 C.2        1 MOL1         0.6174
      19    O1      15.480991   17.853556   20.471037 O.co2      1 MOL1        -0.6695
      20    O2      17.101019   16.459776   20.422379 O.co2      1 MOL1        -0.6695
@<TRIPOS>BOND
    1     1     2    1
    2     1     3    1
    3     1     4    2
    4     4     5    1
    5     4     6    1
    6     6     7    1
    7     6     8    1
    8     6     9    1
    9     9    10    1
   10     9    11    1
   11     9    12    1
   12    12    13    1
   13    12    14    1
   14    12    15    1
   15    15    16    1
   16    15    17    1
   17    15    18    1
   18    18    19    1
   19    18    20    2
@<TRIPOS>SUBSTRUCTURE
       1 MOL1            1 RESIDUE      1      MOL     
@<SCITEGIC>MOL_PROPERTY
VConf Rank
SciTegic.value.IntegerValue
41

@<SCITEGIC>MOL_PROPERTY
Conf_Id
SciTegic.value.IntegerValue
33

@<SCITEGIC>MOL_PROPERTY
Delta U+W
SciTegic.value.DoubleValue
0.000

@<SCITEGIC>MOL_PROPERTY
U+W
SciTegic.value.DoubleValue
-51.745

@<SCITEGIC>MOL_PROPERTY
Grad RMS
SciTegic.value.DoubleValue
0.000000

@<SCITEGIC>MOL_PROPERTY
U
SciTegic.value.DoubleValue
7.593

@<SCITEGIC>MOL_PROPERTY
W
SciTegic.value.DoubleValue
-59.338

@<SCITEGIC>MOL_PROPERTY
W(PB)
SciTegic.value.DoubleValue
-61.574

@<SCITEGIC>MOL_PROPERTY
W(SA)
SciTegic.value.DoubleValue
2.236

@<SCITEGIC>MOL_PROPERTY
Valence
SciTegic.value.DoubleValue
9.570

@<SCITEGIC>MOL_PROPERTY
Coulomb
SciTegic.value.DoubleValue
-3.091

@<SCITEGIC>MOL_PROPERTY
VdW
SciTegic.value.DoubleValue
1.114

@<SCITEGIC>MOL_PROPERTY
VdW6
SciTegic.value.DoubleValue
-6.064

@<SCITEGIC>MOL_PROPERTY
VdW12
SciTegic.value.DoubleValue
7.178

@<SCITEGIC>MOL_PROPERTY
Bond
SciTegic.value.DoubleValue
0.117

@<SCITEGIC>MOL_PROPERTY
Angle
SciTegic.value.DoubleValue
2.692

@<SCITEGIC>MOL_PROPERTY
Pdih
SciTegic.value.DoubleValue
6.761

@<SCITEGIC>MOL_PROPERTY
Idih
SciTegic.value.DoubleValue
0.000

@<SCITEGIC>MOL_PROPERTY
Tether
SciTegic.value.DoubleValue
0.000

@<TRIPOS>MOLECULE
guest-s22_confgen4.mol2 : confsearch ligand conformer 42
          20          19           1
SMALL
USER_CHARGES
 
@<TRIPOS>ATOM
       1    C1      22.854045   18.371719   20.254838 C.2        1 MOL1        -0.2535
       2    H1      23.308719   19.179521   20.826069 H          1 MOL1         0.0845
       3    H2      23.436987   17.943936   19.440934 H          1 MOL1         0.0845
       4    C2      21.628496   17.921923   20.536596 C.2        1 MOL1        -0.1324
       5    H3      21.191191   17.112865   19.951942 H          1 MOL1         0.0833
       6    C3      20.761126   18.465254   21.650231 C.3        1 MOL1        -0.1813
       7    H4      21.362320   19.079123   22.334576 H          1 MOL1         0.0753
       8    H5      20.365411   17.628213   22.239147 H          1 MOL1         0.0753
       9    C4      19.599039   19.312633   21.085153 C.3        1 MOL1        -0.1855
      10    H6      20.015028   20.091746   20.431491 H          1 MOL1         0.0755
      11    H7      18.958464   18.684992   20.450548 H          1 MOL1         0.0755
      12    C5      18.741925   19.992500   22.179373 C.3        1 MOL1        -0.1855
      13    H8      18.016253   20.659981   21.694231 H          1 MOL1         0.0755
      14    H9      19.379061   20.631084   22.806797 H          1 MOL1         0.0755
      15    C6      17.972522   18.988030   23.076052 C.3        1 MOL1        -0.1958
      16    H10     17.365163   18.316559   22.457486 H          1 MOL1         0.0753
      17    H11     18.670844   18.364168   23.645161 H          1 MOL1         0.0753
      18    C7      17.048310   19.677103   24.073539 C.2        1 MOL1         0.6174
      19    O1      17.501304   19.983102   25.158835 O.co2      1 MOL1        -0.6695
      20    O2      15.905157   19.907597   23.731766 O.co2      1 MOL1        -0.6695
@<TRIPOS>BOND
    1     1     2    1
    2     1     3    1
    3     1     4    2
    4     4     5    1
    5     4     6    1
    6     6     7    1
    7     6     8    1
    8     6     9    1
    9     9    10    1
   10     9    11    1
   11     9    12    1
   12    12    13    1
   13    12    14    1
   14    12    15    1
   15    15    16    1
   16    15    17    1
   17    15    18    1
   18    18    19    1
   19    18    20    2
@<TRIPOS>SUBSTRUCTURE
       1 MOL1            1 RESIDUE      1      MOL     
@<SCITEGIC>MOL_PROPERTY
VConf Rank
SciTegic.value.IntegerValue
42

@<SCITEGIC>MOL_PROPERTY
Conf_Id
SciTegic.value.IntegerValue
37

@<SCITEGIC>MOL_PROPERTY
Delta U+W
SciTegic.value.DoubleValue
-0.384

@<SCITEGIC>MOL_PROPERTY
U+W
SciTegic.value.DoubleValue
-52.130

@<SCITEGIC>MOL_PROPERTY
Grad RMS
SciTegic.value.DoubleValue
0.000000

@<SCITEGIC>MOL_PROPERTY
U
SciTegic.value.DoubleValue
7.491

@<SCITEGIC>MOL_PROPERTY
W
SciTegic.value.DoubleValue
-59.621

@<SCITEGIC>MOL_PROPERTY
W(PB)
SciTegic.value.DoubleValue
-61.853

@<SCITEGIC>MOL_PROPERTY
W(SA)
SciTegic.value.DoubleValue
2.232

@<SCITEGIC>MOL_PROPERTY
Valence
SciTegic.value.DoubleValue
9.604

@<SCITEGIC>MOL_PROPERTY
Coulomb
SciTegic.value.DoubleValue
-2.799

@<SCITEGIC>MOL_PROPERTY
VdW
SciTegic.value.DoubleValue
0.686

@<SCITEGIC>MOL_PROPERTY
VdW6
SciTegic.value.DoubleValue
-6.435

@<SCITEGIC>MOL_PROPERTY
VdW12
SciTegic.value.DoubleValue
7.121

@<SCITEGIC>MOL_PROPERTY
Bond
SciTegic.value.DoubleValue
0.124

@<SCITEGIC>MOL_PROPERTY
Angle
SciTegic.value.DoubleValue
2.493

@<SCITEGIC>MOL_PROPERTY
Pdih
SciTegic.value.DoubleValue
6.986

@<SCITEGIC>MOL_PROPERTY
Idih
SciTegic.value.DoubleValue
0.001

@<SCITEGIC>MOL_PROPERTY
Tether
SciTegic.value.DoubleValue
0.000

@<TRIPOS>MOLECULE
guest-s22_confgen4.mol2 : confsearch ligand conformer 43
          20          19           1
SMALL
USER_CHARGES
 
@<TRIPOS>ATOM
       1    C1      19.998384   16.311195   23.866863 C.2        1 MOL1        -0.2535
       2    H1      20.084371   15.437556   24.510720 H          1 MOL1         0.0845
       3    H2      19.060730   16.434165   23.329061 H          1 MOL1         0.0845
       4    C2      21.009425   17.180341   23.755980 C.2        1 MOL1        -0.1324
       5    H3      21.924774   17.003190   24.320232 H          1 MOL1         0.0833
       6    C3      21.037390   18.437368   22.902682 C.3        1 MOL1        -0.1813
       7    H4      21.889531   18.376438   22.212554 H          1 MOL1         0.0753
       8    H5      21.242766   19.299544   23.551225 H          1 MOL1         0.0753
       9    C4      19.747556   18.707580   22.093178 C.3        1 MOL1        -0.1855
      10    H6      19.547710   17.857340   21.426664 H          1 MOL1         0.0755
      11    H7      18.893921   18.790436   22.779858 H          1 MOL1         0.0755
      12    C5      19.858018   20.000141   21.255260 C.3        1 MOL1        -0.1855
      13    H8      20.710511   19.923575   20.566057 H          1 MOL1         0.0755
      14    H9      20.058064   20.854755   21.916488 H          1 MOL1         0.0755
      15    C6      18.567639   20.272939   20.443725 C.3        1 MOL1        -0.1958
      16    H10     18.360685   19.434326   19.768077 H          1 MOL1         0.0753
      17    H11     17.708200   20.365436   21.118566 H          1 MOL1         0.0753
      18    C7      18.652096   21.544848   19.607601 C.2        1 MOL1         0.6174
      19    O1      19.089276   21.460006   18.476972 O.co2      1 MOL1        -0.6695
      20    O2      18.297013   22.589963   20.115830 O.co2      1 MOL1        -0.6695
@<TRIPOS>BOND
    1     1     2    1
    2     1     3    1
    3     1     4    2
    4     4     5    1
    5     4     6    1
    6     6     7    1
    7     6     8    1
    8     6     9    1
    9     9    10    1
   10     9    11    1
   11     9    12    1
   12    12    13    1
   13    12    14    1
   14    12    15    1
   15    15    16    1
   16    15    17    1
   17    15    18    1
   18    18    19    1
   19    18    20    2
@<TRIPOS>SUBSTRUCTURE
       1 MOL1            1 RESIDUE      1      MOL     
@<SCITEGIC>MOL_PROPERTY
VConf Rank
SciTegic.value.IntegerValue
43

@<SCITEGIC>MOL_PROPERTY
Conf_Id
SciTegic.value.IntegerValue
44

@<SCITEGIC>MOL_PROPERTY
Delta U+W
SciTegic.value.DoubleValue
-1.440

@<SCITEGIC>MOL_PROPERTY
U+W
SciTegic.value.DoubleValue
-53.185

@<SCITEGIC>MOL_PROPERTY
Grad RMS
SciTegic.value.DoubleValue
0.000000

@<SCITEGIC>MOL_PROPERTY
U
SciTegic.value.DoubleValue
6.572

@<SCITEGIC>MOL_PROPERTY
W
SciTegic.value.DoubleValue
-59.757

@<SCITEGIC>MOL_PROPERTY
W(PB)
SciTegic.value.DoubleValue
-62.007

@<SCITEGIC>MOL_PROPERTY
W(SA)
SciTegic.value.DoubleValue
2.249

@<SCITEGIC>MOL_PROPERTY
Valence
SciTegic.value.DoubleValue
7.989

@<SCITEGIC>MOL_PROPERTY
Coulomb
SciTegic.value.DoubleValue
-2.697

@<SCITEGIC>MOL_PROPERTY
VdW
SciTegic.value.DoubleValue
1.281

@<SCITEGIC>MOL_PROPERTY
VdW6
SciTegic.value.DoubleValue
-6.467

@<SCITEGIC>MOL_PROPERTY
VdW12
SciTegic.value.DoubleValue
7.748

@<SCITEGIC>MOL_PROPERTY
Bond
SciTegic.value.DoubleValue
0.136

@<SCITEGIC>MOL_PROPERTY
Angle
SciTegic.value.DoubleValue
2.854

@<SCITEGIC>MOL_PROPERTY
Pdih
SciTegic.value.DoubleValue
4.997

@<SCITEGIC>MOL_PROPERTY
Idih
SciTegic.value.DoubleValue
0.001

@<SCITEGIC>MOL_PROPERTY
Tether
SciTegic.value.DoubleValue
0.000

@<TRIPOS>MOLECULE
guest-s22_confgen4.mol2 : confsearch ligand conformer 44
          20          19           1
SMALL
USER_CHARGES
 
@<TRIPOS>ATOM
       1    C1      19.562524   20.314442   25.145365 C.2        1 MOL1        -0.2535
       2    H1      18.887944   21.004795   24.641448 H          1 MOL1         0.0845
       3    H2      19.888264   20.576442   26.150603 H          1 MOL1         0.0845
       4    C2      19.978672   19.190505   24.556041 C.2        1 MOL1        -0.1324
       5    H3      20.654466   18.513232   25.077808 H          1 MOL1         0.0833
       6    C3      19.568449   18.760412   23.165130 C.3        1 MOL1        -0.1813
       7    H4      18.698492   19.343160   22.836222 H          1 MOL1         0.0753
       8    H5      19.256529   17.707662   23.183980 H          1 MOL1         0.0753
       9    C4      20.731539   18.938556   22.163408 C.3        1 MOL1        -0.1855
      10    H6      21.006559   20.000675   22.104590 H          1 MOL1         0.0755
      11    H7      21.615269   18.410519   22.547184 H          1 MOL1         0.0755
      12    C5      20.414150   18.403100   20.746766 C.3        1 MOL1        -0.1855
      13    H8      20.148318   17.338413   20.802864 H          1 MOL1         0.0755
      14    H9      21.325286   18.463238   20.135442 H          1 MOL1         0.0755
      15    C6      19.281498   19.182718   20.029582 C.3        1 MOL1        -0.1958
      16    H10     18.333022   19.067797   20.566134 H          1 MOL1         0.0753
      17    H11     19.515163   20.253821   20.006414 H          1 MOL1         0.0753
      18    C7      19.061710   18.715612   18.595206 C.2        1 MOL1         0.6174
      19    O1      19.693730   19.259934   17.711465 O.co2      1 MOL1        -0.6695
      20    O2      18.279198   17.806315   18.401382 O.co2      1 MOL1        -0.6695
@<TRIPOS>BOND
    1     1     2    1
    2     1     3    1
    3     1     4    2
    4     4     5    1
    5     4     6    1
    6     6     7    1
    7     6     8    1
    8     6     9    1
    9     9    10    1
   10     9    11    1
   11     9    12    1
   12    12    13    1
   13    12    14    1
   14    12    15    1
   15    15    16    1
   16    15    17    1
   17    15    18    1
   18    18    19    1
   19    18    20    2
@<TRIPOS>SUBSTRUCTURE
       1 MOL1            1 RESIDUE      1      MOL     
@<SCITEGIC>MOL_PROPERTY
VConf Rank
SciTegic.value.IntegerValue
44

@<SCITEGIC>MOL_PROPERTY
Conf_Id
SciTegic.value.IntegerValue
38

@<SCITEGIC>MOL_PROPERTY
Delta U+W
SciTegic.value.DoubleValue
-0.381

@<SCITEGIC>MOL_PROPERTY
U+W
SciTegic.value.DoubleValue
-52.126

@<SCITEGIC>MOL_PROPERTY
Grad RMS
SciTegic.value.DoubleValue
0.000000

@<SCITEGIC>MOL_PROPERTY
U
SciTegic.value.DoubleValue
7.601

@<SCITEGIC>MOL_PROPERTY
W
SciTegic.value.DoubleValue
-59.727

@<SCITEGIC>MOL_PROPERTY
W(PB)
SciTegic.value.DoubleValue
-61.964

@<SCITEGIC>MOL_PROPERTY
W(SA)
SciTegic.value.DoubleValue
2.236

@<SCITEGIC>MOL_PROPERTY
Valence
SciTegic.value.DoubleValue
9.602

@<SCITEGIC>MOL_PROPERTY
Coulomb
SciTegic.value.DoubleValue
-2.686

@<SCITEGIC>MOL_PROPERTY
VdW
SciTegic.value.DoubleValue
0.685

@<SCITEGIC>MOL_PROPERTY
VdW6
SciTegic.value.DoubleValue
-6.453

@<SCITEGIC>MOL_PROPERTY
VdW12
SciTegic.value.DoubleValue
7.139

@<SCITEGIC>MOL_PROPERTY
Bond
SciTegic.value.DoubleValue
0.125

@<SCITEGIC>MOL_PROPERTY
Angle
SciTegic.value.DoubleValue
2.485

@<SCITEGIC>MOL_PROPERTY
Pdih
SciTegic.value.DoubleValue
6.991

@<SCITEGIC>MOL_PROPERTY
Idih
SciTegic.value.DoubleValue
0.001

@<SCITEGIC>MOL_PROPERTY
Tether
SciTegic.value.DoubleValue
0.000

@<TRIPOS>MOLECULE
guest-s22_confgen4.mol2 : confsearch ligand conformer 45
          20          19           1
SMALL
USER_CHARGES
 
@<TRIPOS>ATOM
       1    C1      22.070672   20.589623   19.732418 C.2        1 MOL1        -0.2535
       2    H1      22.008097   19.725659   19.072700 H          1 MOL1         0.0845
       3    H2      22.431545   21.522699   19.302991 H          1 MOL1         0.0845
       4    C2      21.717377   20.512773   21.018086 C.2        1 MOL1        -0.1324
       5    H3      21.786691   21.389751   21.661331 H          1 MOL1         0.0833
       6    C3      21.208808   19.253456   21.683763 C.3        1 MOL1        -0.1813
       7    H4      21.749285   19.092107   22.626088 H          1 MOL1         0.0753
       8    H5      21.411245   18.379716   21.049460 H          1 MOL1         0.0753
       9    C4      19.694462   19.344851   21.965574 C.3        1 MOL1        -0.1855
      10    H6      19.494994   20.218106   22.602026 H          1 MOL1         0.0755
      11    H7      19.157695   19.511047   21.021365 H          1 MOL1         0.0755
      12    C5      19.158821   18.066346   22.648834 C.3        1 MOL1        -0.1855
      13    H8      19.686374   17.902951   23.598932 H          1 MOL1         0.0755
      14    H9      19.376458   17.197532   22.012927 H          1 MOL1         0.0755
      15    C6      17.631910   18.126530   22.913062 C.3        1 MOL1        -0.1958
      16    H10     17.092613   18.317168   21.977288 H          1 MOL1         0.0753
      17    H11     17.286045   17.155580   23.286706 H          1 MOL1         0.0753
      18    C7      17.220788   19.181770   23.935956 C.2        1 MOL1         0.6174
      19    O1      16.697165   20.201644   23.532660 O.co2      1 MOL1        -0.6695
      20    O2      17.425666   18.949923   25.111273 O.co2      1 MOL1        -0.6695
@<TRIPOS>BOND
    1     1     2    1
    2     1     3    1
    3     1     4    2
    4     4     5    1
    5     4     6    1
    6     6     7    1
    7     6     8    1
    8     6     9    1
    9     9    10    1
   10     9    11    1
   11     9    12    1
   12    12    13    1
   13    12    14    1
   14    12    15    1
   15    15    16    1
   16    15    17    1
   17    15    18    1
   18    18    19    1
   19    18    20    2
@<TRIPOS>SUBSTRUCTURE
       1 MOL1            1 RESIDUE      1      MOL     
@<SCITEGIC>MOL_PROPERTY
VConf Rank
SciTegic.value.IntegerValue
45

@<SCITEGIC>MOL_PROPERTY
Conf_Id
SciTegic.value.IntegerValue
58

@<SCITEGIC>MOL_PROPERTY
Delta U+W
SciTegic.value.DoubleValue
0.019

@<SCITEGIC>MOL_PROPERTY
U+W
SciTegic.value.DoubleValue
-51.727

@<SCITEGIC>MOL_PROPERTY
Grad RMS
SciTegic.value.DoubleValue
0.000000

@<SCITEGIC>MOL_PROPERTY
U
SciTegic.value.DoubleValue
8.963

@<SCITEGIC>MOL_PROPERTY
W
SciTegic.value.DoubleValue
-60.690

@<SCITEGIC>MOL_PROPERTY
W(PB)
SciTegic.value.DoubleValue
-62.934

@<SCITEGIC>MOL_PROPERTY
W(SA)
SciTegic.value.DoubleValue
2.244

@<SCITEGIC>MOL_PROPERTY
Valence
SciTegic.value.DoubleValue
9.327

@<SCITEGIC>MOL_PROPERTY
Coulomb
SciTegic.value.DoubleValue
-0.780

@<SCITEGIC>MOL_PROPERTY
VdW
SciTegic.value.DoubleValue
0.417

@<SCITEGIC>MOL_PROPERTY
VdW6
SciTegic.value.DoubleValue
-6.635

@<SCITEGIC>MOL_PROPERTY
VdW12
SciTegic.value.DoubleValue
7.052

@<SCITEGIC>MOL_PROPERTY
Bond
SciTegic.value.DoubleValue
0.105

@<SCITEGIC>MOL_PROPERTY
Angle
SciTegic.value.DoubleValue
2.399

@<SCITEGIC>MOL_PROPERTY
Pdih
SciTegic.value.DoubleValue
6.822

@<SCITEGIC>MOL_PROPERTY
Idih
SciTegic.value.DoubleValue
0.000

@<SCITEGIC>MOL_PROPERTY
Tether
SciTegic.value.DoubleValue
0.000

@<TRIPOS>MOLECULE
guest-s22_confgen4.mol2 : confsearch ligand conformer 46
          20          19           1
SMALL
USER_CHARGES
 
@<TRIPOS>ATOM
       1    C1      22.161987   16.856113   20.942127 C.2        1 MOL1        -0.2535
       2    H1      21.509532   16.011103   21.156223 H          1 MOL1         0.0845
       3    H2      23.231732   16.661569   20.886763 H          1 MOL1         0.0845
       4    C2      21.673592   18.085227   20.756614 C.2        1 MOL1        -0.1324
       5    H3      22.344088   18.917691   20.544251 H          1 MOL1         0.0833
       6    C3      20.202427   18.431068   20.817541 C.3        1 MOL1        -0.1813
       7    H4      19.594915   17.516678   20.778030 H          1 MOL1         0.0753
       8    H5      19.929254   19.030380   19.938720 H          1 MOL1         0.0753
       9    C4      19.867435   19.216161   22.103007 C.3        1 MOL1        -0.1855
      10    H6      20.146442   18.615504   22.979727 H          1 MOL1         0.0755
      11    H7      20.474642   20.131278   22.138945 H          1 MOL1         0.0755
      12    C5      18.367491   19.580348   22.179577 C.3        1 MOL1        -0.1855
      13    H8      17.768463   18.661105   22.127223 H          1 MOL1         0.0755
      14    H9      18.087498   20.190287   21.309362 H          1 MOL1         0.0755
      15    C6      18.004881   20.343764   23.479809 C.3        1 MOL1        -0.1958
      16    H10     16.917609   20.471658   23.538645 H          1 MOL1         0.0753
      17    H11     18.303949   19.759308   24.358347 H          1 MOL1         0.0753
      18    C7      18.633507   21.730702   23.580307 C.2        1 MOL1         0.6174
      19    O1      18.156657   22.625115   22.909686 O.co2      1 MOL1        -0.6695
      20    O2      19.574986   21.883138   24.333534 O.co2      1 MOL1        -0.6695
@<TRIPOS>BOND
    1     1     2    1
    2     1     3    1
    3     1     4    2
    4     4     5    1
    5     4     6    1
    6     6     7    1
    7     6     8    1
    8     6     9    1
    9     9    10    1
   10     9    11    1
   11     9    12    1
   12    12    13    1
   13    12    14    1
   14    12    15    1
   15    15    16    1
   16    15    17    1
   17    15    18    1
   18    18    19    1
   19    18    20    2
@<TRIPOS>SUBSTRUCTURE
       1 MOL1            1 RESIDUE      1      MOL     
@<SCITEGIC>MOL_PROPERTY
VConf Rank
SciTegic.value.IntegerValue
46

@<SCITEGIC>MOL_PROPERTY
Conf_Id
SciTegic.value.IntegerValue
54

@<SCITEGIC>MOL_PROPERTY
Delta U+W
SciTegic.value.DoubleValue
-0.048

@<SCITEGIC>MOL_PROPERTY
U+W
SciTegic.value.DoubleValue
-51.793

@<SCITEGIC>MOL_PROPERTY
Grad RMS
SciTegic.value.DoubleValue
0.000000

@<SCITEGIC>MOL_PROPERTY
U
SciTegic.value.DoubleValue
8.964

@<SCITEGIC>MOL_PROPERTY
W
SciTegic.value.DoubleValue
-60.756

@<SCITEGIC>MOL_PROPERTY
W(PB)
SciTegic.value.DoubleValue
-63.007

@<SCITEGIC>MOL_PROPERTY
W(SA)
SciTegic.value.DoubleValue
2.251

@<SCITEGIC>MOL_PROPERTY
Valence
SciTegic.value.DoubleValue
9.327

@<SCITEGIC>MOL_PROPERTY
Coulomb
SciTegic.value.DoubleValue
-0.780

@<SCITEGIC>MOL_PROPERTY
VdW
SciTegic.value.DoubleValue
0.417

@<SCITEGIC>MOL_PROPERTY
VdW6
SciTegic.value.DoubleValue
-6.635

@<SCITEGIC>MOL_PROPERTY
VdW12
SciTegic.value.DoubleValue
7.052

@<SCITEGIC>MOL_PROPERTY
Bond
SciTegic.value.DoubleValue
0.105

@<SCITEGIC>MOL_PROPERTY
Angle
SciTegic.value.DoubleValue
2.399

@<SCITEGIC>MOL_PROPERTY
Pdih
SciTegic.value.DoubleValue
6.822

@<SCITEGIC>MOL_PROPERTY
Idih
SciTegic.value.DoubleValue
0.000

@<SCITEGIC>MOL_PROPERTY
Tether
SciTegic.value.DoubleValue
0.000

@<TRIPOS>MOLECULE
guest-s22_confgen4.mol2 : confsearch ligand conformer 47
          20          19           1
SMALL
USER_CHARGES
 
@<TRIPOS>ATOM
       1    C1      18.547306   19.879242   25.045470 C.2        1 MOL1        -0.2535
       2    H1      18.659405   19.436815   26.033843 H          1 MOL1         0.0845
       3    H2      18.503833   20.965477   24.984544 H          1 MOL1         0.0845
       4    C2      18.469543   19.115865   23.952365 C.2        1 MOL1        -0.1324
       5    H3      18.511641   18.030298   24.036177 H          1 MOL1         0.0833
       6    C3      18.306384   19.659542   22.548925 C.3        1 MOL1        -0.1813
       7    H4      17.915235   20.685028   22.592657 H          1 MOL1         0.0753
       8    H5      17.558697   19.068754   22.003050 H          1 MOL1         0.0753
       9    C4      19.636967   19.670879   21.763036 C.3        1 MOL1        -0.1855
      10    H6      19.479344   20.199954   20.813185 H          1 MOL1         0.0755
      11    H7      20.386434   20.248128   22.321803 H          1 MOL1         0.0755
      12    C5      20.177809   18.250142   21.474767 C.3        1 MOL1        -0.1855
      13    H8      19.422715   17.667842   20.928693 H          1 MOL1         0.0755
      14    H9      20.356296   17.726414   22.423106 H          1 MOL1         0.0755
      15    C6      21.498472   18.269215   20.661954 C.3        1 MOL1        -0.1958
      16    H10     22.252360   18.875434   21.178659 H          1 MOL1         0.0753
      17    H11     21.901353   17.251858   20.593927 H          1 MOL1         0.0753
      18    C7      21.343374   18.794227   19.237474 C.2        1 MOL1         0.6174
      19    O1      21.742287   19.915274   18.990144 O.co2      1 MOL1        -0.6695
      20    O2      20.836745   18.062574   18.409750 O.co2      1 MOL1        -0.6695
@<TRIPOS>BOND
    1     1     2    1
    2     1     3    1
    3     1     4    2
    4     4     5    1
    5     4     6    1
    6     6     7    1
    7     6     8    1
    8     6     9    1
    9     9    10    1
   10     9    11    1
   11     9    12    1
   12    12    13    1
   13    12    14    1
   14    12    15    1
   15    15    16    1
   16    15    17    1
   17    15    18    1
   18    18    19    1
   19    18    20    2
@<TRIPOS>SUBSTRUCTURE
       1 MOL1            1 RESIDUE      1      MOL     
@<SCITEGIC>MOL_PROPERTY
VConf Rank
SciTegic.value.IntegerValue
47

@<SCITEGIC>MOL_PROPERTY
Conf_Id
SciTegic.value.IntegerValue
27

@<SCITEGIC>MOL_PROPERTY
Delta U+W
SciTegic.value.DoubleValue
0.478

@<SCITEGIC>MOL_PROPERTY
U+W
SciTegic.value.DoubleValue
-51.267

@<SCITEGIC>MOL_PROPERTY
Grad RMS
SciTegic.value.DoubleValue
0.000000

@<SCITEGIC>MOL_PROPERTY
U
SciTegic.value.DoubleValue
9.192

@<SCITEGIC>MOL_PROPERTY
W
SciTegic.value.DoubleValue
-60.459

@<SCITEGIC>MOL_PROPERTY
W(PB)
SciTegic.value.DoubleValue
-62.649

@<SCITEGIC>MOL_PROPERTY
W(SA)
SciTegic.value.DoubleValue
2.190

@<SCITEGIC>MOL_PROPERTY
Valence
SciTegic.value.DoubleValue
9.572

@<SCITEGIC>MOL_PROPERTY
Coulomb
SciTegic.value.DoubleValue
-0.884

@<SCITEGIC>MOL_PROPERTY
VdW
SciTegic.value.DoubleValue
0.504

@<SCITEGIC>MOL_PROPERTY
VdW6
SciTegic.value.DoubleValue
-7.168

@<SCITEGIC>MOL_PROPERTY
VdW12
SciTegic.value.DoubleValue
7.672

@<SCITEGIC>MOL_PROPERTY
Bond
SciTegic.value.DoubleValue
0.127

@<SCITEGIC>MOL_PROPERTY
Angle
SciTegic.value.DoubleValue
2.504

@<SCITEGIC>MOL_PROPERTY
Pdih
SciTegic.value.DoubleValue
6.941

@<SCITEGIC>MOL_PROPERTY
Idih
SciTegic.value.DoubleValue
0.001

@<SCITEGIC>MOL_PROPERTY
Tether
SciTegic.value.DoubleValue
0.000

@<TRIPOS>MOLECULE
guest-s22_confgen4.mol2 : confsearch ligand conformer 48
          20          19           1
SMALL
USER_CHARGES
 
@<TRIPOS>ATOM
       1    C1      19.873425   15.516635   22.527397 C.2        1 MOL1        -0.2535
       2    H1      19.445479   15.349880   23.514596 H          1 MOL1         0.0845
       3    H2      20.645002   14.825511   22.192412 H          1 MOL1         0.0845
       4    C2      19.472560   16.530268   21.755688 C.2        1 MOL1        -0.1324
       5    H3      19.912005   16.677178   20.769484 H          1 MOL1         0.0833
       6    C3      18.402477   17.525207   22.151685 C.3        1 MOL1        -0.1813
       7    H4      17.788095   17.106074   22.960028 H          1 MOL1         0.0753
       8    H5      17.722168   17.698897   21.307248 H          1 MOL1         0.0753
       9    C4      18.996818   18.869862   22.627839 C.3        1 MOL1        -0.1855
      10    H6      18.184690   19.495188   23.023178 H          1 MOL1         0.0755
      11    H7      19.688340   18.687974   23.462117 H          1 MOL1         0.0755
      12    C5      19.725628   19.637545   21.501099 C.3        1 MOL1        -0.1855
      13    H8      19.040214   19.795836   20.656997 H          1 MOL1         0.0755
      14    H9      20.565780   19.039628   21.122520 H          1 MOL1         0.0755
      15    C6      20.259660   21.006466   21.989899 C.3        1 MOL1        -0.1958
      16    H10     19.433241   21.626598   22.357327 H          1 MOL1         0.0753
      17    H11     20.955394   20.864570   22.825620 H          1 MOL1         0.0753
      18    C7      20.984459   21.783397   20.896697 C.2        1 MOL1         0.6174
      19    O1      22.180965   21.613729   20.769232 O.co2      1 MOL1        -0.6695
      20    O2      20.330268   22.524542   20.189987 O.co2      1 MOL1        -0.6695
@<TRIPOS>BOND
    1     1     2    1
    2     1     3    1
    3     1     4    2
    4     4     5    1
    5     4     6    1
    6     6     7    1
    7     6     8    1
    8     6     9    1
    9     9    10    1
   10     9    11    1
   11     9    12    1
   12    12    13    1
   13    12    14    1
   14    12    15    1
   15    15    16    1
   16    15    17    1
   17    15    18    1
   18    18    19    1
   19    18    20    2
@<TRIPOS>SUBSTRUCTURE
       1 MOL1            1 RESIDUE      1      MOL     
@<SCITEGIC>MOL_PROPERTY
VConf Rank
SciTegic.value.IntegerValue
48

@<SCITEGIC>MOL_PROPERTY
Conf_Id
SciTegic.value.IntegerValue
41

@<SCITEGIC>MOL_PROPERTY
Delta U+W
SciTegic.value.DoubleValue
-0.634

@<SCITEGIC>MOL_PROPERTY
U+W
SciTegic.value.DoubleValue
-52.379

@<SCITEGIC>MOL_PROPERTY
Grad RMS
SciTegic.value.DoubleValue
0.000000

@<SCITEGIC>MOL_PROPERTY
U
SciTegic.value.DoubleValue
7.828

@<SCITEGIC>MOL_PROPERTY
W
SciTegic.value.DoubleValue
-60.207

@<SCITEGIC>MOL_PROPERTY
W(PB)
SciTegic.value.DoubleValue
-62.449

@<SCITEGIC>MOL_PROPERTY
W(SA)
SciTegic.value.DoubleValue
2.242

@<SCITEGIC>MOL_PROPERTY
Valence
SciTegic.value.DoubleValue
9.300

@<SCITEGIC>MOL_PROPERTY
Coulomb
SciTegic.value.DoubleValue
-2.080

@<SCITEGIC>MOL_PROPERTY
VdW
SciTegic.value.DoubleValue
0.608

@<SCITEGIC>MOL_PROPERTY
VdW6
SciTegic.value.DoubleValue
-6.341

@<SCITEGIC>MOL_PROPERTY
VdW12
SciTegic.value.DoubleValue
6.949

@<SCITEGIC>MOL_PROPERTY
Bond
SciTegic.value.DoubleValue
0.103

@<SCITEGIC>MOL_PROPERTY
Angle
SciTegic.value.DoubleValue
2.334

@<SCITEGIC>MOL_PROPERTY
Pdih
SciTegic.value.DoubleValue
6.862

@<SCITEGIC>MOL_PROPERTY
Idih
SciTegic.value.DoubleValue
0.001

@<SCITEGIC>MOL_PROPERTY
Tether
SciTegic.value.DoubleValue
0.000

@<TRIPOS>MOLECULE
guest-s22_confgen4.mol2 : confsearch ligand conformer 49
          20          19           1
SMALL
USER_CHARGES
 
@<TRIPOS>ATOM
       1    C1      19.915534   22.127517   20.893973 C.2        1 MOL1        -0.2535
       2    H1      20.061798   22.775861   20.031712 H          1 MOL1         0.0845
       3    H2      19.333517   22.522692   21.725024 H          1 MOL1         0.0845
       4    C2      20.429782   20.895351   20.926070 C.2        1 MOL1        -0.1324
       5    H3      21.008973   20.518120   20.083513 H          1 MOL1         0.0833
       6    C3      20.269720   19.939506   22.087250 C.3        1 MOL1        -0.1813
       7    H4      19.908250   20.476353   22.974668 H          1 MOL1         0.0753
       8    H5      21.250721   19.520010   22.345346 H          1 MOL1         0.0753
       9    C4      19.286281   18.800575   21.736736 C.3        1 MOL1        -0.1855
      10    H6      18.343467   19.241902   21.385323 H          1 MOL1         0.0755
      11    H7      19.685407   18.216401   20.896084 H          1 MOL1         0.0755
      12    C5      18.976760   17.861592   22.928666 C.3        1 MOL1        -0.1855
      13    H8      18.215768   17.133027   22.616463 H          1 MOL1         0.0755
      14    H9      18.526946   18.446298   23.742419 H          1 MOL1         0.0755
      15    C6      20.209239   17.091191   23.476295 C.3        1 MOL1        -0.1958
      16    H10     20.959567   17.788142   23.866516 H          1 MOL1         0.0753
      17    H11     19.899493   16.464617   24.320788 H          1 MOL1         0.0753
      18    C7      20.876991   16.176422   22.453534 C.2        1 MOL1         0.6174
      19    O1      20.297185   15.157594   22.132252 O.co2      1 MOL1        -0.6695
      20    O2      21.965802   16.496404   22.018728 O.co2      1 MOL1        -0.6695
@<TRIPOS>BOND
    1     1     2    1
    2     1     3    1
    3     1     4    2
    4     4     5    1
    5     4     6    1
    6     6     7    1
    7     6     8    1
    8     6     9    1
    9     9    10    1
   10     9    11    1
   11     9    12    1
   12    12    13    1
   13    12    14    1
   14    12    15    1
   15    15    16    1
   16    15    17    1
   17    15    18    1
   18    18    19    1
   19    18    20    2
@<TRIPOS>SUBSTRUCTURE
       1 MOL1            1 RESIDUE      1      MOL     
@<SCITEGIC>MOL_PROPERTY
VConf Rank
SciTegic.value.IntegerValue
49

@<SCITEGIC>MOL_PROPERTY
Conf_Id
SciTegic.value.IntegerValue
84

@<SCITEGIC>MOL_PROPERTY
Delta U+W
SciTegic.value.DoubleValue
0.942

@<SCITEGIC>MOL_PROPERTY
U+W
SciTegic.value.DoubleValue
-50.803

@<SCITEGIC>MOL_PROPERTY
Grad RMS
SciTegic.value.DoubleValue
0.000000

@<SCITEGIC>MOL_PROPERTY
U
SciTegic.value.DoubleValue
10.196

@<SCITEGIC>MOL_PROPERTY
W
SciTegic.value.DoubleValue
-60.999

@<SCITEGIC>MOL_PROPERTY
W(PB)
SciTegic.value.DoubleValue
-63.182

@<SCITEGIC>MOL_PROPERTY
W(SA)
SciTegic.value.DoubleValue
2.182

@<SCITEGIC>MOL_PROPERTY
Valence
SciTegic.value.DoubleValue
9.837

@<SCITEGIC>MOL_PROPERTY
Coulomb
SciTegic.value.DoubleValue
0.032

@<SCITEGIC>MOL_PROPERTY
VdW
SciTegic.value.DoubleValue
0.328

@<SCITEGIC>MOL_PROPERTY
VdW6
SciTegic.value.DoubleValue
-7.642

@<SCITEGIC>MOL_PROPERTY
VdW12
SciTegic.value.DoubleValue
7.969

@<SCITEGIC>MOL_PROPERTY
Bond
SciTegic.value.DoubleValue
0.151

@<SCITEGIC>MOL_PROPERTY
Angle
SciTegic.value.DoubleValue
2.748

@<SCITEGIC>MOL_PROPERTY
Pdih
SciTegic.value.DoubleValue
6.937

@<SCITEGIC>MOL_PROPERTY
Idih
SciTegic.value.DoubleValue
0.001

@<SCITEGIC>MOL_PROPERTY
Tether
SciTegic.value.DoubleValue
0.000

@<TRIPOS>MOLECULE
guest-s22_confgen4.mol2 : confsearch ligand conformer 50
          20          19           1
SMALL
USER_CHARGES
 
@<TRIPOS>ATOM
       1    C1      16.677482   19.012353   23.874240 C.2        1 MOL1        -0.2535
       2    H1      16.005757   19.514184   24.568655 H          1 MOL1         0.0845
       3    H2      16.231996   18.534603   23.003103 H          1 MOL1         0.0845
       4    C2      17.996040   18.988257   24.085160 C.2        1 MOL1        -0.1324
       5    H3      18.421951   19.473452   24.963125 H          1 MOL1         0.0833
       6    C3      18.989234   18.311415   23.166947 C.3        1 MOL1        -0.1813
       7    H4      18.467267   17.643391   22.468317 H          1 MOL1         0.0753
       8    H5      19.667151   17.682271   23.759138 H          1 MOL1         0.0753
       9    C4      19.808414   19.348515   22.370436 C.3        1 MOL1        -0.1855
      10    H6      19.123681   19.978335   21.785503 H          1 MOL1         0.0755
      11    H7      20.334004   20.014456   23.068524 H          1 MOL1         0.0755
      12    C5      20.831057   18.672735   21.429236 C.3        1 MOL1        -0.1855
      13    H8      20.307297   18.016490   20.720202 H          1 MOL1         0.0755
      14    H9      21.498401   18.030918   22.020247 H          1 MOL1         0.0755
      15    C6      21.686859   19.699313   20.642709 C.3        1 MOL1        -0.1958
      16    H10     22.195303   20.379597   21.336649 H          1 MOL1         0.0753
      17    H11     22.469381   19.172523   20.084026 H          1 MOL1         0.0753
      18    C7      20.891766   20.530886   19.640109 C.2        1 MOL1         0.6174
      19    O1      20.646305   21.688219   19.918137 O.co2      1 MOL1        -0.6695
      20    O2      20.550228   20.001501   18.600777 O.co2      1 MOL1        -0.6695
@<TRIPOS>BOND
    1     1     2    1
    2     1     3    1
    3     1     4    2
    4     4     5    1
    5     4     6    1
    6     6     7    1
    7     6     8    1
    8     6     9    1
    9     9    10    1
   10     9    11    1
   11     9    12    1
   12    12    13    1
   13    12    14    1
   14    12    15    1
   15    15    16    1
   16    15    17    1
   17    15    18    1
   18    18    19    1
   19    18    20    2
@<TRIPOS>SUBSTRUCTURE
       1 MOL1            1 RESIDUE      1      MOL     
@<SCITEGIC>MOL_PROPERTY
VConf Rank
SciTegic.value.IntegerValue
50

@<SCITEGIC>MOL_PROPERTY
Conf_Id
SciTegic.value.IntegerValue
81

@<SCITEGIC>MOL_PROPERTY
Delta U+W
SciTegic.value.DoubleValue
-0.051

@<SCITEGIC>MOL_PROPERTY
U+W
SciTegic.value.DoubleValue
-51.796

@<SCITEGIC>MOL_PROPERTY
Grad RMS
SciTegic.value.DoubleValue
0.000000

@<SCITEGIC>MOL_PROPERTY
U
SciTegic.value.DoubleValue
9.412

@<SCITEGIC>MOL_PROPERTY
W
SciTegic.value.DoubleValue
-61.209

@<SCITEGIC>MOL_PROPERTY
W(PB)
SciTegic.value.DoubleValue
-63.452

@<SCITEGIC>MOL_PROPERTY
W(SA)
SciTegic.value.DoubleValue
2.243

@<SCITEGIC>MOL_PROPERTY
Valence
SciTegic.value.DoubleValue
9.329

@<SCITEGIC>MOL_PROPERTY
Coulomb
SciTegic.value.DoubleValue
-0.323

@<SCITEGIC>MOL_PROPERTY
VdW
SciTegic.value.DoubleValue
0.406

@<SCITEGIC>MOL_PROPERTY
VdW6
SciTegic.value.DoubleValue
-6.640

@<SCITEGIC>MOL_PROPERTY
VdW12
SciTegic.value.DoubleValue
7.046

@<SCITEGIC>MOL_PROPERTY
Bond
SciTegic.value.DoubleValue
0.105

@<SCITEGIC>MOL_PROPERTY
Angle
SciTegic.value.DoubleValue
2.401

@<SCITEGIC>MOL_PROPERTY
Pdih
SciTegic.value.DoubleValue
6.823

@<SCITEGIC>MOL_PROPERTY
Idih
SciTegic.value.DoubleValue
0.000

@<SCITEGIC>MOL_PROPERTY
Tether
SciTegic.value.DoubleValue
0.000

@<TRIPOS>MOLECULE
guest-s22_confgen4.mol2 : confsearch ligand conformer 51
          20          19           1
SMALL
USER_CHARGES
 
@<TRIPOS>ATOM
       1    C1      16.868699   20.539763   22.853785 C.2        1 MOL1        -0.2535
       2    H1      16.531195   21.108115   21.988611 H          1 MOL1         0.0845
       3    H2      16.145834   20.358264   23.647302 H          1 MOL1         0.0845
       4    C2      18.119188   20.078897   22.940719 C.2        1 MOL1        -0.1324
       5    H3      18.437501   19.514146   23.816481 H          1 MOL1         0.0833
       6    C3      19.178758   20.296190   21.881653 C.3        1 MOL1        -0.1813
       7    H4      20.125854   20.591579   22.351426 H          1 MOL1         0.0753
       8    H5      18.890191   21.136692   21.236284 H          1 MOL1         0.0753
       9    C4      19.392472   19.046667   20.994113 C.3        1 MOL1        -0.1855
      10    H6      18.454709   18.822316   20.467709 H          1 MOL1         0.0755
      11    H7      20.129091   19.285427   20.214782 H          1 MOL1         0.0755
      12    C5      19.851052   17.778608   21.759503 C.3        1 MOL1        -0.1855
      13    H8      19.945389   16.950493   21.043606 H          1 MOL1         0.0755
      14    H9      19.070375   17.477441   22.470515 H          1 MOL1         0.0755
      15    C6      21.197365   17.937081   22.517472 C.3        1 MOL1        -0.1958
      16    H10     21.115320   18.706283   23.293769 H          1 MOL1         0.0753
      17    H11     21.435827   16.999857   23.033567 H          1 MOL1         0.0753
      18    C7      22.382671   18.274773   21.617718 C.2        1 MOL1         0.6174
      19    O1      22.848677   19.395783   21.674836 O.co2      1 MOL1        -0.6695
      20    O2      22.820061   17.400664   20.895165 O.co2      1 MOL1        -0.6695
@<TRIPOS>BOND
    1     1     2    1
    2     1     3    1
    3     1     4    2
    4     4     5    1
    5     4     6    1
    6     6     7    1
    7     6     8    1
    8     6     9    1
    9     9    10    1
   10     9    11    1
   11     9    12    1
   12    12    13    1
   13    12    14    1
   14    12    15    1
   15    15    16    1
   16    15    17    1
   17    15    18    1
   18    18    19    1
   19    18    20    2
@<TRIPOS>SUBSTRUCTURE
       1 MOL1            1 RESIDUE      1      MOL     
@<SCITEGIC>MOL_PROPERTY
VConf Rank
SciTegic.value.IntegerValue
51

@<SCITEGIC>MOL_PROPERTY
Conf_Id
SciTegic.value.IntegerValue
86

@<SCITEGIC>MOL_PROPERTY
Delta U+W
SciTegic.value.DoubleValue
1.248

@<SCITEGIC>MOL_PROPERTY
U+W
SciTegic.value.DoubleValue
-50.498

@<SCITEGIC>MOL_PROPERTY
Grad RMS
SciTegic.value.DoubleValue
0.000000

@<SCITEGIC>MOL_PROPERTY
U
SciTegic.value.DoubleValue
10.404

@<SCITEGIC>MOL_PROPERTY
W
SciTegic.value.DoubleValue
-60.901

@<SCITEGIC>MOL_PROPERTY
W(PB)
SciTegic.value.DoubleValue
-63.061

@<SCITEGIC>MOL_PROPERTY
W(SA)
SciTegic.value.DoubleValue
2.159

@<SCITEGIC>MOL_PROPERTY
Valence
SciTegic.value.DoubleValue
10.021

@<SCITEGIC>MOL_PROPERTY
Coulomb
SciTegic.value.DoubleValue
0.094

@<SCITEGIC>MOL_PROPERTY
VdW
SciTegic.value.DoubleValue
0.289

@<SCITEGIC>MOL_PROPERTY
VdW6
SciTegic.value.DoubleValue
-8.409

@<SCITEGIC>MOL_PROPERTY
VdW12
SciTegic.value.DoubleValue
8.698

@<SCITEGIC>MOL_PROPERTY
Bond
SciTegic.value.DoubleValue
0.179

@<SCITEGIC>MOL_PROPERTY
Angle
SciTegic.value.DoubleValue
2.939

@<SCITEGIC>MOL_PROPERTY
Pdih
SciTegic.value.DoubleValue
6.902

@<SCITEGIC>MOL_PROPERTY
Idih
SciTegic.value.DoubleValue
0.001

@<SCITEGIC>MOL_PROPERTY
Tether
SciTegic.value.DoubleValue
0.000

@<TRIPOS>MOLECULE
guest-s22_confgen4.mol2 : confsearch ligand conformer 52
          20          19           1
SMALL
USER_CHARGES
 
@<TRIPOS>ATOM
       1    C1      20.677941   16.065394   21.806493 C.2        1 MOL1        -0.2535
       2    H1      20.251141   15.078409   21.976219 H          1 MOL1         0.0845
       3    H2      21.061949   16.280982   20.810761 H          1 MOL1         0.0845
       4    C2      20.723598   16.975032   22.783478 C.2        1 MOL1        -0.1324
       5    H3      20.331692   16.739886   23.772672 H          1 MOL1         0.0833
       6    C3      21.300285   18.365632   22.623116 C.3        1 MOL1        -0.1813
       7    H4      21.848634   18.450211   21.675054 H          1 MOL1         0.0753
       8    H5      22.032841   18.544173   23.421431 H          1 MOL1         0.0753
       9    C4      20.213795   19.462514   22.689822 C.3        1 MOL1        -0.1855
      10    H6      19.662290   19.376180   23.636030 H          1 MOL1         0.0755
      11    H7      20.705222   20.445032   22.702745 H          1 MOL1         0.0755
      12    C5      19.226734   19.398127   21.500215 C.3        1 MOL1        -0.1855
      13    H8      18.729682   18.418890   21.490108 H          1 MOL1         0.0755
      14    H9      19.779092   19.480674   20.553939 H          1 MOL1         0.0755
      15    C6      18.144196   20.506843   21.562580 C.3        1 MOL1        -0.1958
      16    H10     17.404455   20.341226   20.770559 H          1 MOL1         0.0753
      17    H11     17.605069   20.456456   22.516299 H          1 MOL1         0.0753
      18    C7      18.692376   21.920079   21.386547 C.2        1 MOL1         0.6174
      19    O1      18.998485   22.280067   20.266799 O.co2      1 MOL1        -0.6695
      20    O2      18.788232   22.627351   22.370246 O.co2      1 MOL1        -0.6695
@<TRIPOS>BOND
    1     1     2    1
    2     1     3    1
    3     1     4    2
    4     4     5    1
    5     4     6    1
    6     6     7    1
    7     6     8    1
    8     6     9    1
    9     9    10    1
   10     9    11    1
   11     9    12    1
   12    12    13    1
   13    12    14    1
   14    12    15    1
   15    15    16    1
   16    15    17    1
   17    15    18    1
   18    18    19    1
   19    18    20    2
@<TRIPOS>SUBSTRUCTURE
       1 MOL1            1 RESIDUE      1      MOL     
@<SCITEGIC>MOL_PROPERTY
VConf Rank
SciTegic.value.IntegerValue
52

@<SCITEGIC>MOL_PROPERTY
Conf_Id
SciTegic.value.IntegerValue
28

@<SCITEGIC>MOL_PROPERTY
Delta U+W
SciTegic.value.DoubleValue
0.446

@<SCITEGIC>MOL_PROPERTY
U+W
SciTegic.value.DoubleValue
-51.299

@<SCITEGIC>MOL_PROPERTY
Grad RMS
SciTegic.value.DoubleValue
0.000000

@<SCITEGIC>MOL_PROPERTY
U
SciTegic.value.DoubleValue
9.295

@<SCITEGIC>MOL_PROPERTY
W
SciTegic.value.DoubleValue
-60.594

@<SCITEGIC>MOL_PROPERTY
W(PB)
SciTegic.value.DoubleValue
-62.806

@<SCITEGIC>MOL_PROPERTY
W(SA)
SciTegic.value.DoubleValue
2.212

@<SCITEGIC>MOL_PROPERTY
Valence
SciTegic.value.DoubleValue
9.495

@<SCITEGIC>MOL_PROPERTY
Coulomb
SciTegic.value.DoubleValue
-0.610

@<SCITEGIC>MOL_PROPERTY
VdW
SciTegic.value.DoubleValue
0.409

@<SCITEGIC>MOL_PROPERTY
VdW6
SciTegic.value.DoubleValue
-7.332

@<SCITEGIC>MOL_PROPERTY
VdW12
SciTegic.value.DoubleValue
7.741

@<SCITEGIC>MOL_PROPERTY
Bond
SciTegic.value.DoubleValue
0.126

@<SCITEGIC>MOL_PROPERTY
Angle
SciTegic.value.DoubleValue
2.497

@<SCITEGIC>MOL_PROPERTY
Pdih
SciTegic.value.DoubleValue
6.872

@<SCITEGIC>MOL_PROPERTY
Idih
SciTegic.value.DoubleValue
0.000

@<SCITEGIC>MOL_PROPERTY
Tether
SciTegic.value.DoubleValue
0.000

@<TRIPOS>MOLECULE
guest-s22_confgen4.mol2 : confsearch ligand conformer 53
          20          19           1
SMALL
USER_CHARGES
 
@<TRIPOS>ATOM
       1    C1      22.884329   19.783891   21.860713 C.2        1 MOL1        -0.2535
       2    H1      22.497380   20.494782   22.587624 H          1 MOL1         0.0845
       3    H2      23.965721   19.741361   21.742717 H          1 MOL1         0.0845
       4    C2      22.086448   18.988397   21.139222 C.2        1 MOL1        -0.1324
       5    H3      22.533444   18.294374   20.427838 H          1 MOL1         0.0833
       6    C3      20.568612   18.934480   21.191404 C.3        1 MOL1        -0.1813
       7    H4      20.268859   17.929107   21.513947 H          1 MOL1         0.0753
       8    H5      20.177925   19.050999   20.171826 H          1 MOL1         0.0753
       9    C4      19.908452   19.994250   22.107742 C.3        1 MOL1        -0.1855
      10    H6      20.223948   19.831176   23.147474 H          1 MOL1         0.0755
      11    H7      20.271480   20.990710   21.821434 H          1 MOL1         0.0755
      12    C5      18.361614   20.001745   22.028392 C.3        1 MOL1        -0.1855
      13    H8      18.053241   20.214994   20.996007 H          1 MOL1         0.0755
      14    H9      17.980896   20.831387   22.640076 H          1 MOL1         0.0755
      15    C6      17.685606   18.685211   22.499996 C.3        1 MOL1        -0.1958
      16    H10     16.598243   18.779503   22.397971 H          1 MOL1         0.0753
      17    H11     17.984650   17.845876   21.862041 H          1 MOL1         0.0753
      18    C7      17.974018   18.321726   23.953819 C.2        1 MOL1         0.6174
      19    O1      17.467342   19.001001   24.825207 O.co2      1 MOL1        -0.6695
      20    O2      18.679493   17.357774   24.177335 O.co2      1 MOL1        -0.6695
@<TRIPOS>BOND
    1     1     2    1
    2     1     3    1
    3     1     4    2
    4     4     5    1
    5     4     6    1
    6     6     7    1
    7     6     8    1
    8     6     9    1
    9     9    10    1
   10     9    11    1
   11     9    12    1
   12    12    13    1
   13    12    14    1
   14    12    15    1
   15    15    16    1
   16    15    17    1
   17    15    18    1
   18    18    19    1
   19    18    20    2
@<TRIPOS>SUBSTRUCTURE
       1 MOL1            1 RESIDUE      1      MOL     
@<SCITEGIC>MOL_PROPERTY
VConf Rank
SciTegic.value.IntegerValue
53

@<SCITEGIC>MOL_PROPERTY
Conf_Id
SciTegic.value.IntegerValue
53

@<SCITEGIC>MOL_PROPERTY
Delta U+W
SciTegic.value.DoubleValue
0.549

@<SCITEGIC>MOL_PROPERTY
U+W
SciTegic.value.DoubleValue
-51.197

@<SCITEGIC>MOL_PROPERTY
Grad RMS
SciTegic.value.DoubleValue
0.000000

@<SCITEGIC>MOL_PROPERTY
U
SciTegic.value.DoubleValue
10.870

@<SCITEGIC>MOL_PROPERTY
W
SciTegic.value.DoubleValue
-62.067

@<SCITEGIC>MOL_PROPERTY
W(PB)
SciTegic.value.DoubleValue
-64.228

@<SCITEGIC>MOL_PROPERTY
W(SA)
SciTegic.value.DoubleValue
2.161

@<SCITEGIC>MOL_PROPERTY
Valence
SciTegic.value.DoubleValue
8.803

@<SCITEGIC>MOL_PROPERTY
Coulomb
SciTegic.value.DoubleValue
1.020

@<SCITEGIC>MOL_PROPERTY
VdW
SciTegic.value.DoubleValue
1.048

@<SCITEGIC>MOL_PROPERTY
VdW6
SciTegic.value.DoubleValue
-8.312

@<SCITEGIC>MOL_PROPERTY
VdW12
SciTegic.value.DoubleValue
9.360

@<SCITEGIC>MOL_PROPERTY
Bond
SciTegic.value.DoubleValue
0.212

@<SCITEGIC>MOL_PROPERTY
Angle
SciTegic.value.DoubleValue
3.379

@<SCITEGIC>MOL_PROPERTY
Pdih
SciTegic.value.DoubleValue
5.211

@<SCITEGIC>MOL_PROPERTY
Idih
SciTegic.value.DoubleValue
0.001

@<SCITEGIC>MOL_PROPERTY
Tether
SciTegic.value.DoubleValue
0.000

@<TRIPOS>MOLECULE
guest-s22_confgen4.mol2 : confsearch ligand conformer 54
          20          19           1
SMALL
USER_CHARGES
 
@<TRIPOS>ATOM
       1    C1      19.800080   21.122371   20.377540 C.2        1 MOL1        -0.2535
       2    H1      18.731867   20.917664   20.359828 H          1 MOL1         0.0845
       3    H2      20.225536   21.604221   19.499058 H          1 MOL1         0.0845
       4    C2      20.567998   20.808027   21.426419 C.2        1 MOL1        -0.1324
       5    H3      21.632663   21.037693   21.394080 H          1 MOL1         0.0833
       6    C3      20.110969   20.131571   22.708378 C.3        1 MOL1        -0.1813
       7    H4      19.961507   20.900314   23.477856 H          1 MOL1         0.0753
       8    H5      20.927195   19.506735   23.093004 H          1 MOL1         0.0753
       9    C4      18.829077   19.265446   22.597230 C.3        1 MOL1        -0.1855
      10    H6      18.568050   18.897553   23.598907 H          1 MOL1         0.0755
      11    H7      17.986954   19.897933   22.287208 H          1 MOL1         0.0755
      12    C5      18.943699   18.055479   21.633023 C.3        1 MOL1        -0.1855
      13    H8      19.132148   18.412913   20.612590 H          1 MOL1         0.0755
      14    H9      17.974591   17.538963   21.600473 H          1 MOL1         0.0755
      15    C6      20.042264   17.027035   22.017444 C.3        1 MOL1        -0.1958
      16    H10     20.052123   16.215024   21.281164 H          1 MOL1         0.0753
      17    H11     21.034588   17.490588   21.979873 H          1 MOL1         0.0753
      18    C7      19.849582   16.392031   23.391515 C.2        1 MOL1         0.6174
      19    O1      20.607363   16.712505   24.286066 O.co2      1 MOL1        -0.6695
      20    O2      18.956311   15.578721   23.526055 O.co2      1 MOL1        -0.6695
@<TRIPOS>BOND
    1     1     2    1
    2     1     3    1
    3     1     4    2
    4     4     5    1
    5     4     6    1
    6     6     7    1
    7     6     8    1
    8     6     9    1
    9     9    10    1
   10     9    11    1
   11     9    12    1
   12    12    13    1
   13    12    14    1
   14    12    15    1
   15    15    16    1
   16    15    17    1
   17    15    18    1
   18    18    19    1
   19    18    20    2
@<TRIPOS>SUBSTRUCTURE
       1 MOL1            1 RESIDUE      1      MOL     
@<SCITEGIC>MOL_PROPERTY
VConf Rank
SciTegic.value.IntegerValue
54

@<SCITEGIC>MOL_PROPERTY
Conf_Id
SciTegic.value.IntegerValue
66

@<SCITEGIC>MOL_PROPERTY
Delta U+W
SciTegic.value.DoubleValue
1.737

@<SCITEGIC>MOL_PROPERTY
U+W
SciTegic.value.DoubleValue
-50.008

@<SCITEGIC>MOL_PROPERTY
Grad RMS
SciTegic.value.DoubleValue
0.000000

@<SCITEGIC>MOL_PROPERTY
U
SciTegic.value.DoubleValue
11.091

@<SCITEGIC>MOL_PROPERTY
W
SciTegic.value.DoubleValue
-61.099

@<SCITEGIC>MOL_PROPERTY
W(PB)
SciTegic.value.DoubleValue
-63.213

@<SCITEGIC>MOL_PROPERTY
W(SA)
SciTegic.value.DoubleValue
2.114

@<SCITEGIC>MOL_PROPERTY
Valence
SciTegic.value.DoubleValue
9.664

@<SCITEGIC>MOL_PROPERTY
Coulomb
SciTegic.value.DoubleValue
0.658

@<SCITEGIC>MOL_PROPERTY
VdW
SciTegic.value.DoubleValue
0.769

@<SCITEGIC>MOL_PROPERTY
VdW6
SciTegic.value.DoubleValue
-9.171

@<SCITEGIC>MOL_PROPERTY
VdW12
SciTegic.value.DoubleValue
9.940

@<SCITEGIC>MOL_PROPERTY
Bond
SciTegic.value.DoubleValue
0.244

@<SCITEGIC>MOL_PROPERTY
Angle
SciTegic.value.DoubleValue
3.658

@<SCITEGIC>MOL_PROPERTY
Pdih
SciTegic.value.DoubleValue
5.762

@<SCITEGIC>MOL_PROPERTY
Idih
SciTegic.value.DoubleValue
0.001

@<SCITEGIC>MOL_PROPERTY
Tether
SciTegic.value.DoubleValue
0.000

@<TRIPOS>MOLECULE
guest-s22_confgen4.mol2 : confsearch ligand conformer 55
          20          19           1
SMALL
USER_CHARGES
 
@<TRIPOS>ATOM
       1    C1      22.072103   18.028970   22.171240 C.2        1 MOL1        -0.2535
       2    H1      21.602632   17.331413   21.481171 H          1 MOL1         0.0845
       3    H2      23.127743   18.243358   22.014402 H          1 MOL1         0.0845
       4    C2      21.398634   18.601236   23.175148 C.2        1 MOL1        -0.1324
       5    H3      21.919384   19.291150   23.838608 H          1 MOL1         0.0833
       6    C3      19.929210   18.400940   23.508722 C.3        1 MOL1        -0.1813
       7    H4      19.522454   19.341752   23.899968 H          1 MOL1         0.0753
       8    H5      19.853403   17.693538   24.345034 H          1 MOL1         0.0753
       9    C4      19.030145   17.909345   22.344104 C.3        1 MOL1        -0.1855
      10    H6      19.396966   16.938770   21.985051 H          1 MOL1         0.0755
      11    H7      18.021510   17.718279   22.734974 H          1 MOL1         0.0755
      12    C5      18.921808   18.891789   21.150049 C.3        1 MOL1        -0.1855
      13    H8      18.336893   18.411192   20.353756 H          1 MOL1         0.0755
      14    H9      19.916002   19.085653   20.726266 H          1 MOL1         0.0755
      15    C6      18.248688   20.240115   21.515893 C.3        1 MOL1        -0.1958
      16    H10     17.274880   20.062283   21.987299 H          1 MOL1         0.0753
      17    H11     18.863249   20.794375   22.234193 H          1 MOL1         0.0753
      18    C7      18.028893   21.137555   20.303236 C.2        1 MOL1         0.6174
      19    O1      18.899183   21.934103   20.011929 O.co2      1 MOL1        -0.6695
      20    O2      16.998317   21.006561   19.672612 O.co2      1 MOL1        -0.6695
@<TRIPOS>BOND
    1     1     2    1
    2     1     3    1
    3     1     4    2
    4     4     5    1
    5     4     6    1
    6     6     7    1
    7     6     8    1
    8     6     9    1
    9     9    10    1
   10     9    11    1
   11     9    12    1
   12    12    13    1
   13    12    14    1
   14    12    15    1
   15    15    16    1
   16    15    17    1
   17    15    18    1
   18    18    19    1
   19    18    20    2
@<TRIPOS>SUBSTRUCTURE
       1 MOL1            1 RESIDUE      1      MOL     
@<SCITEGIC>MOL_PROPERTY
VConf Rank
SciTegic.value.IntegerValue
55

@<SCITEGIC>MOL_PROPERTY
Conf_Id
SciTegic.value.IntegerValue
64

@<SCITEGIC>MOL_PROPERTY
Delta U+W
SciTegic.value.DoubleValue
0.366

@<SCITEGIC>MOL_PROPERTY
U+W
SciTegic.value.DoubleValue
-51.379

@<SCITEGIC>MOL_PROPERTY
Grad RMS
SciTegic.value.DoubleValue
0.000000

@<SCITEGIC>MOL_PROPERTY
U
SciTegic.value.DoubleValue
10.000

@<SCITEGIC>MOL_PROPERTY
W
SciTegic.value.DoubleValue
-61.379

@<SCITEGIC>MOL_PROPERTY
W(PB)
SciTegic.value.DoubleValue
-63.541

@<SCITEGIC>MOL_PROPERTY
W(SA)
SciTegic.value.DoubleValue
2.162

@<SCITEGIC>MOL_PROPERTY
Valence
SciTegic.value.DoubleValue
9.398

@<SCITEGIC>MOL_PROPERTY
Coulomb
SciTegic.value.DoubleValue
-0.504

@<SCITEGIC>MOL_PROPERTY
VdW
SciTegic.value.DoubleValue
1.105

@<SCITEGIC>MOL_PROPERTY
VdW6
SciTegic.value.DoubleValue
-7.975

@<SCITEGIC>MOL_PROPERTY
VdW12
SciTegic.value.DoubleValue
9.080

@<SCITEGIC>MOL_PROPERTY
Bond
SciTegic.value.DoubleValue
0.216

@<SCITEGIC>MOL_PROPERTY
Angle
SciTegic.value.DoubleValue
3.417

@<SCITEGIC>MOL_PROPERTY
Pdih
SciTegic.value.DoubleValue
5.765

@<SCITEGIC>MOL_PROPERTY
Idih
SciTegic.value.DoubleValue
0.001

@<SCITEGIC>MOL_PROPERTY
Tether
SciTegic.value.DoubleValue
0.000

@<TRIPOS>MOLECULE
guest-s22_confgen4.mol2 : confsearch ligand conformer 56
          20          19           1
SMALL
USER_CHARGES
 
@<TRIPOS>ATOM
       1    C1      21.517876   18.116182   24.339324 C.2        1 MOL1        -0.2535
       2    H1      21.249409   19.035423   24.857339 H          1 MOL1         0.0845
       3    H2      22.535086   17.749136   24.464484 H          1 MOL1         0.0845
       4    C2      20.637556   17.463455   23.575782 C.2        1 MOL1        -0.1324
       5    H3      20.927256   16.546219   23.063782 H          1 MOL1         0.0833
       6    C3      19.208730   17.911984   23.353843 C.3        1 MOL1        -0.1813
       7    H4      18.942015   18.714387   24.055047 H          1 MOL1         0.0753
       8    H5      18.532182   17.074467   23.569927 H          1 MOL1         0.0753
       9    C4      18.963150   18.390176   21.905063 C.3        1 MOL1        -0.1855
      10    H6      19.230584   17.587807   21.203802 H          1 MOL1         0.0755
      11    H7      17.889353   18.579859   21.771406 H          1 MOL1         0.0755
      12    C5      19.752661   19.673235   21.558632 C.3        1 MOL1        -0.1855
      13    H8      20.830768   19.488589   21.662652 H          1 MOL1         0.0755
      14    H9      19.496489   20.469143   22.271510 H          1 MOL1         0.0755
      15    C6      19.457344   20.160535   20.118720 C.3        1 MOL1        -0.1958
      16    H10     19.720054   19.380501   19.394070 H          1 MOL1         0.0753
      17    H11     18.386770   20.366303   20.000327 H          1 MOL1         0.0753
      18    C7      20.225304   21.425642   19.752884 C.2        1 MOL1         0.6174
      19    O1      19.718202   22.499281   20.011523 O.co2      1 MOL1        -0.6695
      20    O2      21.316335   21.304292   19.231715 O.co2      1 MOL1        -0.6695
@<TRIPOS>BOND
    1     1     2    1
    2     1     3    1
    3     1     4    2
    4     4     5    1
    5     4     6    1
    6     6     7    1
    7     6     8    1
    8     6     9    1
    9     9    10    1
   10     9    11    1
   11     9    12    1
   12    12    13    1
   13    12    14    1
   14    12    15    1
   15    15    16    1
   16    15    17    1
   17    15    18    1
   18    18    19    1
   19    18    20    2
@<TRIPOS>SUBSTRUCTURE
       1 MOL1            1 RESIDUE      1      MOL     
@<SCITEGIC>MOL_PROPERTY
VConf Rank
SciTegic.value.IntegerValue
56

@<SCITEGIC>MOL_PROPERTY
Conf_Id
SciTegic.value.IntegerValue
42

@<SCITEGIC>MOL_PROPERTY
Delta U+W
SciTegic.value.DoubleValue
-0.601

@<SCITEGIC>MOL_PROPERTY
U+W
SciTegic.value.DoubleValue
-52.347

@<SCITEGIC>MOL_PROPERTY
Grad RMS
SciTegic.value.DoubleValue
0.000000

@<SCITEGIC>MOL_PROPERTY
U
SciTegic.value.DoubleValue
8.428

@<SCITEGIC>MOL_PROPERTY
W
SciTegic.value.DoubleValue
-60.774

@<SCITEGIC>MOL_PROPERTY
W(PB)
SciTegic.value.DoubleValue
-62.982

@<SCITEGIC>MOL_PROPERTY
W(SA)
SciTegic.value.DoubleValue
2.208

@<SCITEGIC>MOL_PROPERTY
Valence
SciTegic.value.DoubleValue
9.231

@<SCITEGIC>MOL_PROPERTY
Coulomb
SciTegic.value.DoubleValue
-1.304

@<SCITEGIC>MOL_PROPERTY
VdW
SciTegic.value.DoubleValue
0.501

@<SCITEGIC>MOL_PROPERTY
VdW6
SciTegic.value.DoubleValue
-6.515

@<SCITEGIC>MOL_PROPERTY
VdW12
SciTegic.value.DoubleValue
7.016

@<SCITEGIC>MOL_PROPERTY
Bond
SciTegic.value.DoubleValue
0.103

@<SCITEGIC>MOL_PROPERTY
Angle
SciTegic.value.DoubleValue
2.328

@<SCITEGIC>MOL_PROPERTY
Pdih
SciTegic.value.DoubleValue
6.799

@<SCITEGIC>MOL_PROPERTY
Idih
SciTegic.value.DoubleValue
0.000

@<SCITEGIC>MOL_PROPERTY
Tether
SciTegic.value.DoubleValue
0.000

@<TRIPOS>MOLECULE
guest-s22_confgen4.mol2 : confsearch ligand conformer 57
          20          19           1
SMALL
USER_CHARGES
 
@<TRIPOS>ATOM
       1    C1      20.255341   20.709670   24.636980 C.2        1 MOL1        -0.2535
       2    H1      19.481705   20.189290   25.199196 H          1 MOL1         0.0845
       3    H2      20.412359   21.763930   24.858287 H          1 MOL1         0.0845
       4    C2      20.982913   20.083565   23.708188 C.2        1 MOL1        -0.1324
       5    H3      21.750582   20.623524   23.154531 H          1 MOL1         0.0833
       6    C3      20.821480   18.622783   23.344925 C.3        1 MOL1        -0.1813
       7    H4      20.176596   18.112175   24.072946 H          1 MOL1         0.0753
       8    H5      21.800890   18.129183   23.399003 H          1 MOL1         0.0753
       9    C4      20.246094   18.433315   21.923309 C.3        1 MOL1        -0.1855
      10    H6      20.896286   18.939046   21.196105 H          1 MOL1         0.0755
      11    H7      20.266794   17.364367   21.670994 H          1 MOL1         0.0755
      12    C5      18.797171   18.959037   21.790999 C.3        1 MOL1        -0.1855
      13    H8      18.768549   20.037384   22.000052 H          1 MOL1         0.0755
      14    H9      18.166042   18.474546   22.548082 H          1 MOL1         0.0755
      15    C6      18.193415   18.695348   20.387157 C.3        1 MOL1        -0.1958
      16    H10     18.235329   17.625183   20.151115 H          1 MOL1         0.0753
      17    H11     17.134597   18.979754   20.384587 H          1 MOL1         0.0753
      18    C7      18.877293   19.468781   19.263358 C.2        1 MOL1         0.6174
      19    O1      19.648738   18.870681   18.539263 O.co2      1 MOL1        -0.6695
      20    O2      18.605794   20.645990   19.130836 O.co2      1 MOL1        -0.6695
@<TRIPOS>BOND
    1     1     2    1
    2     1     3    1
    3     1     4    2
    4     4     5    1
    5     4     6    1
    6     6     7    1
    7     6     8    1
    8     6     9    1
    9     9    10    1
   10     9    11    1
   11     9    12    1
   12    12    13    1
   13    12    14    1
   14    12    15    1
   15    15    16    1
   16    15    17    1
   17    15    18    1
   18    18    19    1
   19    18    20    2
@<TRIPOS>SUBSTRUCTURE
       1 MOL1            1 RESIDUE      1      MOL     
@<SCITEGIC>MOL_PROPERTY
VConf Rank
SciTegic.value.IntegerValue
57

@<SCITEGIC>MOL_PROPERTY
Conf_Id
SciTegic.value.IntegerValue
68

@<SCITEGIC>MOL_PROPERTY
Delta U+W
SciTegic.value.DoubleValue
0.492

@<SCITEGIC>MOL_PROPERTY
U+W
SciTegic.value.DoubleValue
-51.253

@<SCITEGIC>MOL_PROPERTY
Grad RMS
SciTegic.value.DoubleValue
0.000000

@<SCITEGIC>MOL_PROPERTY
U
SciTegic.value.DoubleValue
10.179

@<SCITEGIC>MOL_PROPERTY
W
SciTegic.value.DoubleValue
-61.432

@<SCITEGIC>MOL_PROPERTY
W(PB)
SciTegic.value.DoubleValue
-63.627

@<SCITEGIC>MOL_PROPERTY
W(SA)
SciTegic.value.DoubleValue
2.195

@<SCITEGIC>MOL_PROPERTY
Valence
SciTegic.value.DoubleValue
9.483

@<SCITEGIC>MOL_PROPERTY
Coulomb
SciTegic.value.DoubleValue
0.361

@<SCITEGIC>MOL_PROPERTY
VdW
SciTegic.value.DoubleValue
0.335

@<SCITEGIC>MOL_PROPERTY
VdW6
SciTegic.value.DoubleValue
-7.385

@<SCITEGIC>MOL_PROPERTY
VdW12
SciTegic.value.DoubleValue
7.720

@<SCITEGIC>MOL_PROPERTY
Bond
SciTegic.value.DoubleValue
0.125

@<SCITEGIC>MOL_PROPERTY
Angle
SciTegic.value.DoubleValue
2.487

@<SCITEGIC>MOL_PROPERTY
Pdih
SciTegic.value.DoubleValue
6.870

@<SCITEGIC>MOL_PROPERTY
Idih
SciTegic.value.DoubleValue
0.001

@<SCITEGIC>MOL_PROPERTY
Tether
SciTegic.value.DoubleValue
0.000

@<TRIPOS>MOLECULE
guest-s22_confgen4.mol2 : confsearch ligand conformer 58
          20          19           1
SMALL
USER_CHARGES
 
@<TRIPOS>ATOM
       1    C1      18.001313   16.910946   20.679077 C.2        1 MOL1        -0.2535
       2    H1      18.143067   16.071684   21.358073 H          1 MOL1         0.0845
       3    H2      17.890999   16.685424   19.619762 H          1 MOL1         0.0845
       4    C2      17.967062   18.169782   21.123886 C.2        1 MOL1        -0.1324
       5    H3      17.821405   18.994851   20.427259 H          1 MOL1         0.0833
       6    C3      18.107275   18.558171   22.580346 C.3        1 MOL1        -0.1813
       7    H4      17.900566   17.687644   23.217506 H          1 MOL1         0.0753
       8    H5      17.354603   19.314550   22.839910 H          1 MOL1         0.0753
       9    C4      19.519033   19.091236   22.913453 C.3        1 MOL1        -0.1855
      10    H6      19.597682   19.230760   24.000234 H          1 MOL1         0.0755
      11    H7      20.267088   18.333963   22.640415 H          1 MOL1         0.0755
      12    C5      19.839312   20.429124   22.205493 C.3        1 MOL1        -0.1855
      13    H8      19.058315   21.162770   22.446569 H          1 MOL1         0.0755
      14    H9      19.820080   20.292313   21.115663 H          1 MOL1         0.0755
      15    C6      21.217457   21.006575   22.620366 C.3        1 MOL1        -0.1958
      16    H10     21.343103   22.004259   22.183506 H          1 MOL1         0.0753
      17    H11     21.265552   21.128512   23.709210 H          1 MOL1         0.0753
      18    C7      22.404747   20.158820   22.172604 C.2        1 MOL1         0.6174
      19    O1      22.749502   20.226037   21.009104 O.co2      1 MOL1        -0.6695
      20    O2      22.965314   19.469369   23.001788 O.co2      1 MOL1        -0.6695
@<TRIPOS>BOND
    1     1     2    1
    2     1     3    1
    3     1     4    2
    4     4     5    1
    5     4     6    1
    6     6     7    1
    7     6     8    1
    8     6     9    1
    9     9    10    1
   10     9    11    1
   11     9    12    1
   12    12    13    1
   13    12    14    1
   14    12    15    1
   15    15    16    1
   16    15    17    1
   17    15    18    1
   18    18    19    1
   19    18    20    2
@<TRIPOS>SUBSTRUCTURE
       1 MOL1            1 RESIDUE      1      MOL     
@<SCITEGIC>MOL_PROPERTY
VConf Rank
SciTegic.value.IntegerValue
58

@<SCITEGIC>MOL_PROPERTY
Conf_Id
SciTegic.value.IntegerValue
87

@<SCITEGIC>MOL_PROPERTY
Delta U+W
SciTegic.value.DoubleValue
0.339

@<SCITEGIC>MOL_PROPERTY
U+W
SciTegic.value.DoubleValue
-51.407

@<SCITEGIC>MOL_PROPERTY
Grad RMS
SciTegic.value.DoubleValue
0.000000

@<SCITEGIC>MOL_PROPERTY
U
SciTegic.value.DoubleValue
10.461

@<SCITEGIC>MOL_PROPERTY
W
SciTegic.value.DoubleValue
-61.867

@<SCITEGIC>MOL_PROPERTY
W(PB)
SciTegic.value.DoubleValue
-64.045

@<SCITEGIC>MOL_PROPERTY
W(SA)
SciTegic.value.DoubleValue
2.178

@<SCITEGIC>MOL_PROPERTY
Valence
SciTegic.value.DoubleValue
9.555

@<SCITEGIC>MOL_PROPERTY
Coulomb
SciTegic.value.DoubleValue
0.483

@<SCITEGIC>MOL_PROPERTY
VdW
SciTegic.value.DoubleValue
0.423

@<SCITEGIC>MOL_PROPERTY
VdW6
SciTegic.value.DoubleValue
-7.223

@<SCITEGIC>MOL_PROPERTY
VdW12
SciTegic.value.DoubleValue
7.646

@<SCITEGIC>MOL_PROPERTY
Bond
SciTegic.value.DoubleValue
0.126

@<SCITEGIC>MOL_PROPERTY
Angle
SciTegic.value.DoubleValue
2.492

@<SCITEGIC>MOL_PROPERTY
Pdih
SciTegic.value.DoubleValue
6.936

@<SCITEGIC>MOL_PROPERTY
Idih
SciTegic.value.DoubleValue
0.001

@<SCITEGIC>MOL_PROPERTY
Tether
SciTegic.value.DoubleValue
0.000

@<TRIPOS>MOLECULE
guest-s22_confgen4.mol2 : confsearch ligand conformer 59
          20          19           1
SMALL
USER_CHARGES
 
@<TRIPOS>ATOM
       1    C1      17.724103   18.931655   19.816555 C.2        1 MOL1        -0.2535
       2    H1      18.349055   18.734219   18.947146 H          1 MOL1         0.0845
       3    H2      16.722927   18.504307   19.822880 H          1 MOL1         0.0845
       4    C2      18.167685   19.667908   20.838749 C.2        1 MOL1        -0.1324
       5    H3      17.524097   19.861955   21.696028 H          1 MOL1         0.0833
       6    C3      19.541179   20.302253   20.890970 C.3        1 MOL1        -0.1813
       7    H4      19.555910   21.117717   21.626318 H          1 MOL1         0.0753
       8    H5      19.743771   20.773453   19.919716 H          1 MOL1         0.0753
       9    C4      20.677804   19.294549   21.193929 C.3        1 MOL1        -0.1855
      10    H6      20.551381   18.390606   20.582505 H          1 MOL1         0.0755
      11    H7      21.624764   19.747197   20.869720 H          1 MOL1         0.0755
      12    C5      20.828051   18.910114   22.687494 C.3        1 MOL1        -0.1855
      13    H8      20.940289   19.817120   23.297233 H          1 MOL1         0.0755
      14    H9      21.762175   18.343450   22.804934 H          1 MOL1         0.0755
      15    C6      19.663619   18.051650   23.244630 C.3        1 MOL1        -0.1958
      16    H10     18.738857   18.635960   23.283047 H          1 MOL1         0.0753
      17    H11     19.480129   17.190589   22.591002 H          1 MOL1         0.0753
      18    C7      19.935551   17.530328   24.651010 C.2        1 MOL1         0.6174
      19    O1      19.613313   18.226348   25.593670 O.co2      1 MOL1        -0.6695
      20    O2      20.481694   16.450932   24.767263 O.co2      1 MOL1        -0.6695
@<TRIPOS>BOND
    1     1     2    1
    2     1     3    1
    3     1     4    2
    4     4     5    1
    5     4     6    1
    6     6     7    1
    7     6     8    1
    8     6     9    1
    9     9    10    1
   10     9    11    1
   11     9    12    1
   12    12    13    1
   13    12    14    1
   14    12    15    1
   15    15    16    1
   16    15    17    1
   17    15    18    1
   18    18    19    1
   19    18    20    2
@<TRIPOS>SUBSTRUCTURE
       1 MOL1            1 RESIDUE      1      MOL     
@<SCITEGIC>MOL_PROPERTY
VConf Rank
SciTegic.value.IntegerValue
59

@<SCITEGIC>MOL_PROPERTY
Conf_Id
SciTegic.value.IntegerValue
51

@<SCITEGIC>MOL_PROPERTY
Delta U+W
SciTegic.value.DoubleValue
1.709

@<SCITEGIC>MOL_PROPERTY
U+W
SciTegic.value.DoubleValue
-50.036

@<SCITEGIC>MOL_PROPERTY
Grad RMS
SciTegic.value.DoubleValue
0.000000

@<SCITEGIC>MOL_PROPERTY
U
SciTegic.value.DoubleValue
10.643

@<SCITEGIC>MOL_PROPERTY
W
SciTegic.value.DoubleValue
-60.679

@<SCITEGIC>MOL_PROPERTY
W(PB)
SciTegic.value.DoubleValue
-62.882

@<SCITEGIC>MOL_PROPERTY
W(SA)
SciTegic.value.DoubleValue
2.203

@<SCITEGIC>MOL_PROPERTY
Valence
SciTegic.value.DoubleValue
11.231

@<SCITEGIC>MOL_PROPERTY
Coulomb
SciTegic.value.DoubleValue
-1.077

@<SCITEGIC>MOL_PROPERTY
VdW
SciTegic.value.DoubleValue
0.489

@<SCITEGIC>MOL_PROPERTY
VdW6
SciTegic.value.DoubleValue
-7.546

@<SCITEGIC>MOL_PROPERTY
VdW12
SciTegic.value.DoubleValue
8.035

@<SCITEGIC>MOL_PROPERTY
Bond
SciTegic.value.DoubleValue
0.159

@<SCITEGIC>MOL_PROPERTY
Angle
SciTegic.value.DoubleValue
3.005

@<SCITEGIC>MOL_PROPERTY
Pdih
SciTegic.value.DoubleValue
8.065

@<SCITEGIC>MOL_PROPERTY
Idih
SciTegic.value.DoubleValue
0.002

@<SCITEGIC>MOL_PROPERTY
Tether
SciTegic.value.DoubleValue
0.000

@<TRIPOS>MOLECULE
guest-s22_confgen4.mol2 : confsearch ligand conformer 60
          20          19           1
SMALL
USER_CHARGES
 
@<TRIPOS>ATOM
       1    C1      21.250406   21.084399   20.759226 C.2        1 MOL1        -0.2535
       2    H1      21.247597   20.801166   19.707947 H          1 MOL1         0.0845
       3    H2      22.171392   21.499147   21.165168 H          1 MOL1         0.0845
       4    C2      20.167059   20.927387   21.524354 C.2        1 MOL1        -0.1324
       5    H3      20.186629   21.225158   22.572087 H          1 MOL1         0.0833
       6    C3      18.851592   20.369991   21.023897 C.3        1 MOL1        -0.1813
       7    H4      18.615944   20.845196   20.062099 H          1 MOL1         0.0753
       8    H5      18.035975   20.651970   21.703008 H          1 MOL1         0.0753
       9    C4      18.866232   18.834370   20.821842 C.3        1 MOL1        -0.1855
      10    H6      18.037830   18.575153   20.148573 H          1 MOL1         0.0755
      11    H7      19.784389   18.532895   20.299319 H          1 MOL1         0.0755
      12    C5      18.694883   18.003921   22.118800 C.3        1 MOL1        -0.1855
      13    H8      18.540356   16.953123   21.836959 H          1 MOL1         0.0755
      14    H9      17.783375   18.317836   22.645724 H          1 MOL1         0.0755
      15    C6      19.904067   18.076539   23.086204 C.3        1 MOL1        -0.1958
      16    H10     20.834059   17.855857   22.548863 H          1 MOL1         0.0753
      17    H11     20.000374   19.082365   23.507065 H          1 MOL1         0.0753
      18    C7      19.786520   17.101004   24.251595 C.2        1 MOL1         0.6174
      19    O1      19.211852   17.472701   25.255829 O.co2      1 MOL1        -0.6695
      20    O2      20.254712   15.987601   24.117381 O.co2      1 MOL1        -0.6695
@<TRIPOS>BOND
    1     1     2    1
    2     1     3    1
    3     1     4    2
    4     4     5    1
    5     4     6    1
    6     6     7    1
    7     6     8    1
    8     6     9    1
    9     9    10    1
   10     9    11    1
   11     9    12    1
   12    12    13    1
   13    12    14    1
   14    12    15    1
   15    15    16    1
   16    15    17    1
   17    15    18    1
   18    18    19    1
   19    18    20    2
@<TRIPOS>SUBSTRUCTURE
       1 MOL1            1 RESIDUE      1      MOL     
@<SCITEGIC>MOL_PROPERTY
VConf Rank
SciTegic.value.IntegerValue
60

@<SCITEGIC>MOL_PROPERTY
Conf_Id
SciTegic.value.IntegerValue
91

@<SCITEGIC>MOL_PROPERTY
Delta U+W
SciTegic.value.DoubleValue
1.604

@<SCITEGIC>MOL_PROPERTY
U+W
SciTegic.value.DoubleValue
-50.141

@<SCITEGIC>MOL_PROPERTY
Grad RMS
SciTegic.value.DoubleValue
0.000000

@<SCITEGIC>MOL_PROPERTY
U
SciTegic.value.DoubleValue
10.644

@<SCITEGIC>MOL_PROPERTY
W
SciTegic.value.DoubleValue
-60.786

@<SCITEGIC>MOL_PROPERTY
W(PB)
SciTegic.value.DoubleValue
-62.965

@<SCITEGIC>MOL_PROPERTY
W(SA)
SciTegic.value.DoubleValue
2.179

@<SCITEGIC>MOL_PROPERTY
Valence
SciTegic.value.DoubleValue
11.230

@<SCITEGIC>MOL_PROPERTY
Coulomb
SciTegic.value.DoubleValue
-1.075

@<SCITEGIC>MOL_PROPERTY
VdW
SciTegic.value.DoubleValue
0.489

@<SCITEGIC>MOL_PROPERTY
VdW6
SciTegic.value.DoubleValue
-7.547

@<SCITEGIC>MOL_PROPERTY
VdW12
SciTegic.value.DoubleValue
8.036

@<SCITEGIC>MOL_PROPERTY
Bond
SciTegic.value.DoubleValue
0.159

@<SCITEGIC>MOL_PROPERTY
Angle
SciTegic.value.DoubleValue
3.006

@<SCITEGIC>MOL_PROPERTY
Pdih
SciTegic.value.DoubleValue
8.064

@<SCITEGIC>MOL_PROPERTY
Idih
SciTegic.value.DoubleValue
0.002

@<SCITEGIC>MOL_PROPERTY
Tether
SciTegic.value.DoubleValue
0.000

@<TRIPOS>MOLECULE
guest-s22_confgen4.mol2 : confsearch ligand conformer 61
          20          19           1
SMALL
USER_CHARGES
 
@<TRIPOS>ATOM
       1    C1      16.133595   18.870094   21.525244 C.2        1 MOL1        -0.2535
       2    H1      16.154335   19.920087   21.237710 H          1 MOL1         0.0845
       3    H2      15.187175   18.466940   21.881659 H          1 MOL1         0.0845
       4    C2      17.224689   18.103832   21.447746 C.2        1 MOL1        -0.1324
       5    H3      17.182765   17.055138   21.741246 H          1 MOL1         0.0833
       6    C3      18.571217   18.592759   20.962510 C.3        1 MOL1        -0.1813
       7    H4      18.463319   19.559114   20.451314 H          1 MOL1         0.0753
       8    H5      18.973632   17.887477   20.223062 H          1 MOL1         0.0753
       9    C4      19.565776   18.738919   22.133135 C.3        1 MOL1        -0.1855
      10    H6      19.156631   19.442067   22.871761 H          1 MOL1         0.0755
      11    H7      19.676849   17.771113   22.641244 H          1 MOL1         0.0755
      12    C5      20.947842   19.234904   21.654587 C.3        1 MOL1        -0.1855
      13    H8      20.837623   20.203119   21.146694 H          1 MOL1         0.0755
      14    H9      21.357004   18.532747   20.914935 H          1 MOL1         0.0755
      15    C6      21.947596   19.382460   22.832346 C.3        1 MOL1        -0.1958
      16    H10     21.548379   20.086952   23.571421 H          1 MOL1         0.0753
      17    H11     22.067377   18.418176   23.340004 H          1 MOL1         0.0753
      18    C7      23.344420   19.870588   22.445140 C.2        1 MOL1         0.6174
      19    O1      24.155563   19.997189   23.340773 O.co2      1 MOL1        -0.6695
      20    O2      23.597288   20.112266   21.280538 O.co2      1 MOL1        -0.6695
@<TRIPOS>BOND
    1     1     2    1
    2     1     3    1
    3     1     4    2
    4     4     5    1
    5     4     6    1
    6     6     7    1
    7     6     8    1
    8     6     9    1
    9     9    10    1
   10     9    11    1
   11     9    12    1
   12    12    13    1
   13    12    14    1
   14    12    15    1
   15    15    16    1
   16    15    17    1
   17    15    18    1
   18    18    19    1
   19    18    20    2
@<TRIPOS>SUBSTRUCTURE
       1 MOL1            1 RESIDUE      1      MOL     
@<SCITEGIC>MOL_PROPERTY
VConf Rank
SciTegic.value.IntegerValue
61

@<SCITEGIC>MOL_PROPERTY
Conf_Id
SciTegic.value.IntegerValue
33

@<SCITEGIC>MOL_PROPERTY
Delta U+W
SciTegic.value.DoubleValue
0.000

@<SCITEGIC>MOL_PROPERTY
U+W
SciTegic.value.DoubleValue
-51.745

@<SCITEGIC>MOL_PROPERTY
Grad RMS
SciTegic.value.DoubleValue
0.000000

@<SCITEGIC>MOL_PROPERTY
U
SciTegic.value.DoubleValue
7.593

@<SCITEGIC>MOL_PROPERTY
W
SciTegic.value.DoubleValue
-59.338

@<SCITEGIC>MOL_PROPERTY
W(PB)
SciTegic.value.DoubleValue
-61.574

@<SCITEGIC>MOL_PROPERTY
W(SA)
SciTegic.value.DoubleValue
2.236

@<SCITEGIC>MOL_PROPERTY
Valence
SciTegic.value.DoubleValue
9.570

@<SCITEGIC>MOL_PROPERTY
Coulomb
SciTegic.value.DoubleValue
-3.091

@<SCITEGIC>MOL_PROPERTY
VdW
SciTegic.value.DoubleValue
1.114

@<SCITEGIC>MOL_PROPERTY
VdW6
SciTegic.value.DoubleValue
-6.064

@<SCITEGIC>MOL_PROPERTY
VdW12
SciTegic.value.DoubleValue
7.178

@<SCITEGIC>MOL_PROPERTY
Bond
SciTegic.value.DoubleValue
0.117

@<SCITEGIC>MOL_PROPERTY
Angle
SciTegic.value.DoubleValue
2.692

@<SCITEGIC>MOL_PROPERTY
Pdih
SciTegic.value.DoubleValue
6.761

@<SCITEGIC>MOL_PROPERTY
Idih
SciTegic.value.DoubleValue
0.000

@<SCITEGIC>MOL_PROPERTY
Tether
SciTegic.value.DoubleValue
0.000

@<TRIPOS>MOLECULE
guest-s22_confgen4.mol2 : confsearch ligand conformer 62
          20          19           1
SMALL
USER_CHARGES
 
@<TRIPOS>ATOM
       1    C1      16.846734   17.642764   20.169613 C.2        1 MOL1        -0.2535
       2    H1      16.613177   18.634374   19.785245 H          1 MOL1         0.0845
       3    H2      16.104075   16.860527   20.021893 H          1 MOL1         0.0845
       4    C2      17.996934   17.392130   20.800404 C.2        1 MOL1        -0.1324
       5    H3      18.210979   16.392655   21.178377 H          1 MOL1         0.0833
       6    C3      19.074430   18.425840   21.041591 C.3        1 MOL1        -0.1813
       7    H4      18.896948   19.311983   20.417213 H          1 MOL1         0.0753
       8    H5      20.044299   18.012354   20.737562 H          1 MOL1         0.0753
       9    C4      19.118690   18.844517   22.528386 C.3        1 MOL1        -0.1855
      10    H6      18.115901   19.175087   22.832490 H          1 MOL1         0.0755
      11    H7      19.359615   17.972032   23.151056 H          1 MOL1         0.0755
      12    C5      20.123317   19.984920   22.818877 C.3        1 MOL1        -0.1855
      13    H8      20.009779   20.295875   23.866689 H          1 MOL1         0.0755
      14    H9      19.875594   20.862992   22.206491 H          1 MOL1         0.0755
      15    C6      21.601631   19.584354   22.575758 C.3        1 MOL1        -0.1958
      16    H10     21.848902   18.683086   23.149306 H          1 MOL1         0.0753
      17    H11     21.770887   19.353996   21.517915 H          1 MOL1         0.0753
      18    C7      22.582230   20.681696   22.973546 C.2        1 MOL1         0.6174
      19    O1      22.884387   21.511465   22.138745 O.co2      1 MOL1        -0.6695
      20    O2      23.002857   20.689404   24.113610 O.co2      1 MOL1        -0.6695
@<TRIPOS>BOND
    1     1     2    1
    2     1     3    1
    3     1     4    2
    4     4     5    1
    5     4     6    1
    6     6     7    1
    7     6     8    1
    8     6     9    1
    9     9    10    1
   10     9    11    1
   11     9    12    1
   12    12    13    1
   13    12    14    1
   14    12    15    1
   15    15    16    1
   16    15    17    1
   17    15    18    1
   18    18    19    1
   19    18    20    2
@<TRIPOS>SUBSTRUCTURE
       1 MOL1            1 RESIDUE      1      MOL     
@<SCITEGIC>MOL_PROPERTY
VConf Rank
SciTegic.value.IntegerValue
62

@<SCITEGIC>MOL_PROPERTY
Conf_Id
SciTegic.value.IntegerValue
37

@<SCITEGIC>MOL_PROPERTY
Delta U+W
SciTegic.value.DoubleValue
-0.384

@<SCITEGIC>MOL_PROPERTY
U+W
SciTegic.value.DoubleValue
-52.130

@<SCITEGIC>MOL_PROPERTY
Grad RMS
SciTegic.value.DoubleValue
0.000000

@<SCITEGIC>MOL_PROPERTY
U
SciTegic.value.DoubleValue
7.491

@<SCITEGIC>MOL_PROPERTY
W
SciTegic.value.DoubleValue
-59.621

@<SCITEGIC>MOL_PROPERTY
W(PB)
SciTegic.value.DoubleValue
-61.853

@<SCITEGIC>MOL_PROPERTY
W(SA)
SciTegic.value.DoubleValue
2.232

@<SCITEGIC>MOL_PROPERTY
Valence
SciTegic.value.DoubleValue
9.604

@<SCITEGIC>MOL_PROPERTY
Coulomb
SciTegic.value.DoubleValue
-2.799

@<SCITEGIC>MOL_PROPERTY
VdW
SciTegic.value.DoubleValue
0.686

@<SCITEGIC>MOL_PROPERTY
VdW6
SciTegic.value.DoubleValue
-6.435

@<SCITEGIC>MOL_PROPERTY
VdW12
SciTegic.value.DoubleValue
7.121

@<SCITEGIC>MOL_PROPERTY
Bond
SciTegic.value.DoubleValue
0.124

@<SCITEGIC>MOL_PROPERTY
Angle
SciTegic.value.DoubleValue
2.493

@<SCITEGIC>MOL_PROPERTY
Pdih
SciTegic.value.DoubleValue
6.986

@<SCITEGIC>MOL_PROPERTY
Idih
SciTegic.value.DoubleValue
0.001

@<SCITEGIC>MOL_PROPERTY
Tether
SciTegic.value.DoubleValue
0.000

@<TRIPOS>MOLECULE
guest-s22_confgen4.mol2 : confsearch ligand conformer 63
          20          19           1
SMALL
USER_CHARGES
 
@<TRIPOS>ATOM
       1    C1      17.236591   17.015098   21.055098 C.2        1 MOL1        -0.2535
       2    H1      16.400988   16.366567   20.797482 H          1 MOL1         0.0845
       3    H2      17.952002   17.231263   20.264524 H          1 MOL1         0.0845
       4    C2      17.359773   17.512295   22.291033 C.2        1 MOL1        -0.1324
       5    H3      16.610511   17.259603   23.040953 H          1 MOL1         0.0833
       6    C3      18.464269   18.424911   22.797229 C.3        1 MOL1        -0.1813
       7    H4      18.951007   17.946150   23.657466 H          1 MOL1         0.0753
       8    H5      18.010038   19.345104   23.188450 H          1 MOL1         0.0753
       9    C4      19.538652   18.795932   21.748407 C.3        1 MOL1        -0.1855
      10    H6      20.011815   17.880229   21.368022 H          1 MOL1         0.0755
      11    H7      19.060633   19.294339   20.893904 H          1 MOL1         0.0755
      12    C5      20.621574   19.723329   22.341902 C.3        1 MOL1        -0.1855
      13    H8      21.103690   19.230323   23.197540 H          1 MOL1         0.0755
      14    H9      20.154447   20.641533   22.724393 H          1 MOL1         0.0755
      15    C6      21.698603   20.096313   21.293582 C.3        1 MOL1        -0.1958
      16    H10     22.184528   19.190693   20.911050 H          1 MOL1         0.0753
      17    H11     21.235220   20.601866   20.437840 H          1 MOL1         0.0753
      18    C7      22.779767   21.012196   21.855926 C.2        1 MOL1         0.6174
      19    O1      23.757938   20.500376   22.363734 O.co2      1 MOL1        -0.6695
      20    O2      22.606014   22.213024   21.789059 O.co2      1 MOL1        -0.6695
@<TRIPOS>BOND
    1     1     2    1
    2     1     3    1
    3     1     4    2
    4     4     5    1
    5     4     6    1
    6     6     7    1
    7     6     8    1
    8     6     9    1
    9     9    10    1
   10     9    11    1
   11     9    12    1
   12    12    13    1
   13    12    14    1
   14    12    15    1
   15    15    16    1
   16    15    17    1
   17    15    18    1
   18    18    19    1
   19    18    20    2
@<TRIPOS>SUBSTRUCTURE
       1 MOL1            1 RESIDUE      1      MOL     
@<SCITEGIC>MOL_PROPERTY
VConf Rank
SciTegic.value.IntegerValue
63

@<SCITEGIC>MOL_PROPERTY
Conf_Id
SciTegic.value.IntegerValue
44

@<SCITEGIC>MOL_PROPERTY
Delta U+W
SciTegic.value.DoubleValue
-1.440

@<SCITEGIC>MOL_PROPERTY
U+W
SciTegic.value.DoubleValue
-53.185

@<SCITEGIC>MOL_PROPERTY
Grad RMS
SciTegic.value.DoubleValue
0.000000

@<SCITEGIC>MOL_PROPERTY
U
SciTegic.value.DoubleValue
6.572

@<SCITEGIC>MOL_PROPERTY
W
SciTegic.value.DoubleValue
-59.757

@<SCITEGIC>MOL_PROPERTY
W(PB)
SciTegic.value.DoubleValue
-62.007

@<SCITEGIC>MOL_PROPERTY
W(SA)
SciTegic.value.DoubleValue
2.249

@<SCITEGIC>MOL_PROPERTY
Valence
SciTegic.value.DoubleValue
7.989

@<SCITEGIC>MOL_PROPERTY
Coulomb
SciTegic.value.DoubleValue
-2.697

@<SCITEGIC>MOL_PROPERTY
VdW
SciTegic.value.DoubleValue
1.281

@<SCITEGIC>MOL_PROPERTY
VdW6
SciTegic.value.DoubleValue
-6.467

@<SCITEGIC>MOL_PROPERTY
VdW12
SciTegic.value.DoubleValue
7.748

@<SCITEGIC>MOL_PROPERTY
Bond
SciTegic.value.DoubleValue
0.136

@<SCITEGIC>MOL_PROPERTY
Angle
SciTegic.value.DoubleValue
2.854

@<SCITEGIC>MOL_PROPERTY
Pdih
SciTegic.value.DoubleValue
4.997

@<SCITEGIC>MOL_PROPERTY
Idih
SciTegic.value.DoubleValue
0.001

@<SCITEGIC>MOL_PROPERTY
Tether
SciTegic.value.DoubleValue
0.000

@<TRIPOS>MOLECULE
guest-s22_confgen4.mol2 : confsearch ligand conformer 64
          20          19           1
SMALL
USER_CHARGES
 
@<TRIPOS>ATOM
       1    C1      20.047898   22.472824   22.454317 C.2        1 MOL1        -0.2535
       2    H1      19.672014   22.174027   23.431563 H          1 MOL1         0.0845
       3    H2      20.025959   23.534033   22.212225 H          1 MOL1         0.0845
       4    C2      20.515937   21.575664   21.582675 C.2        1 MOL1        -0.1324
       5    H3      20.887121   21.895764   20.609333 H          1 MOL1         0.0833
       6    C3      20.578901   20.087974   21.848592 C.3        1 MOL1        -0.1813
       7    H4      20.448076   19.895223   22.921127 H          1 MOL1         0.0753
       8    H5      21.573046   19.708754   21.576931 H          1 MOL1         0.0753
       9    C4      19.498136   19.333679   21.041780 C.3        1 MOL1        -0.1855
      10    H6      18.501467   19.675141   21.353625 H          1 MOL1         0.0755
      11    H7      19.597985   19.597964   19.980051 H          1 MOL1         0.0755
      12    C5      19.587875   17.794864   21.177119 C.3        1 MOL1        -0.1855
      13    H8      20.580945   17.450907   20.856372 H          1 MOL1         0.0755
      14    H9      18.864143   17.338102   20.487856 H          1 MOL1         0.0755
      15    C6      19.300462   17.281730   22.612091 C.3        1 MOL1        -0.1958
      16    H10     20.060286   17.645985   23.312583 H          1 MOL1         0.0753
      17    H11     18.330172   17.655356   22.960427 H          1 MOL1         0.0753
      18    C7      19.280559   15.759983   22.700532 C.2        1 MOL1         0.6174
      19    O1      18.222716   15.188864   22.522976 O.co2      1 MOL1        -0.6695
      20    O2      20.327085   15.184506   22.924860 O.co2      1 MOL1        -0.6695
@<TRIPOS>BOND
    1     1     2    1
    2     1     3    1
    3     1     4    2
    4     4     5    1
    5     4     6    1
    6     6     7    1
    7     6     8    1
    8     6     9    1
    9     9    10    1
   10     9    11    1
   11     9    12    1
   12    12    13    1
   13    12    14    1
   14    12    15    1
   15    15    16    1
   16    15    17    1
   17    15    18    1
   18    18    19    1
   19    18    20    2
@<TRIPOS>SUBSTRUCTURE
       1 MOL1            1 RESIDUE      1      MOL     
@<SCITEGIC>MOL_PROPERTY
VConf Rank
SciTegic.value.IntegerValue
64

@<SCITEGIC>MOL_PROPERTY
Conf_Id
SciTegic.value.IntegerValue
38

@<SCITEGIC>MOL_PROPERTY
Delta U+W
SciTegic.value.DoubleValue
-0.381

@<SCITEGIC>MOL_PROPERTY
U+W
SciTegic.value.DoubleValue
-52.126

@<SCITEGIC>MOL_PROPERTY
Grad RMS
SciTegic.value.DoubleValue
0.000000

@<SCITEGIC>MOL_PROPERTY
U
SciTegic.value.DoubleValue
7.601

@<SCITEGIC>MOL_PROPERTY
W
SciTegic.value.DoubleValue
-59.727

@<SCITEGIC>MOL_PROPERTY
W(PB)
SciTegic.value.DoubleValue
-61.964

@<SCITEGIC>MOL_PROPERTY
W(SA)
SciTegic.value.DoubleValue
2.236

@<SCITEGIC>MOL_PROPERTY
Valence
SciTegic.value.DoubleValue
9.602

@<SCITEGIC>MOL_PROPERTY
Coulomb
SciTegic.value.DoubleValue
-2.686

@<SCITEGIC>MOL_PROPERTY
VdW
SciTegic.value.DoubleValue
0.685

@<SCITEGIC>MOL_PROPERTY
VdW6
SciTegic.value.DoubleValue
-6.453

@<SCITEGIC>MOL_PROPERTY
VdW12
SciTegic.value.DoubleValue
7.139

@<SCITEGIC>MOL_PROPERTY
Bond
SciTegic.value.DoubleValue
0.125

@<SCITEGIC>MOL_PROPERTY
Angle
SciTegic.value.DoubleValue
2.485

@<SCITEGIC>MOL_PROPERTY
Pdih
SciTegic.value.DoubleValue
6.991

@<SCITEGIC>MOL_PROPERTY
Idih
SciTegic.value.DoubleValue
0.001

@<SCITEGIC>MOL_PROPERTY
Tether
SciTegic.value.DoubleValue
0.000

@<TRIPOS>MOLECULE
guest-s22_confgen4.mol2 : confsearch ligand conformer 65
          20          19           1
SMALL
USER_CHARGES
 
@<TRIPOS>ATOM
       1    C1      20.682424   17.410455   24.944888 C.2        1 MOL1        -0.2535
       2    H1      20.346543   16.461107   24.530762 H          1 MOL1         0.0845
       3    H2      21.418233   17.374966   25.746507 H          1 MOL1         0.0845
       4    C2      20.214496   18.575201   24.488735 C.2        1 MOL1        -0.1324
       5    H3      20.564526   19.514462   24.916434 H          1 MOL1         0.0833
       6    C3      19.193012   18.702996   23.380634 C.3        1 MOL1        -0.1813
       7    H4      18.396899   19.392202   23.692601 H          1 MOL1         0.0753
       8    H5      18.714680   17.732511   23.190637 H          1 MOL1         0.0753
       9    C4      19.843460   19.219365   22.080137 C.3        1 MOL1        -0.1855
      10    H6      20.319078   20.191112   22.272302 H          1 MOL1         0.0755
      11    H7      20.642385   18.530010   21.773903 H          1 MOL1         0.0755
      12    C5      18.812105   19.358619   20.937664 C.3        1 MOL1        -0.1855
      13    H8      18.016987   20.055798   21.236705 H          1 MOL1         0.0755
      14    H9      18.331158   18.386551   20.763432 H          1 MOL1         0.0755
      15    C6      19.452436   19.847797   19.612682 C.3        1 MOL1        -0.1958
      16    H10     20.267437   19.176831   19.315300 H          1 MOL1         0.0753
      17    H11     18.705617   19.815095   18.810704 H          1 MOL1         0.0753
      18    C7      19.993193   21.273491   19.674682 C.2        1 MOL1         0.6174
      19    O1      21.196256   21.430639   19.744787 O.co2      1 MOL1        -0.6695
      20    O2      19.195787   22.190025   19.639947 O.co2      1 MOL1        -0.6695
@<TRIPOS>BOND
    1     1     2    1
    2     1     3    1
    3     1     4    2
    4     4     5    1
    5     4     6    1
    6     6     7    1
    7     6     8    1
    8     6     9    1
    9     9    10    1
   10     9    11    1
   11     9    12    1
   12    12    13    1
   13    12    14    1
   14    12    15    1
   15    15    16    1
   16    15    17    1
   17    15    18    1
   18    18    19    1
   19    18    20    2
@<TRIPOS>SUBSTRUCTURE
       1 MOL1            1 RESIDUE      1      MOL     
@<SCITEGIC>MOL_PROPERTY
VConf Rank
SciTegic.value.IntegerValue
65

@<SCITEGIC>MOL_PROPERTY
Conf_Id
SciTegic.value.IntegerValue
58

@<SCITEGIC>MOL_PROPERTY
Delta U+W
SciTegic.value.DoubleValue
0.019

@<SCITEGIC>MOL_PROPERTY
U+W
SciTegic.value.DoubleValue
-51.727

@<SCITEGIC>MOL_PROPERTY
Grad RMS
SciTegic.value.DoubleValue
0.000000

@<SCITEGIC>MOL_PROPERTY
U
SciTegic.value.DoubleValue
8.963

@<SCITEGIC>MOL_PROPERTY
W
SciTegic.value.DoubleValue
-60.690

@<SCITEGIC>MOL_PROPERTY
W(PB)
SciTegic.value.DoubleValue
-62.934

@<SCITEGIC>MOL_PROPERTY
W(SA)
SciTegic.value.DoubleValue
2.244

@<SCITEGIC>MOL_PROPERTY
Valence
SciTegic.value.DoubleValue
9.327

@<SCITEGIC>MOL_PROPERTY
Coulomb
SciTegic.value.DoubleValue
-0.780

@<SCITEGIC>MOL_PROPERTY
VdW
SciTegic.value.DoubleValue
0.417

@<SCITEGIC>MOL_PROPERTY
VdW6
SciTegic.value.DoubleValue
-6.635

@<SCITEGIC>MOL_PROPERTY
VdW12
SciTegic.value.DoubleValue
7.052

@<SCITEGIC>MOL_PROPERTY
Bond
SciTegic.value.DoubleValue
0.105

@<SCITEGIC>MOL_PROPERTY
Angle
SciTegic.value.DoubleValue
2.399

@<SCITEGIC>MOL_PROPERTY
Pdih
SciTegic.value.DoubleValue
6.822

@<SCITEGIC>MOL_PROPERTY
Idih
SciTegic.value.DoubleValue
0.000

@<SCITEGIC>MOL_PROPERTY
Tether
SciTegic.value.DoubleValue
0.000

@<TRIPOS>MOLECULE
guest-s22_confgen4.mol2 : confsearch ligand conformer 66
          20          19           1
SMALL
USER_CHARGES
 
@<TRIPOS>ATOM
       1    C1      22.313459   18.787280   24.475931 C.2        1 MOL1        -0.2535
       2    H1      22.579825   17.802407   24.095600 H          1 MOL1         0.0845
       3    H2      22.591476   19.019829   25.502525 H          1 MOL1         0.0845
       4    C2      21.668642   19.677263   23.717111 C.2        1 MOL1        -0.1324
       5    H3      21.410416   20.657447   24.117382 H          1 MOL1         0.0833
       6    C3      21.251327   19.426247   22.285160 C.3        1 MOL1        -0.1813
       7    H4      21.765149   18.539716   21.889195 H          1 MOL1         0.0753
       8    H5      21.557465   20.275072   21.659140 H          1 MOL1         0.0753
       9    C4      19.724976   19.227702   22.176318 C.3        1 MOL1        -0.1855
      10    H6      19.421948   18.380899   22.807484 H          1 MOL1         0.0755
      11    H7      19.213512   20.116628   22.570839 H          1 MOL1         0.0755
      12    C5      19.281096   18.972918   20.718105 C.3        1 MOL1        -0.1855
      13    H8      19.808935   18.092379   20.327439 H          1 MOL1         0.0755
      14    H9      19.573288   19.823057   20.085980 H          1 MOL1         0.0755
      15    C6      17.753040   18.740500   20.591930 C.3        1 MOL1        -0.1958
      16    H10     17.510380   18.448726   19.563357 H          1 MOL1         0.0753
      17    H11     17.441043   17.911869   21.239146 H          1 MOL1         0.0753
      18    C7      16.909429   19.966577   20.929454 C.2        1 MOL1         0.6174
      19    O1      16.851102   20.863845   20.111773 O.co2      1 MOL1        -0.6695
      20    O2      16.324578   19.987838   21.994568 O.co2      1 MOL1        -0.6695
@<TRIPOS>BOND
    1     1     2    1
    2     1     3    1
    3     1     4    2
    4     4     5    1
    5     4     6    1
    6     6     7    1
    7     6     8    1
    8     6     9    1
    9     9    10    1
   10     9    11    1
   11     9    12    1
   12    12    13    1
   13    12    14    1
   14    12    15    1
   15    15    16    1
   16    15    17    1
   17    15    18    1
   18    18    19    1
   19    18    20    2
@<TRIPOS>SUBSTRUCTURE
       1 MOL1            1 RESIDUE      1      MOL     
@<SCITEGIC>MOL_PROPERTY
VConf Rank
SciTegic.value.IntegerValue
66

@<SCITEGIC>MOL_PROPERTY
Conf_Id
SciTegic.value.IntegerValue
54

@<SCITEGIC>MOL_PROPERTY
Delta U+W
SciTegic.value.DoubleValue
-0.048

@<SCITEGIC>MOL_PROPERTY
U+W
SciTegic.value.DoubleValue
-51.793

@<SCITEGIC>MOL_PROPERTY
Grad RMS
SciTegic.value.DoubleValue
0.000000

@<SCITEGIC>MOL_PROPERTY
U
SciTegic.value.DoubleValue
8.964

@<SCITEGIC>MOL_PROPERTY
W
SciTegic.value.DoubleValue
-60.756

@<SCITEGIC>MOL_PROPERTY
W(PB)
SciTegic.value.DoubleValue
-63.007

@<SCITEGIC>MOL_PROPERTY
W(SA)
SciTegic.value.DoubleValue
2.251

@<SCITEGIC>MOL_PROPERTY
Valence
SciTegic.value.DoubleValue
9.327

@<SCITEGIC>MOL_PROPERTY
Coulomb
SciTegic.value.DoubleValue
-0.780

@<SCITEGIC>MOL_PROPERTY
VdW
SciTegic.value.DoubleValue
0.417

@<SCITEGIC>MOL_PROPERTY
VdW6
SciTegic.value.DoubleValue
-6.635

@<SCITEGIC>MOL_PROPERTY
VdW12
SciTegic.value.DoubleValue
7.052

@<SCITEGIC>MOL_PROPERTY
Bond
SciTegic.value.DoubleValue
0.105

@<SCITEGIC>MOL_PROPERTY
Angle
SciTegic.value.DoubleValue
2.399

@<SCITEGIC>MOL_PROPERTY
Pdih
SciTegic.value.DoubleValue
6.822

@<SCITEGIC>MOL_PROPERTY
Idih
SciTegic.value.DoubleValue
0.000

@<SCITEGIC>MOL_PROPERTY
Tether
SciTegic.value.DoubleValue
0.000

@<TRIPOS>MOLECULE
guest-s22_confgen4.mol2 : confsearch ligand conformer 67
          20          19           1
SMALL
USER_CHARGES
 
@<TRIPOS>ATOM
       1    C1      17.595483   20.069446   19.612988 C.2        1 MOL1        -0.2535
       2    H1      17.568278   20.915517   18.928436 H          1 MOL1         0.0845
       3    H2      17.240062   19.110585   19.239131 H          1 MOL1         0.0845
       4    C2      18.050703   20.205868   20.861121 C.2        1 MOL1        -0.1324
       5    H3      18.398530   21.175499   21.216204 H          1 MOL1         0.0833
       6    C3      18.111537   19.077884   21.868989 C.3        1 MOL1        -0.1813
       7    H4      17.428984   18.272827   21.564791 H          1 MOL1         0.0753
       8    H5      17.755281   19.429499   22.846483 H          1 MOL1         0.0753
       9    C4      19.534356   18.492069   22.012530 C.3        1 MOL1        -0.1855
      10    H6      19.483161   17.596747   22.647164 H          1 MOL1         0.0755
      11    H7      19.892923   18.158134   21.029140 H          1 MOL1         0.0755
      12    C5      20.540022   19.496695   22.623648 C.3        1 MOL1        -0.1855
      13    H8      20.174458   19.841980   23.600673 H          1 MOL1         0.0755
      14    H9      20.609052   20.383644   21.980179 H          1 MOL1         0.0755
      15    C6      21.958630   18.892547   22.790195 C.3        1 MOL1        -0.1958
      16    H10     22.323651   18.512536   21.828331 H          1 MOL1         0.0753
      17    H11     22.655926   19.677068   23.106835 H          1 MOL1         0.0753
      18    C7      22.038172   17.769221   23.820072 C.2        1 MOL1         0.6174
      19    O1      22.126247   16.625324   23.419084 O.co2      1 MOL1        -0.6695
      20    O2      22.020745   18.069872   24.997535 O.co2      1 MOL1        -0.6695
@<TRIPOS>BOND
    1     1     2    1
    2     1     3    1
    3     1     4    2
    4     4     5    1
    5     4     6    1
    6     6     7    1
    7     6     8    1
    8     6     9    1
    9     9    10    1
   10     9    11    1
   11     9    12    1
   12    12    13    1
   13    12    14    1
   14    12    15    1
   15    15    16    1
   16    15    17    1
   17    15    18    1
   18    18    19    1
   19    18    20    2
@<TRIPOS>SUBSTRUCTURE
       1 MOL1            1 RESIDUE      1      MOL     
@<SCITEGIC>MOL_PROPERTY
VConf Rank
SciTegic.value.IntegerValue
67

@<SCITEGIC>MOL_PROPERTY
Conf_Id
SciTegic.value.IntegerValue
27

@<SCITEGIC>MOL_PROPERTY
Delta U+W
SciTegic.value.DoubleValue
0.478

@<SCITEGIC>MOL_PROPERTY
U+W
SciTegic.value.DoubleValue
-51.267

@<SCITEGIC>MOL_PROPERTY
Grad RMS
SciTegic.value.DoubleValue
0.000000

@<SCITEGIC>MOL_PROPERTY
U
SciTegic.value.DoubleValue
9.192

@<SCITEGIC>MOL_PROPERTY
W
SciTegic.value.DoubleValue
-60.459

@<SCITEGIC>MOL_PROPERTY
W(PB)
SciTegic.value.DoubleValue
-62.649

@<SCITEGIC>MOL_PROPERTY
W(SA)
SciTegic.value.DoubleValue
2.190

@<SCITEGIC>MOL_PROPERTY
Valence
SciTegic.value.DoubleValue
9.572

@<SCITEGIC>MOL_PROPERTY
Coulomb
SciTegic.value.DoubleValue
-0.884

@<SCITEGIC>MOL_PROPERTY
VdW
SciTegic.value.DoubleValue
0.504

@<SCITEGIC>MOL_PROPERTY
VdW6
SciTegic.value.DoubleValue
-7.168

@<SCITEGIC>MOL_PROPERTY
VdW12
SciTegic.value.DoubleValue
7.672

@<SCITEGIC>MOL_PROPERTY
Bond
SciTegic.value.DoubleValue
0.127

@<SCITEGIC>MOL_PROPERTY
Angle
SciTegic.value.DoubleValue
2.504

@<SCITEGIC>MOL_PROPERTY
Pdih
SciTegic.value.DoubleValue
6.941

@<SCITEGIC>MOL_PROPERTY
Idih
SciTegic.value.DoubleValue
0.001

@<SCITEGIC>MOL_PROPERTY
Tether
SciTegic.value.DoubleValue
0.000

@<TRIPOS>MOLECULE
guest-s22_confgen4.mol2 : confsearch ligand conformer 68
          20          19           1
SMALL
USER_CHARGES
 
@<TRIPOS>ATOM
       1    C1      19.060435   17.149889   19.084700 C.2        1 MOL1        -0.2535
       2    H1      17.977918   17.091744   18.983294 H          1 MOL1         0.0845
       3    H2      19.648997   16.347951   18.642334 H          1 MOL1         0.0845
       4    C2      19.647165   18.162145   19.728723 C.2        1 MOL1        -0.1324
       5    H3      20.732549   18.202468   19.815944 H          1 MOL1         0.0833
       6    C3      18.895107   19.313240   20.362115 C.3        1 MOL1        -0.1813
       7    H4      17.887408   19.379578   19.930029 H          1 MOL1         0.0753
       8    H5      19.394288   20.262155   20.124544 H          1 MOL1         0.0753
       9    C4      18.767636   19.160256   21.894566 C.3        1 MOL1        -0.1855
      10    H6      18.104391   19.949224   22.274718 H          1 MOL1         0.0755
      11    H7      18.281915   18.202313   22.126354 H          1 MOL1         0.0755
      12    C5      20.128661   19.247253   22.622635 C.3        1 MOL1        -0.1855
      13    H8      20.624726   20.194391   22.369241 H          1 MOL1         0.0755
      14    H9      20.789391   18.439135   22.280490 H          1 MOL1         0.0755
      15    C6      19.966124   19.150270   24.159592 C.3        1 MOL1        -0.1958
      16    H10     19.322219   19.959404   24.524593 H          1 MOL1         0.0753
      17    H11     19.482691   18.203781   24.429887 H          1 MOL1         0.0753
      18    C7      21.295383   19.232164   24.901488 C.2        1 MOL1         0.6174
      19    O1      21.893255   18.197800   25.123529 O.co2      1 MOL1        -0.6695
      20    O2      21.706408   20.329823   25.222273 O.co2      1 MOL1        -0.6695
@<TRIPOS>BOND
    1     1     2    1
    2     1     3    1
    3     1     4    2
    4     4     5    1
    5     4     6    1
    6     6     7    1
    7     6     8    1
    8     6     9    1
    9     9    10    1
   10     9    11    1
   11     9    12    1
   12    12    13    1
   13    12    14    1
   14    12    15    1
   15    15    16    1
   16    15    17    1
   17    15    18    1
   18    18    19    1
   19    18    20    2
@<TRIPOS>SUBSTRUCTURE
       1 MOL1            1 RESIDUE      1      MOL     
@<SCITEGIC>MOL_PROPERTY
VConf Rank
SciTegic.value.IntegerValue
68

@<SCITEGIC>MOL_PROPERTY
Conf_Id
SciTegic.value.IntegerValue
41

@<SCITEGIC>MOL_PROPERTY
Delta U+W
SciTegic.value.DoubleValue
-0.634

@<SCITEGIC>MOL_PROPERTY
U+W
SciTegic.value.DoubleValue
-52.379

@<SCITEGIC>MOL_PROPERTY
Grad RMS
SciTegic.value.DoubleValue
0.000000

@<SCITEGIC>MOL_PROPERTY
U
SciTegic.value.DoubleValue
7.828

@<SCITEGIC>MOL_PROPERTY
W
SciTegic.value.DoubleValue
-60.207

@<SCITEGIC>MOL_PROPERTY
W(PB)
SciTegic.value.DoubleValue
-62.449

@<SCITEGIC>MOL_PROPERTY
W(SA)
SciTegic.value.DoubleValue
2.242

@<SCITEGIC>MOL_PROPERTY
Valence
SciTegic.value.DoubleValue
9.300

@<SCITEGIC>MOL_PROPERTY
Coulomb
SciTegic.value.DoubleValue
-2.080

@<SCITEGIC>MOL_PROPERTY
VdW
SciTegic.value.DoubleValue
0.608

@<SCITEGIC>MOL_PROPERTY
VdW6
SciTegic.value.DoubleValue
-6.341

@<SCITEGIC>MOL_PROPERTY
VdW12
SciTegic.value.DoubleValue
6.949

@<SCITEGIC>MOL_PROPERTY
Bond
SciTegic.value.DoubleValue
0.103

@<SCITEGIC>MOL_PROPERTY
Angle
SciTegic.value.DoubleValue
2.334

@<SCITEGIC>MOL_PROPERTY
Pdih
SciTegic.value.DoubleValue
6.862

@<SCITEGIC>MOL_PROPERTY
Idih
SciTegic.value.DoubleValue
0.001

@<SCITEGIC>MOL_PROPERTY
Tether
SciTegic.value.DoubleValue
0.000

@<TRIPOS>MOLECULE
guest-s22_confgen4.mol2 : confsearch ligand conformer 69
          20          19           1
SMALL
USER_CHARGES
 
@<TRIPOS>ATOM
       1    C1      17.042922   17.014748   22.193916 C.2        1 MOL1        -0.2535
       2    H1      15.954822   17.025813   22.159941 H          1 MOL1         0.0845
       3    H2      17.541604   16.072596   21.972062 H          1 MOL1         0.0845
       4    C2      17.735244   18.116663   22.494233 C.2        1 MOL1        -0.1324
       5    H3      17.217154   19.050238   22.712602 H          1 MOL1         0.0833
       6    C3      19.244987   18.177673   22.561697 C.3        1 MOL1        -0.1813
       7    H4      19.665853   17.163449   22.586094 H          1 MOL1         0.0753
       8    H5      19.543423   18.669847   23.496392 H          1 MOL1         0.0753
       9    C4      19.823600   18.947766   21.353665 C.3        1 MOL1        -0.1855
      10    H6      19.433236   18.501384   20.428723 H          1 MOL1         0.0755
      11    H7      19.461835   19.985095   21.371908 H          1 MOL1         0.0755
      12    C5      21.370962   18.932219   21.293490 C.3        1 MOL1        -0.1855
      13    H8      21.693894   19.431591   20.369516 H          1 MOL1         0.0755
      14    H9      21.719636   17.893304   21.219398 H          1 MOL1         0.0755
      15    C6      22.067592   19.618209   22.500364 C.3        1 MOL1        -0.1958
      16    H10     21.826237   19.097591   23.434018 H          1 MOL1         0.0753
      17    H11     23.154871   19.548828   22.379051 H          1 MOL1         0.0753
      18    C7      21.722409   21.095923   22.661444 C.2        1 MOL1         0.6174
      19    O1      22.185866   21.882695   21.859196 O.co2      1 MOL1        -0.6695
      20    O2      21.015056   21.423944   23.593650 O.co2      1 MOL1        -0.6695
@<TRIPOS>BOND
    1     1     2    1
    2     1     3    1
    3     1     4    2
    4     4     5    1
    5     4     6    1
    6     6     7    1
    7     6     8    1
    8     6     9    1
    9     9    10    1
   10     9    11    1
   11     9    12    1
   12    12    13    1
   13    12    14    1
   14    12    15    1
   15    15    16    1
   16    15    17    1
   17    15    18    1
   18    18    19    1
   19    18    20    2
@<TRIPOS>SUBSTRUCTURE
       1 MOL1            1 RESIDUE      1      MOL     
@<SCITEGIC>MOL_PROPERTY
VConf Rank
SciTegic.value.IntegerValue
69

@<SCITEGIC>MOL_PROPERTY
Conf_Id
SciTegic.value.IntegerValue
84

@<SCITEGIC>MOL_PROPERTY
Delta U+W
SciTegic.value.DoubleValue
0.942

@<SCITEGIC>MOL_PROPERTY
U+W
SciTegic.value.DoubleValue
-50.803

@<SCITEGIC>MOL_PROPERTY
Grad RMS
SciTegic.value.DoubleValue
0.000000

@<SCITEGIC>MOL_PROPERTY
U
SciTegic.value.DoubleValue
10.196

@<SCITEGIC>MOL_PROPERTY
W
SciTegic.value.DoubleValue
-60.999

@<SCITEGIC>MOL_PROPERTY
W(PB)
SciTegic.value.DoubleValue
-63.182

@<SCITEGIC>MOL_PROPERTY
W(SA)
SciTegic.value.DoubleValue
2.182

@<SCITEGIC>MOL_PROPERTY
Valence
SciTegic.value.DoubleValue
9.837

@<SCITEGIC>MOL_PROPERTY
Coulomb
SciTegic.value.DoubleValue
0.032

@<SCITEGIC>MOL_PROPERTY
VdW
SciTegic.value.DoubleValue
0.328

@<SCITEGIC>MOL_PROPERTY
VdW6
SciTegic.value.DoubleValue
-7.642

@<SCITEGIC>MOL_PROPERTY
VdW12
SciTegic.value.DoubleValue
7.969

@<SCITEGIC>MOL_PROPERTY
Bond
SciTegic.value.DoubleValue
0.151

@<SCITEGIC>MOL_PROPERTY
Angle
SciTegic.value.DoubleValue
2.748

@<SCITEGIC>MOL_PROPERTY
Pdih
SciTegic.value.DoubleValue
6.937

@<SCITEGIC>MOL_PROPERTY
Idih
SciTegic.value.DoubleValue
0.001

@<SCITEGIC>MOL_PROPERTY
Tether
SciTegic.value.DoubleValue
0.000

@<TRIPOS>MOLECULE
guest-s22_confgen4.mol2 : confsearch ligand conformer 70
          20          19           1
SMALL
USER_CHARGES
 
@<TRIPOS>ATOM
       1    C1      20.035949   21.537787   24.644503 C.2        1 MOL1        -0.2535
       2    H1      19.531097   22.168048   25.374679 H          1 MOL1         0.0845
       3    H2      20.877842   20.942121   24.993761 H          1 MOL1         0.0845
       4    C2      19.633474   21.497901   23.371677 C.2        1 MOL1        -0.1324
       5    H3      18.787830   22.101440   23.042645 H          1 MOL1         0.0833
       6    C3      20.284855   20.648891   22.302776 C.3        1 MOL1        -0.1813
       7    H4      21.261687   20.284731   22.649152 H          1 MOL1         0.0753
       8    H5      20.473940   21.261982   21.411457 H          1 MOL1         0.0753
       9    C4      19.393431   19.447247   21.925316 C.3        1 MOL1        -0.1855
      10    H6      19.203143   18.842035   22.822638 H          1 MOL1         0.0755
      11    H7      18.417689   19.810831   21.574910 H          1 MOL1         0.0755
      12    C5      20.043615   18.570887   20.830972 C.3        1 MOL1        -0.1855
      13    H8      21.013754   18.193866   21.183672 H          1 MOL1         0.0755
      14    H9      20.247385   19.188525   19.945777 H          1 MOL1         0.0755
      15    C6      19.148539   17.374877   20.414698 C.3        1 MOL1        -0.1958
      16    H10     18.165822   17.733574   20.085373 H          1 MOL1         0.0753
      17    H11     19.600936   16.858689   19.559792 H          1 MOL1         0.0753
      18    C7      18.944862   16.339438   21.517093 C.2        1 MOL1         0.6174
      19    O1      17.872104   16.308880   22.087381 O.co2      1 MOL1        -0.6695
      20    O2      19.861621   15.581664   21.766970 O.co2      1 MOL1        -0.6695
@<TRIPOS>BOND
    1     1     2    1
    2     1     3    1
    3     1     4    2
    4     4     5    1
    5     4     6    1
    6     6     7    1
    7     6     8    1
    8     6     9    1
    9     9    10    1
   10     9    11    1
   11     9    12    1
   12    12    13    1
   13    12    14    1
   14    12    15    1
   15    15    16    1
   16    15    17    1
   17    15    18    1
   18    18    19    1
   19    18    20    2
@<TRIPOS>SUBSTRUCTURE
       1 MOL1            1 RESIDUE      1      MOL     
@<SCITEGIC>MOL_PROPERTY
VConf Rank
SciTegic.value.IntegerValue
70

@<SCITEGIC>MOL_PROPERTY
Conf_Id
SciTegic.value.IntegerValue
81

@<SCITEGIC>MOL_PROPERTY
Delta U+W
SciTegic.value.DoubleValue
-0.051

@<SCITEGIC>MOL_PROPERTY
U+W
SciTegic.value.DoubleValue
-51.796

@<SCITEGIC>MOL_PROPERTY
Grad RMS
SciTegic.value.DoubleValue
0.000000

@<SCITEGIC>MOL_PROPERTY
U
SciTegic.value.DoubleValue
9.412

@<SCITEGIC>MOL_PROPERTY
W
SciTegic.value.DoubleValue
-61.209

@<SCITEGIC>MOL_PROPERTY
W(PB)
SciTegic.value.DoubleValue
-63.452

@<SCITEGIC>MOL_PROPERTY
W(SA)
SciTegic.value.DoubleValue
2.243

@<SCITEGIC>MOL_PROPERTY
Valence
SciTegic.value.DoubleValue
9.329

@<SCITEGIC>MOL_PROPERTY
Coulomb
SciTegic.value.DoubleValue
-0.323

@<SCITEGIC>MOL_PROPERTY
VdW
SciTegic.value.DoubleValue
0.406

@<SCITEGIC>MOL_PROPERTY
VdW6
SciTegic.value.DoubleValue
-6.640

@<SCITEGIC>MOL_PROPERTY
VdW12
SciTegic.value.DoubleValue
7.046

@<SCITEGIC>MOL_PROPERTY
Bond
SciTegic.value.DoubleValue
0.105

@<SCITEGIC>MOL_PROPERTY
Angle
SciTegic.value.DoubleValue
2.401

@<SCITEGIC>MOL_PROPERTY
Pdih
SciTegic.value.DoubleValue
6.823

@<SCITEGIC>MOL_PROPERTY
Idih
SciTegic.value.DoubleValue
0.000

@<SCITEGIC>MOL_PROPERTY
Tether
SciTegic.value.DoubleValue
0.000

@<TRIPOS>MOLECULE
guest-s22_confgen4.mol2 : confsearch ligand conformer 71
          20          19           1
SMALL
USER_CHARGES
 
@<TRIPOS>ATOM
       1    C1      19.244438   22.289618   22.307041 C.2        1 MOL1        -0.2535
       2    H1      18.229827   22.461518   22.662674 H          1 MOL1         0.0845
       3    H2      19.946248   23.119164   22.373824 H          1 MOL1         0.0845
       4    C2      19.618300   21.107638   21.810223 C.2        1 MOL1        -0.1324
       5    H3      20.638157   20.957135   21.457426 H          1 MOL1         0.0833
       6    C3      18.698287   19.912443   21.681341 C.3        1 MOL1        -0.1813
       7    H4      18.823923   19.444907   20.696172 H          1 MOL1         0.0753
       8    H5      17.652192   20.244279   21.723599 H          1 MOL1         0.0753
       9    C4      18.927159   18.866992   22.799088 C.3        1 MOL1        -0.1855
      10    H6      18.711369   19.334127   23.769683 H          1 MOL1         0.0755
      11    H7      18.195649   18.055619   22.682737 H          1 MOL1         0.0755
      12    C5      20.355495   18.265186   22.841221 C.3        1 MOL1        -0.1855
      13    H8      20.415723   17.560704   23.682208 H          1 MOL1         0.0755
      14    H9      21.081581   19.059715   23.058518 H          1 MOL1         0.0755
      15    C6      20.780626   17.527282   21.542394 C.3        1 MOL1        -0.1958
      16    H10     20.804681   18.220985   20.694315 H          1 MOL1         0.0753
      17    H11     21.801368   17.145226   21.659549 H          1 MOL1         0.0753
      18    C7      19.890562   16.342060   21.179654 C.2        1 MOL1         0.6174
      19    O1      19.149130   16.449658   20.222687 O.co2      1 MOL1        -0.6695
      20    O2      19.975514   15.334784   21.854663 O.co2      1 MOL1        -0.6695
@<TRIPOS>BOND
    1     1     2    1
    2     1     3    1
    3     1     4    2
    4     4     5    1
    5     4     6    1
    6     6     7    1
    7     6     8    1
    8     6     9    1
    9     9    10    1
   10     9    11    1
   11     9    12    1
   12    12    13    1
   13    12    14    1
   14    12    15    1
   15    15    16    1
   16    15    17    1
   17    15    18    1
   18    18    19    1
   19    18    20    2
@<TRIPOS>SUBSTRUCTURE
       1 MOL1            1 RESIDUE      1      MOL     
@<SCITEGIC>MOL_PROPERTY
VConf Rank
SciTegic.value.IntegerValue
71

@<SCITEGIC>MOL_PROPERTY
Conf_Id
SciTegic.value.IntegerValue
86

@<SCITEGIC>MOL_PROPERTY
Delta U+W
SciTegic.value.DoubleValue
1.248

@<SCITEGIC>MOL_PROPERTY
U+W
SciTegic.value.DoubleValue
-50.498

@<SCITEGIC>MOL_PROPERTY
Grad RMS
SciTegic.value.DoubleValue
0.000000

@<SCITEGIC>MOL_PROPERTY
U
SciTegic.value.DoubleValue
10.404

@<SCITEGIC>MOL_PROPERTY
W
SciTegic.value.DoubleValue
-60.901

@<SCITEGIC>MOL_PROPERTY
W(PB)
SciTegic.value.DoubleValue
-63.061

@<SCITEGIC>MOL_PROPERTY
W(SA)
SciTegic.value.DoubleValue
2.159

@<SCITEGIC>MOL_PROPERTY
Valence
SciTegic.value.DoubleValue
10.021

@<SCITEGIC>MOL_PROPERTY
Coulomb
SciTegic.value.DoubleValue
0.094

@<SCITEGIC>MOL_PROPERTY
VdW
SciTegic.value.DoubleValue
0.289

@<SCITEGIC>MOL_PROPERTY
VdW6
SciTegic.value.DoubleValue
-8.409

@<SCITEGIC>MOL_PROPERTY
VdW12
SciTegic.value.DoubleValue
8.698

@<SCITEGIC>MOL_PROPERTY
Bond
SciTegic.value.DoubleValue
0.179

@<SCITEGIC>MOL_PROPERTY
Angle
SciTegic.value.DoubleValue
2.939

@<SCITEGIC>MOL_PROPERTY
Pdih
SciTegic.value.DoubleValue
6.902

@<SCITEGIC>MOL_PROPERTY
Idih
SciTegic.value.DoubleValue
0.001

@<SCITEGIC>MOL_PROPERTY
Tether
SciTegic.value.DoubleValue
0.000

@<TRIPOS>MOLECULE
guest-s22_confgen4.mol2 : confsearch ligand conformer 72
          20          19           1
SMALL
USER_CHARGES
 
@<TRIPOS>ATOM
       1    C1      18.782617   21.275492   23.968174 C.2        1 MOL1        -0.2535
       2    H1      18.862780   22.353977   24.092868 H          1 MOL1         0.0845
       3    H2      17.783267   20.855606   23.866110 H          1 MOL1         0.0845
       4    C2      19.870614   20.501280   23.938444 C.2        1 MOL1        -0.1324
       5    H3      20.862076   20.941789   24.040158 H          1 MOL1         0.0833
       6    C3      19.838551   18.997263   23.768275 C.3        1 MOL1        -0.1813
       7    H4      18.813552   18.617339   23.876421 H          1 MOL1         0.0753
       8    H5      20.427040   18.533074   24.570789 H          1 MOL1         0.0753
       9    C4      20.413496   18.548699   22.405818 C.3        1 MOL1        -0.1855
      10    H6      21.437259   18.931568   22.295166 H          1 MOL1         0.0755
      11    H7      20.486943   17.452545   22.397954 H          1 MOL1         0.0755
      12    C5      19.548137   19.013547   21.210549 C.3        1 MOL1        -0.1855
      13    H8      19.479518   20.109609   21.213215 H          1 MOL1         0.0755
      14    H9      18.523329   18.633603   21.323528 H          1 MOL1         0.0755
      15    C6      20.120266   18.552488   19.844853 C.3        1 MOL1        -0.1958
      16    H10     19.542215   19.009007   19.032825 H          1 MOL1         0.0753
      17    H11     21.154864   18.898245   19.731557 H          1 MOL1         0.0753
      18    C7      20.085662   17.041256   19.635798 C.2        1 MOL1         0.6174
      19    O1      19.019248   16.525044   19.364846 O.co2      1 MOL1        -0.6695
      20    O2      21.126274   16.421727   19.737767 O.co2      1 MOL1        -0.6695
@<TRIPOS>BOND
    1     1     2    1
    2     1     3    1
    3     1     4    2
    4     4     5    1
    5     4     6    1
    6     6     7    1
    7     6     8    1
    8     6     9    1
    9     9    10    1
   10     9    11    1
   11     9    12    1
   12    12    13    1
   13    12    14    1
   14    12    15    1
   15    15    16    1
   16    15    17    1
   17    15    18    1
   18    18    19    1
   19    18    20    2
@<TRIPOS>SUBSTRUCTURE
       1 MOL1            1 RESIDUE      1      MOL     
@<SCITEGIC>MOL_PROPERTY
VConf Rank
SciTegic.value.IntegerValue
72

@<SCITEGIC>MOL_PROPERTY
Conf_Id
SciTegic.value.IntegerValue
28

@<SCITEGIC>MOL_PROPERTY
Delta U+W
SciTegic.value.DoubleValue
0.446

@<SCITEGIC>MOL_PROPERTY
U+W
SciTegic.value.DoubleValue
-51.299

@<SCITEGIC>MOL_PROPERTY
Grad RMS
SciTegic.value.DoubleValue
0.000000

@<SCITEGIC>MOL_PROPERTY
U
SciTegic.value.DoubleValue
9.295

@<SCITEGIC>MOL_PROPERTY
W
SciTegic.value.DoubleValue
-60.594

@<SCITEGIC>MOL_PROPERTY
W(PB)
SciTegic.value.DoubleValue
-62.806

@<SCITEGIC>MOL_PROPERTY
W(SA)
SciTegic.value.DoubleValue
2.212

@<SCITEGIC>MOL_PROPERTY
Valence
SciTegic.value.DoubleValue
9.495

@<SCITEGIC>MOL_PROPERTY
Coulomb
SciTegic.value.DoubleValue
-0.610

@<SCITEGIC>MOL_PROPERTY
VdW
SciTegic.value.DoubleValue
0.409

@<SCITEGIC>MOL_PROPERTY
VdW6
SciTegic.value.DoubleValue
-7.332

@<SCITEGIC>MOL_PROPERTY
VdW12
SciTegic.value.DoubleValue
7.741

@<SCITEGIC>MOL_PROPERTY
Bond
SciTegic.value.DoubleValue
0.126

@<SCITEGIC>MOL_PROPERTY
Angle
SciTegic.value.DoubleValue
2.497

@<SCITEGIC>MOL_PROPERTY
Pdih
SciTegic.value.DoubleValue
6.872

@<SCITEGIC>MOL_PROPERTY
Idih
SciTegic.value.DoubleValue
0.000

@<SCITEGIC>MOL_PROPERTY
Tether
SciTegic.value.DoubleValue
0.000

@<TRIPOS>MOLECULE
guest-s22_confgen4.mol2 : confsearch ligand conformer 73
          20          19           1
SMALL
USER_CHARGES
 
@<TRIPOS>ATOM
       1    C1      16.854428   20.155575   22.690575 C.2        1 MOL1        -0.2535
       2    H1      17.469900   20.555967   23.493305 H          1 MOL1         0.0845
       3    H2      15.819771   20.491748   22.650402 H          1 MOL1         0.0845
       4    C2      17.328446   19.293418   21.783951 C.2        1 MOL1        -0.1324
       5    H3      16.663568   18.928936   21.001244 H          1 MOL1         0.0833
       6    C3      18.739982   18.735073   21.711352 C.3        1 MOL1        -0.1813
       7    H4      19.187186   19.047381   20.758917 H          1 MOL1         0.0753
       8    H5      18.682389   17.639284   21.670314 H          1 MOL1         0.0753
       9    C4      19.666439   19.147084   22.882046 C.3        1 MOL1        -0.1855
      10    H6      19.802913   20.237285   22.878658 H          1 MOL1         0.0755
      11    H7      19.176314   18.894343   23.832096 H          1 MOL1         0.0755
      12    C5      21.048973   18.449474   22.850405 C.3        1 MOL1        -0.1855
      13    H8      20.906772   17.361712   22.904622 H          1 MOL1         0.0755
      14    H9      21.607298   18.731480   23.753818 H          1 MOL1         0.0755
      15    C6      21.913654   18.788432   21.605379 C.3        1 MOL1        -0.1958
      16    H10     22.863086   18.243681   21.664410 H          1 MOL1         0.0753
      17    H11     21.419885   18.451058   20.687082 H          1 MOL1         0.0753
      18    C7      22.250021   20.270242   21.463952 C.2        1 MOL1         0.6174
      19    O1      23.034444   20.757315   22.254453 O.co2      1 MOL1        -0.6695
      20    O2      21.736232   20.893255   20.555805 O.co2      1 MOL1        -0.6695
@<TRIPOS>BOND
    1     1     2    1
    2     1     3    1
    3     1     4    2
    4     4     5    1
    5     4     6    1
    6     6     7    1
    7     6     8    1
    8     6     9    1
    9     9    10    1
   10     9    11    1
   11     9    12    1
   12    12    13    1
   13    12    14    1
   14    12    15    1
   15    15    16    1
   16    15    17    1
   17    15    18    1
   18    18    19    1
   19    18    20    2
@<TRIPOS>SUBSTRUCTURE
       1 MOL1            1 RESIDUE      1      MOL     
@<SCITEGIC>MOL_PROPERTY
VConf Rank
SciTegic.value.IntegerValue
73

@<SCITEGIC>MOL_PROPERTY
Conf_Id
SciTegic.value.IntegerValue
53

@<SCITEGIC>MOL_PROPERTY
Delta U+W
SciTegic.value.DoubleValue
0.549

@<SCITEGIC>MOL_PROPERTY
U+W
SciTegic.value.DoubleValue
-51.197

@<SCITEGIC>MOL_PROPERTY
Grad RMS
SciTegic.value.DoubleValue
0.000000

@<SCITEGIC>MOL_PROPERTY
U
SciTegic.value.DoubleValue
10.870

@<SCITEGIC>MOL_PROPERTY
W
SciTegic.value.DoubleValue
-62.067

@<SCITEGIC>MOL_PROPERTY
W(PB)
SciTegic.value.DoubleValue
-64.228

@<SCITEGIC>MOL_PROPERTY
W(SA)
SciTegic.value.DoubleValue
2.161

@<SCITEGIC>MOL_PROPERTY
Valence
SciTegic.value.DoubleValue
8.803

@<SCITEGIC>MOL_PROPERTY
Coulomb
SciTegic.value.DoubleValue
1.020

@<SCITEGIC>MOL_PROPERTY
VdW
SciTegic.value.DoubleValue
1.048

@<SCITEGIC>MOL_PROPERTY
VdW6
SciTegic.value.DoubleValue
-8.312

@<SCITEGIC>MOL_PROPERTY
VdW12
SciTegic.value.DoubleValue
9.360

@<SCITEGIC>MOL_PROPERTY
Bond
SciTegic.value.DoubleValue
0.212

@<SCITEGIC>MOL_PROPERTY
Angle
SciTegic.value.DoubleValue
3.379

@<SCITEGIC>MOL_PROPERTY
Pdih
SciTegic.value.DoubleValue
5.211

@<SCITEGIC>MOL_PROPERTY
Idih
SciTegic.value.DoubleValue
0.001

@<SCITEGIC>MOL_PROPERTY
Tether
SciTegic.value.DoubleValue
0.000

@<TRIPOS>MOLECULE
guest-s22_confgen4.mol2 : confsearch ligand conformer 74
          20          19           1
SMALL
USER_CHARGES
 
@<TRIPOS>ATOM
       1    C1      19.782478   21.282918   20.615852 C.2        1 MOL1        -0.2535
       2    H1      19.764217   21.668106   21.633003 H          1 MOL1         0.0845
       3    H2      19.353264   21.914825   19.840357 H          1 MOL1         0.0845
       4    C2      20.310619   20.091612   20.315002 C.2        1 MOL1        -0.1324
       5    H3      20.306069   19.754015   19.278995 H          1 MOL1         0.0833
       6    C3      20.934742   19.108961   21.292118 C.3        1 MOL1        -0.1813
       7    H4      22.026122   19.223311   21.257260 H          1 MOL1         0.0753
       8    H5      20.749800   18.086813   20.937730 H          1 MOL1         0.0753
       9    C4      20.457082   19.221246   22.763514 C.3        1 MOL1        -0.1855
      10    H6      21.033689   18.512191   23.373108 H          1 MOL1         0.0755
      11    H7      20.707527   20.216434   23.153646 H          1 MOL1         0.0755
      12    C5      18.944346   18.952169   22.978181 C.3        1 MOL1        -0.1855
      13    H8      18.355056   19.700046   22.432311 H          1 MOL1         0.0755
      14    H9      18.709147   19.096397   24.041618 H          1 MOL1         0.0755
      15    C6      18.475590   17.533629   22.553528 C.3        1 MOL1        -0.1958
      16    H10     17.399041   17.437825   22.736370 H          1 MOL1         0.0753
      17    H11     18.620867   17.385528   21.477441 H          1 MOL1         0.0753
      18    C7      19.166424   16.397648   23.302341 C.2        1 MOL1         0.6174
      19    O1      19.971322   15.715266   22.699307 O.co2      1 MOL1        -0.6695
      20    O2      18.867162   16.213847   24.466029 O.co2      1 MOL1        -0.6695
@<TRIPOS>BOND
    1     1     2    1
    2     1     3    1
    3     1     4    2
    4     4     5    1
    5     4     6    1
    6     6     7    1
    7     6     8    1
    8     6     9    1
    9     9    10    1
   10     9    11    1
   11     9    12    1
   12    12    13    1
   13    12    14    1
   14    12    15    1
   15    15    16    1
   16    15    17    1
   17    15    18    1
   18    18    19    1
   19    18    20    2
@<TRIPOS>SUBSTRUCTURE
       1 MOL1            1 RESIDUE      1      MOL     
@<SCITEGIC>MOL_PROPERTY
VConf Rank
SciTegic.value.IntegerValue
74

@<SCITEGIC>MOL_PROPERTY
Conf_Id
SciTegic.value.IntegerValue
66

@<SCITEGIC>MOL_PROPERTY
Delta U+W
SciTegic.value.DoubleValue
1.737

@<SCITEGIC>MOL_PROPERTY
U+W
SciTegic.value.DoubleValue
-50.008

@<SCITEGIC>MOL_PROPERTY
Grad RMS
SciTegic.value.DoubleValue
0.000000

@<SCITEGIC>MOL_PROPERTY
U
SciTegic.value.DoubleValue
11.091

@<SCITEGIC>MOL_PROPERTY
W
SciTegic.value.DoubleValue
-61.099

@<SCITEGIC>MOL_PROPERTY
W(PB)
SciTegic.value.DoubleValue
-63.213

@<SCITEGIC>MOL_PROPERTY
W(SA)
SciTegic.value.DoubleValue
2.114

@<SCITEGIC>MOL_PROPERTY
Valence
SciTegic.value.DoubleValue
9.664

@<SCITEGIC>MOL_PROPERTY
Coulomb
SciTegic.value.DoubleValue
0.658

@<SCITEGIC>MOL_PROPERTY
VdW
SciTegic.value.DoubleValue
0.769

@<SCITEGIC>MOL_PROPERTY
VdW6
SciTegic.value.DoubleValue
-9.171

@<SCITEGIC>MOL_PROPERTY
VdW12
SciTegic.value.DoubleValue
9.940

@<SCITEGIC>MOL_PROPERTY
Bond
SciTegic.value.DoubleValue
0.244

@<SCITEGIC>MOL_PROPERTY
Angle
SciTegic.value.DoubleValue
3.658

@<SCITEGIC>MOL_PROPERTY
Pdih
SciTegic.value.DoubleValue
5.762

@<SCITEGIC>MOL_PROPERTY
Idih
SciTegic.value.DoubleValue
0.001

@<SCITEGIC>MOL_PROPERTY
Tether
SciTegic.value.DoubleValue
0.000

@<TRIPOS>MOLECULE
guest-s22_confgen4.mol2 : confsearch ligand conformer 75
          20          19           1
SMALL
USER_CHARGES
 
@<TRIPOS>ATOM
       1    C1      17.135780   19.121992   20.773780 C.2        1 MOL1        -0.2535
       2    H1      16.873421   19.295937   21.814979 H          1 MOL1         0.0845
       3    H2      16.537192   19.633151   20.021886 H          1 MOL1         0.0845
       4    C2      18.141223   18.315442   20.416791 C.2        1 MOL1        -0.1324
       5    H3      18.359161   18.175080   19.358424 H          1 MOL1         0.0833
       6    C3      19.059434   17.545925   21.352383 C.3        1 MOL1        -0.1813
       7    H4      20.060719   17.497278   20.906611 H          1 MOL1         0.0753
       8    H5      18.720695   16.502371   21.395198 H          1 MOL1         0.0753
       9    C4      19.177322   18.101662   22.795842 C.3        1 MOL1        -0.1855
      10    H6      18.186796   18.099086   23.269494 H          1 MOL1         0.0755
      11    H7      19.791065   17.410768   23.389655 H          1 MOL1         0.0755
      12    C5      19.791152   19.521526   22.895341 C.3        1 MOL1        -0.1855
      13    H8      19.748559   19.848235   23.943496 H          1 MOL1         0.0755
      14    H9      19.185008   20.238167   22.325592 H          1 MOL1         0.0755
      15    C6      21.262608   19.595947   22.411402 C.3        1 MOL1        -0.1958
      16    H10     21.872367   18.850439   22.935390 H          1 MOL1         0.0753
      17    H11     21.326642   19.375909   21.339803 H          1 MOL1         0.0753
      18    C7      21.890683   20.965770   22.642383 C.2        1 MOL1         0.6174
      19    O1      21.815758   21.790230   21.752774 O.co2      1 MOL1        -0.6695
      20    O2      22.426513   21.177465   23.712432 O.co2      1 MOL1        -0.6695
@<TRIPOS>BOND
    1     1     2    1
    2     1     3    1
    3     1     4    2
    4     4     5    1
    5     4     6    1
    6     6     7    1
    7     6     8    1
    8     6     9    1
    9     9    10    1
   10     9    11    1
   11     9    12    1
   12    12    13    1
   13    12    14    1
   14    12    15    1
   15    15    16    1
   16    15    17    1
   17    15    18    1
   18    18    19    1
   19    18    20    2
@<TRIPOS>SUBSTRUCTURE
       1 MOL1            1 RESIDUE      1      MOL     
@<SCITEGIC>MOL_PROPERTY
VConf Rank
SciTegic.value.IntegerValue
75

@<SCITEGIC>MOL_PROPERTY
Conf_Id
SciTegic.value.IntegerValue
64

@<SCITEGIC>MOL_PROPERTY
Delta U+W
SciTegic.value.DoubleValue
0.366

@<SCITEGIC>MOL_PROPERTY
U+W
SciTegic.value.DoubleValue
-51.379

@<SCITEGIC>MOL_PROPERTY
Grad RMS
SciTegic.value.DoubleValue
0.000000

@<SCITEGIC>MOL_PROPERTY
U
SciTegic.value.DoubleValue
10.000

@<SCITEGIC>MOL_PROPERTY
W
SciTegic.value.DoubleValue
-61.379

@<SCITEGIC>MOL_PROPERTY
W(PB)
SciTegic.value.DoubleValue
-63.541

@<SCITEGIC>MOL_PROPERTY
W(SA)
SciTegic.value.DoubleValue
2.162

@<SCITEGIC>MOL_PROPERTY
Valence
SciTegic.value.DoubleValue
9.398

@<SCITEGIC>MOL_PROPERTY
Coulomb
SciTegic.value.DoubleValue
-0.504

@<SCITEGIC>MOL_PROPERTY
VdW
SciTegic.value.DoubleValue
1.105

@<SCITEGIC>MOL_PROPERTY
VdW6
SciTegic.value.DoubleValue
-7.975

@<SCITEGIC>MOL_PROPERTY
VdW12
SciTegic.value.DoubleValue
9.080

@<SCITEGIC>MOL_PROPERTY
Bond
SciTegic.value.DoubleValue
0.216

@<SCITEGIC>MOL_PROPERTY
Angle
SciTegic.value.DoubleValue
3.417

@<SCITEGIC>MOL_PROPERTY
Pdih
SciTegic.value.DoubleValue
5.765

@<SCITEGIC>MOL_PROPERTY
Idih
SciTegic.value.DoubleValue
0.001

@<SCITEGIC>MOL_PROPERTY
Tether
SciTegic.value.DoubleValue
0.000

@<TRIPOS>MOLECULE
guest-s22_confgen4.mol2 : confsearch ligand conformer 76
          20          19           1
SMALL
USER_CHARGES
 
@<TRIPOS>ATOM
       1    C1      22.473802   20.512062   21.346388 C.2        1 MOL1        -0.2535
       2    H1      21.987662   20.879637   20.444183 H          1 MOL1         0.0845
       3    H2      23.514873   20.204438   21.264893 H          1 MOL1         0.0845
       4    C2      21.820559   20.436125   22.508937 C.2        1 MOL1        -0.1324
       5    H3      22.324906   20.062891   23.399848 H          1 MOL1         0.0833
       6    C3      20.375039   20.843857   22.699211 C.3        1 MOL1        -0.1813
       7    H4      20.008750   21.391202   21.820052 H          1 MOL1         0.0753
       8    H5      20.306886   21.538554   23.546911 H          1 MOL1         0.0753
       9    C4      19.455688   19.632223   22.972489 C.3        1 MOL1        -0.1855
      10    H6      19.822522   19.084474   23.851402 H          1 MOL1         0.0755
      11    H7      18.451828   19.998952   23.226766 H          1 MOL1         0.0755
      12    C5      19.355516   18.674835   21.762962 C.3        1 MOL1        -0.1855
      13    H8      20.350401   18.279826   21.515167 H          1 MOL1         0.0755
      14    H9      19.004827   19.228361   20.880968 H          1 MOL1         0.0755
      15    C6      18.394604   17.492862   22.041548 C.3        1 MOL1        -0.1958
      16    H10     18.738914   16.922722   22.912741 H          1 MOL1         0.0753
      17    H11     17.390727   17.867424   22.274830 H          1 MOL1         0.0753
      18    C7      18.279152   16.533442   20.862447 C.2        1 MOL1         0.6174
      19    O1      17.437986   16.763561   20.016140 O.co2      1 MOL1        -0.6695
      20    O2      19.042486   15.589165   20.813953 O.co2      1 MOL1        -0.6695
@<TRIPOS>BOND
    1     1     2    1
    2     1     3    1
    3     1     4    2
    4     4     5    1
    5     4     6    1
    6     6     7    1
    7     6     8    1
    8     6     9    1
    9     9    10    1
   10     9    11    1
   11     9    12    1
   12    12    13    1
   13    12    14    1
   14    12    15    1
   15    15    16    1
   16    15    17    1
   17    15    18    1
   18    18    19    1
   19    18    20    2
@<TRIPOS>SUBSTRUCTURE
       1 MOL1            1 RESIDUE      1      MOL     
@<SCITEGIC>MOL_PROPERTY
VConf Rank
SciTegic.value.IntegerValue
76

@<SCITEGIC>MOL_PROPERTY
Conf_Id
SciTegic.value.IntegerValue
42

@<SCITEGIC>MOL_PROPERTY
Delta U+W
SciTegic.value.DoubleValue
-0.601

@<SCITEGIC>MOL_PROPERTY
U+W
SciTegic.value.DoubleValue
-52.347

@<SCITEGIC>MOL_PROPERTY
Grad RMS
SciTegic.value.DoubleValue
0.000000

@<SCITEGIC>MOL_PROPERTY
U
SciTegic.value.DoubleValue
8.428

@<SCITEGIC>MOL_PROPERTY
W
SciTegic.value.DoubleValue
-60.774

@<SCITEGIC>MOL_PROPERTY
W(PB)
SciTegic.value.DoubleValue
-62.982

@<SCITEGIC>MOL_PROPERTY
W(SA)
SciTegic.value.DoubleValue
2.208

@<SCITEGIC>MOL_PROPERTY
Valence
SciTegic.value.DoubleValue
9.231

@<SCITEGIC>MOL_PROPERTY
Coulomb
SciTegic.value.DoubleValue
-1.304

@<SCITEGIC>MOL_PROPERTY
VdW
SciTegic.value.DoubleValue
0.501

@<SCITEGIC>MOL_PROPERTY
VdW6
SciTegic.value.DoubleValue
-6.515

@<SCITEGIC>MOL_PROPERTY
VdW12
SciTegic.value.DoubleValue
7.016

@<SCITEGIC>MOL_PROPERTY
Bond
SciTegic.value.DoubleValue
0.103

@<SCITEGIC>MOL_PROPERTY
Angle
SciTegic.value.DoubleValue
2.328

@<SCITEGIC>MOL_PROPERTY
Pdih
SciTegic.value.DoubleValue
6.799

@<SCITEGIC>MOL_PROPERTY
Idih
SciTegic.value.DoubleValue
0.000

@<SCITEGIC>MOL_PROPERTY
Tether
SciTegic.value.DoubleValue
0.000

@<TRIPOS>MOLECULE
guest-s22_confgen4.mol2 : confsearch ligand conformer 77
          20          19           1
SMALL
USER_CHARGES
 
@<TRIPOS>ATOM
       1    C1      20.684624   21.457547   23.844201 C.2        1 MOL1        -0.2535
       2    H1      21.723911   21.139272   23.781124 H          1 MOL1         0.0845
       3    H2      20.337098   21.847945   24.799141 H          1 MOL1         0.0845
       4    C2      19.863631   21.370281   22.794259 C.2        1 MOL1        -0.1324
       5    H3      18.825894   21.691659   22.879248 H          1 MOL1         0.0833
       6    C3      20.273347   20.837939   21.437553 C.3        1 MOL1        -0.1813
       7    H4      21.364309   20.723277   21.380425 H          1 MOL1         0.0753
       8    H5      19.998089   21.569986   20.666741 H          1 MOL1         0.0753
       9    C4      19.594498   19.489262   21.108626 C.3        1 MOL1        -0.1855
      10    H6      18.503332   19.607941   21.159716 H          1 MOL1         0.0755
      11    H7      19.831137   19.215836   20.071331 H          1 MOL1         0.0755
      12    C5      20.046061   18.348406   22.050861 C.3        1 MOL1        -0.1855
      13    H8      19.777526   18.590129   23.088557 H          1 MOL1         0.0755
      14    H9      21.140786   18.265642   22.019891 H          1 MOL1         0.0755
      15    C6      19.425676   16.979410   21.669031 C.3        1 MOL1        -0.1958
      16    H10     19.663748   16.732354   20.627392 H          1 MOL1         0.0753
      17    H11     19.866473   16.191393   22.290897 H          1 MOL1         0.0753
      18    C7      17.912031   16.912671   21.851345 C.2        1 MOL1         0.6174
      19    O1      17.209054   16.989433   20.862864 O.co2      1 MOL1        -0.6695
      20    O2      17.476745   16.767167   22.976711 O.co2      1 MOL1        -0.6695
@<TRIPOS>BOND
    1     1     2    1
    2     1     3    1
    3     1     4    2
    4     4     5    1
    5     4     6    1
    6     6     7    1
    7     6     8    1
    8     6     9    1
    9     9    10    1
   10     9    11    1
   11     9    12    1
   12    12    13    1
   13    12    14    1
   14    12    15    1
   15    15    16    1
   16    15    17    1
   17    15    18    1
   18    18    19    1
   19    18    20    2
@<TRIPOS>SUBSTRUCTURE
       1 MOL1            1 RESIDUE      1      MOL     
@<SCITEGIC>MOL_PROPERTY
VConf Rank
SciTegic.value.IntegerValue
77

@<SCITEGIC>MOL_PROPERTY
Conf_Id
SciTegic.value.IntegerValue
68

@<SCITEGIC>MOL_PROPERTY
Delta U+W
SciTegic.value.DoubleValue
0.492

@<SCITEGIC>MOL_PROPERTY
U+W
SciTegic.value.DoubleValue
-51.253

@<SCITEGIC>MOL_PROPERTY
Grad RMS
SciTegic.value.DoubleValue
0.000000

@<SCITEGIC>MOL_PROPERTY
U
SciTegic.value.DoubleValue
10.179

@<SCITEGIC>MOL_PROPERTY
W
SciTegic.value.DoubleValue
-61.432

@<SCITEGIC>MOL_PROPERTY
W(PB)
SciTegic.value.DoubleValue
-63.627

@<SCITEGIC>MOL_PROPERTY
W(SA)
SciTegic.value.DoubleValue
2.195

@<SCITEGIC>MOL_PROPERTY
Valence
SciTegic.value.DoubleValue
9.483

@<SCITEGIC>MOL_PROPERTY
Coulomb
SciTegic.value.DoubleValue
0.361

@<SCITEGIC>MOL_PROPERTY
VdW
SciTegic.value.DoubleValue
0.335

@<SCITEGIC>MOL_PROPERTY
VdW6
SciTegic.value.DoubleValue
-7.385

@<SCITEGIC>MOL_PROPERTY
VdW12
SciTegic.value.DoubleValue
7.720

@<SCITEGIC>MOL_PROPERTY
Bond
SciTegic.value.DoubleValue
0.125

@<SCITEGIC>MOL_PROPERTY
Angle
SciTegic.value.DoubleValue
2.487

@<SCITEGIC>MOL_PROPERTY
Pdih
SciTegic.value.DoubleValue
6.870

@<SCITEGIC>MOL_PROPERTY
Idih
SciTegic.value.DoubleValue
0.001

@<SCITEGIC>MOL_PROPERTY
Tether
SciTegic.value.DoubleValue
0.000

@<TRIPOS>MOLECULE
guest-s22_confgen4.mol2 : confsearch ligand conformer 78
          20          19           1
SMALL
USER_CHARGES
 
@<TRIPOS>ATOM
       1    C1      16.485178   19.134409   22.421820 C.2        1 MOL1        -0.2535
       2    H1      16.303793   19.836564   23.233959 H          1 MOL1         0.0845
       3    H2      15.811062   18.284032   22.334624 H          1 MOL1         0.0845
       4    C2      17.496285   19.304141   21.565929 C.2        1 MOL1        -0.1324
       5    H3      17.658228   18.590687   20.758462 H          1 MOL1         0.0833
       6    C3      18.468445   20.463268   21.621701 C.3        1 MOL1        -0.1813
       7    H4      18.036556   21.280874   22.214586 H          1 MOL1         0.0753
       8    H5      18.628092   20.866458   20.612768 H          1 MOL1         0.0753
       9    C4      19.825096   20.063422   22.244439 C.3        1 MOL1        -0.1855
      10    H6      20.434425   20.967830   22.376757 H          1 MOL1         0.0755
      11    H7      19.656239   19.650393   23.248677 H          1 MOL1         0.0755
      12    C5      20.607358   19.046404   21.379874 C.3        1 MOL1        -0.1855
      13    H8      20.726664   19.449434   20.365161 H          1 MOL1         0.0755
      14    H9      20.034605   18.113776   21.285142 H          1 MOL1         0.0755
      15    C6      22.008466   18.724796   21.961525 C.3        1 MOL1        -0.1958
      16    H10     22.562334   18.094805   21.255586 H          1 MOL1         0.0753
      17    H11     22.588393   19.647233   22.086256 H          1 MOL1         0.0753
      18    C7      21.970632   17.989162   23.298031 C.2        1 MOL1         0.6174
      19    O1      21.723327   16.799257   23.289517 O.co2      1 MOL1        -0.6695
      20    O2      22.208294   18.619846   24.309406 O.co2      1 MOL1        -0.6695
@<TRIPOS>BOND
    1     1     2    1
    2     1     3    1
    3     1     4    2
    4     4     5    1
    5     4     6    1
    6     6     7    1
    7     6     8    1
    8     6     9    1
    9     9    10    1
   10     9    11    1
   11     9    12    1
   12    12    13    1
   13    12    14    1
   14    12    15    1
   15    15    16    1
   16    15    17    1
   17    15    18    1
   18    18    19    1
   19    18    20    2
@<TRIPOS>SUBSTRUCTURE
       1 MOL1            1 RESIDUE      1      MOL     
@<SCITEGIC>MOL_PROPERTY
VConf Rank
SciTegic.value.IntegerValue
78

@<SCITEGIC>MOL_PROPERTY
Conf_Id
SciTegic.value.IntegerValue
87

@<SCITEGIC>MOL_PROPERTY
Delta U+W
SciTegic.value.DoubleValue
0.339

@<SCITEGIC>MOL_PROPERTY
U+W
SciTegic.value.DoubleValue
-51.407

@<SCITEGIC>MOL_PROPERTY
Grad RMS
SciTegic.value.DoubleValue
0.000000

@<SCITEGIC>MOL_PROPERTY
U
SciTegic.value.DoubleValue
10.461

@<SCITEGIC>MOL_PROPERTY
W
SciTegic.value.DoubleValue
-61.867

@<SCITEGIC>MOL_PROPERTY
W(PB)
SciTegic.value.DoubleValue
-64.045

@<SCITEGIC>MOL_PROPERTY
W(SA)
SciTegic.value.DoubleValue
2.178

@<SCITEGIC>MOL_PROPERTY
Valence
SciTegic.value.DoubleValue
9.555

@<SCITEGIC>MOL_PROPERTY
Coulomb
SciTegic.value.DoubleValue
0.483

@<SCITEGIC>MOL_PROPERTY
VdW
SciTegic.value.DoubleValue
0.423

@<SCITEGIC>MOL_PROPERTY
VdW6
SciTegic.value.DoubleValue
-7.223

@<SCITEGIC>MOL_PROPERTY
VdW12
SciTegic.value.DoubleValue
7.646

@<SCITEGIC>MOL_PROPERTY
Bond
SciTegic.value.DoubleValue
0.126

@<SCITEGIC>MOL_PROPERTY
Angle
SciTegic.value.DoubleValue
2.492

@<SCITEGIC>MOL_PROPERTY
Pdih
SciTegic.value.DoubleValue
6.936

@<SCITEGIC>MOL_PROPERTY
Idih
SciTegic.value.DoubleValue
0.001

@<SCITEGIC>MOL_PROPERTY
Tether
SciTegic.value.DoubleValue
0.000

@<TRIPOS>MOLECULE
guest-s22_confgen4.mol2 : confsearch ligand conformer 79
          20          19           1
SMALL
USER_CHARGES
 
@<TRIPOS>ATOM
       1    C1      18.664815   17.505656   19.681256 C.2        1 MOL1        -0.2535
       2    H1      18.604338   16.479064   20.038843 H          1 MOL1         0.0845
       3    H2      17.909222   17.835156   18.970252 H          1 MOL1         0.0845
       4    C2      19.627176   18.331887   20.099487 C.2        1 MOL1        -0.1324
       5    H3      19.676360   19.353058   19.723218 H          1 MOL1         0.0833
       6    C3      20.715464   17.937702   21.075118 C.3        1 MOL1        -0.1813
       7    H4      21.562453   18.632770   21.001460 H          1 MOL1         0.0753
       8    H5      21.109217   16.956067   20.778879 H          1 MOL1         0.0753
       9    C4      20.228932   17.848474   22.542937 C.3        1 MOL1        -0.1855
      10    H6      19.274517   17.306441   22.590120 H          1 MOL1         0.0755
      11    H7      20.950671   17.236203   23.100566 H          1 MOL1         0.0755
      12    C5      20.104634   19.209586   23.273023 C.3        1 MOL1        -0.1855
      13    H8      21.056569   19.754662   23.211767 H          1 MOL1         0.0755
      14    H9      19.931114   19.013348   24.340202 H          1 MOL1         0.0755
      15    C6      18.956673   20.110608   22.749948 C.3        1 MOL1        -0.1958
      16    H10     19.168386   20.451262   21.731512 H          1 MOL1         0.0753
      17    H11     18.016348   19.547488   22.718180 H          1 MOL1         0.0753
      18    C7      18.739264   21.348903   23.611916 C.2        1 MOL1         0.6174
      19    O1      19.378848   22.349012   23.351909 O.co2      1 MOL1        -0.6695
      20    O2      17.951354   21.274964   24.534203 O.co2      1 MOL1        -0.6695
@<TRIPOS>BOND
    1     1     2    1
    2     1     3    1
    3     1     4    2
    4     4     5    1
    5     4     6    1
    6     6     7    1
    7     6     8    1
    8     6     9    1
    9     9    10    1
   10     9    11    1
   11     9    12    1
   12    12    13    1
   13    12    14    1
   14    12    15    1
   15    15    16    1
   16    15    17    1
   17    15    18    1
   18    18    19    1
   19    18    20    2
@<TRIPOS>SUBSTRUCTURE
       1 MOL1            1 RESIDUE      1      MOL     
@<SCITEGIC>MOL_PROPERTY
VConf Rank
SciTegic.value.IntegerValue
79

@<SCITEGIC>MOL_PROPERTY
Conf_Id
SciTegic.value.IntegerValue
51

@<SCITEGIC>MOL_PROPERTY
Delta U+W
SciTegic.value.DoubleValue
1.709

@<SCITEGIC>MOL_PROPERTY
U+W
SciTegic.value.DoubleValue
-50.036

@<SCITEGIC>MOL_PROPERTY
Grad RMS
SciTegic.value.DoubleValue
0.000000

@<SCITEGIC>MOL_PROPERTY
U
SciTegic.value.DoubleValue
10.643

@<SCITEGIC>MOL_PROPERTY
W
SciTegic.value.DoubleValue
-60.679

@<SCITEGIC>MOL_PROPERTY
W(PB)
SciTegic.value.DoubleValue
-62.882

@<SCITEGIC>MOL_PROPERTY
W(SA)
SciTegic.value.DoubleValue
2.203

@<SCITEGIC>MOL_PROPERTY
Valence
SciTegic.value.DoubleValue
11.231

@<SCITEGIC>MOL_PROPERTY
Coulomb
SciTegic.value.DoubleValue
-1.077

@<SCITEGIC>MOL_PROPERTY
VdW
SciTegic.value.DoubleValue
0.489

@<SCITEGIC>MOL_PROPERTY
VdW6
SciTegic.value.DoubleValue
-7.546

@<SCITEGIC>MOL_PROPERTY
VdW12
SciTegic.value.DoubleValue
8.035

@<SCITEGIC>MOL_PROPERTY
Bond
SciTegic.value.DoubleValue
0.159

@<SCITEGIC>MOL_PROPERTY
Angle
SciTegic.value.DoubleValue
3.005

@<SCITEGIC>MOL_PROPERTY
Pdih
SciTegic.value.DoubleValue
8.065

@<SCITEGIC>MOL_PROPERTY
Idih
SciTegic.value.DoubleValue
0.002

@<SCITEGIC>MOL_PROPERTY
Tether
SciTegic.value.DoubleValue
0.000

@<TRIPOS>MOLECULE
guest-s22_confgen4.mol2 : confsearch ligand conformer 80
          20          19           1
SMALL
USER_CHARGES
 
@<TRIPOS>ATOM
       1    C1      20.270387   16.395635   21.488289 C.2        1 MOL1        -0.2535
       2    H1      20.037977   15.918283   22.438835 H          1 MOL1         0.0845
       3    H2      21.130167   16.021434   20.935322 H          1 MOL1         0.0845
       4    C2      19.531700   17.403959   21.017822 C.2        1 MOL1        -0.1324
       5    H3      19.774811   17.862875   20.060175 H          1 MOL1         0.0833
       6    C3      18.317503   17.965442   21.726386 C.3        1 MOL1        -0.1813
       7    H4      17.700990   17.126916   22.077374 H          1 MOL1         0.0753
       8    H5      17.688112   18.522202   21.019407 H          1 MOL1         0.0753
       9    C4      18.667812   18.859288   22.941908 C.3        1 MOL1        -0.1855
      10    H6      17.776470   18.923875   23.580714 H          1 MOL1         0.0755
      11    H7      19.441891   18.375604   23.553286 H          1 MOL1         0.0755
      12    C5      19.096748   20.305244   22.586478 C.3        1 MOL1        -0.1855
      13    H8      19.143333   20.888994   23.516292 H          1 MOL1         0.0755
      14    H9      18.326870   20.780837   21.963471 H          1 MOL1         0.0755
      15    C6      20.472028   20.405877   21.878137 C.3        1 MOL1        -0.1958
      16    H10     21.231977   19.854143   22.444166 H          1 MOL1         0.0753
      17    H11     20.423329   19.962978   20.878361 H          1 MOL1         0.0753
      18    C7      20.950035   21.844633   21.719672 C.2        1 MOL1         0.6174
      19    O1      20.613440   22.455181   20.724270 O.co2      1 MOL1        -0.6695
      20    O2      21.629666   22.324378   22.605578 O.co2      1 MOL1        -0.6695
@<TRIPOS>BOND
    1     1     2    1
    2     1     3    1
    3     1     4    2
    4     4     5    1
    5     4     6    1
    6     6     7    1
    7     6     8    1
    8     6     9    1
    9     9    10    1
   10     9    11    1
   11     9    12    1
   12    12    13    1
   13    12    14    1
   14    12    15    1
   15    15    16    1
   16    15    17    1
   17    15    18    1
   18    18    19    1
   19    18    20    2
@<TRIPOS>SUBSTRUCTURE
       1 MOL1            1 RESIDUE      1      MOL     
@<SCITEGIC>MOL_PROPERTY
VConf Rank
SciTegic.value.IntegerValue
80

@<SCITEGIC>MOL_PROPERTY
Conf_Id
SciTegic.value.IntegerValue
91

@<SCITEGIC>MOL_PROPERTY
Delta U+W
SciTegic.value.DoubleValue
1.604

@<SCITEGIC>MOL_PROPERTY
U+W
SciTegic.value.DoubleValue
-50.141

@<SCITEGIC>MOL_PROPERTY
Grad RMS
SciTegic.value.DoubleValue
0.000000

@<SCITEGIC>MOL_PROPERTY
U
SciTegic.value.DoubleValue
10.644

@<SCITEGIC>MOL_PROPERTY
W
SciTegic.value.DoubleValue
-60.786

@<SCITEGIC>MOL_PROPERTY
W(PB)
SciTegic.value.DoubleValue
-62.965

@<SCITEGIC>MOL_PROPERTY
W(SA)
SciTegic.value.DoubleValue
2.179

@<SCITEGIC>MOL_PROPERTY
Valence
SciTegic.value.DoubleValue
11.230

@<SCITEGIC>MOL_PROPERTY
Coulomb
SciTegic.value.DoubleValue
-1.075

@<SCITEGIC>MOL_PROPERTY
VdW
SciTegic.value.DoubleValue
0.489

@<SCITEGIC>MOL_PROPERTY
VdW6
SciTegic.value.DoubleValue
-7.547

@<SCITEGIC>MOL_PROPERTY
VdW12
SciTegic.value.DoubleValue
8.036

@<SCITEGIC>MOL_PROPERTY
Bond
SciTegic.value.DoubleValue
0.159

@<SCITEGIC>MOL_PROPERTY
Angle
SciTegic.value.DoubleValue
3.006

@<SCITEGIC>MOL_PROPERTY
Pdih
SciTegic.value.DoubleValue
8.064

@<SCITEGIC>MOL_PROPERTY
Idih
SciTegic.value.DoubleValue
0.002

@<SCITEGIC>MOL_PROPERTY
Tether
SciTegic.value.DoubleValue
0.000

@<TRIPOS>MOLECULE
guest-s22_confgen4.mol2 : confsearch ligand conformer 81
          20          19           1
SMALL
USER_CHARGES
 
@<TRIPOS>ATOM
       1    C1      20.538601   16.634466   24.608235 C.2        1 MOL1        -0.2535
       2    H1      21.439701   16.346278   24.069202 H          1 MOL1         0.0845
       3    H2      20.156187   15.938432   25.352931 H          1 MOL1         0.0845
       4    C2      19.921978   17.794238   24.366666 C.2        1 MOL1        -0.1324
       5    H3      19.020610   18.063425   24.916876 H          1 MOL1         0.0833
       6    C3      20.394120   18.809685   23.350009 C.3        1 MOL1        -0.1813
       7    H4      21.424336   18.587097   23.040309 H          1 MOL1         0.0753
       8    H5      20.410619   19.807801   23.807869 H          1 MOL1         0.0753
       9    C4      19.476465   18.824304   22.109618 C.3        1 MOL1        -0.1855
      10    H6      19.460197   17.822738   21.657970 H          1 MOL1         0.0755
      11    H7      18.447073   19.051479   22.419302 H          1 MOL1         0.0755
      12    C5      19.942872   19.858532   21.061787 C.3        1 MOL1        -0.1855
      13    H8      20.972244   19.631674   20.751185 H          1 MOL1         0.0755
      14    H9      19.960545   20.860234   21.513235 H          1 MOL1         0.0755
      15    C6      19.020091   19.872397   19.814116 C.3        1 MOL1        -0.1958
      16    H10     19.002852   18.877123   19.354718 H          1 MOL1         0.0753
      17    H11     17.992014   20.104525   20.115914 H          1 MOL1         0.0753
      18    C7      19.411864   20.871102   18.723970 C.2        1 MOL1         0.6174
      19    O1      18.711793   20.911852   17.731811 O.co2      1 MOL1        -0.6695
      20    O2      20.388914   21.578559   18.877343 O.co2      1 MOL1        -0.6695
@<TRIPOS>BOND
    1     1     2    1
    2     1     3    1
    3     1     4    2
    4     4     5    1
    5     4     6    1
    6     6     7    1
    7     6     8    1
    8     6     9    1
    9     9    10    1
   10     9    11    1
   11     9    12    1
   12    12    13    1
   13    12    14    1
   14    12    15    1
   15    15    16    1
   16    15    17    1
   17    15    18    1
   18    18    19    1
   19    18    20    2
@<TRIPOS>SUBSTRUCTURE
       1 MOL1            1 RESIDUE      1      MOL     
@<SCITEGIC>MOL_PROPERTY
VConf Rank
SciTegic.value.IntegerValue
81

@<SCITEGIC>MOL_PROPERTY
Conf_Id
SciTegic.value.IntegerValue
33

@<SCITEGIC>MOL_PROPERTY
Delta U+W
SciTegic.value.DoubleValue
0.000

@<SCITEGIC>MOL_PROPERTY
U+W
SciTegic.value.DoubleValue
-51.745

@<SCITEGIC>MOL_PROPERTY
Grad RMS
SciTegic.value.DoubleValue
0.000000

@<SCITEGIC>MOL_PROPERTY
U
SciTegic.value.DoubleValue
7.593

@<SCITEGIC>MOL_PROPERTY
W
SciTegic.value.DoubleValue
-59.338

@<SCITEGIC>MOL_PROPERTY
W(PB)
SciTegic.value.DoubleValue
-61.574

@<SCITEGIC>MOL_PROPERTY
W(SA)
SciTegic.value.DoubleValue
2.236

@<SCITEGIC>MOL_PROPERTY
Valence
SciTegic.value.DoubleValue
9.570

@<SCITEGIC>MOL_PROPERTY
Coulomb
SciTegic.value.DoubleValue
-3.091

@<SCITEGIC>MOL_PROPERTY
VdW
SciTegic.value.DoubleValue
1.114

@<SCITEGIC>MOL_PROPERTY
VdW6
SciTegic.value.DoubleValue
-6.064

@<SCITEGIC>MOL_PROPERTY
VdW12
SciTegic.value.DoubleValue
7.178

@<SCITEGIC>MOL_PROPERTY
Bond
SciTegic.value.DoubleValue
0.117

@<SCITEGIC>MOL_PROPERTY
Angle
SciTegic.value.DoubleValue
2.692

@<SCITEGIC>MOL_PROPERTY
Pdih
SciTegic.value.DoubleValue
6.761

@<SCITEGIC>MOL_PROPERTY
Idih
SciTegic.value.DoubleValue
0.000

@<SCITEGIC>MOL_PROPERTY
Tether
SciTegic.value.DoubleValue
0.000

@<TRIPOS>MOLECULE
guest-s22_confgen4.mol2 : confsearch ligand conformer 82
          20          19           1
SMALL
USER_CHARGES
 
@<TRIPOS>ATOM
       1    C1      22.483050   20.324399   20.000743 C.2        1 MOL1        -0.2535
       2    H1      21.781659   20.819439   19.330993 H          1 MOL1         0.0845
       3    H2      23.531003   20.308749   19.706110 H          1 MOL1         0.0845
       4    C2      22.077578   19.755215   21.138854 C.2        1 MOL1        -0.1324
       5    H3      22.795787   19.263951   21.794953 H          1 MOL1         0.0833
       6    C3      20.641570   19.737796   21.613514 C.3        1 MOL1        -0.1813
       7    H4      20.043786   20.460089   21.041201 H          1 MOL1         0.0753
       8    H5      20.605529   20.056626   22.662847 H          1 MOL1         0.0753
       9    C4      20.025512   18.328383   21.465744 C.3        1 MOL1        -0.1855
      10    H6      20.149203   17.995841   20.425813 H          1 MOL1         0.0755
      11    H7      20.582511   17.614446   22.087869 H          1 MOL1         0.0755
      12    C5      18.521945   18.271014   21.826543 C.3        1 MOL1        -0.1855
      13    H8      18.140248   17.268836   21.586876 H          1 MOL1         0.0755
      14    H9      17.961588   18.975021   21.195856 H          1 MOL1         0.0755
      15    C6      18.232019   18.570159   23.320340 C.3        1 MOL1        -0.1958
      16    H10     18.818873   17.901377   23.961210 H          1 MOL1         0.0753
      17    H11     18.519176   19.597312   23.571817 H          1 MOL1         0.0753
      18    C7      16.760604   18.399168   23.680439 C.2        1 MOL1         0.6174
      19    O1      16.024644   19.358363   23.557897 O.co2      1 MOL1        -0.6695
      20    O2      16.385080   17.305867   24.055149 O.co2      1 MOL1        -0.6695
@<TRIPOS>BOND
    1     1     2    1
    2     1     3    1
    3     1     4    2
    4     4     5    1
    5     4     6    1
    6     6     7    1
    7     6     8    1
    8     6     9    1
    9     9    10    1
   10     9    11    1
   11     9    12    1
   12    12    13    1
   13    12    14    1
   14    12    15    1
   15    15    16    1
   16    15    17    1
   17    15    18    1
   18    18    19    1
   19    18    20    2
@<TRIPOS>SUBSTRUCTURE
       1 MOL1            1 RESIDUE      1      MOL     
@<SCITEGIC>MOL_PROPERTY
VConf Rank
SciTegic.value.IntegerValue
82

@<SCITEGIC>MOL_PROPERTY
Conf_Id
SciTegic.value.IntegerValue
37

@<SCITEGIC>MOL_PROPERTY
Delta U+W
SciTegic.value.DoubleValue
-0.384

@<SCITEGIC>MOL_PROPERTY
U+W
SciTegic.value.DoubleValue
-52.130

@<SCITEGIC>MOL_PROPERTY
Grad RMS
SciTegic.value.DoubleValue
0.000000

@<SCITEGIC>MOL_PROPERTY
U
SciTegic.value.DoubleValue
7.491

@<SCITEGIC>MOL_PROPERTY
W
SciTegic.value.DoubleValue
-59.621

@<SCITEGIC>MOL_PROPERTY
W(PB)
SciTegic.value.DoubleValue
-61.853

@<SCITEGIC>MOL_PROPERTY
W(SA)
SciTegic.value.DoubleValue
2.232

@<SCITEGIC>MOL_PROPERTY
Valence
SciTegic.value.DoubleValue
9.604

@<SCITEGIC>MOL_PROPERTY
Coulomb
SciTegic.value.DoubleValue
-2.799

@<SCITEGIC>MOL_PROPERTY
VdW
SciTegic.value.DoubleValue
0.686

@<SCITEGIC>MOL_PROPERTY
VdW6
SciTegic.value.DoubleValue
-6.435

@<SCITEGIC>MOL_PROPERTY
VdW12
SciTegic.value.DoubleValue
7.121

@<SCITEGIC>MOL_PROPERTY
Bond
SciTegic.value.DoubleValue
0.124

@<SCITEGIC>MOL_PROPERTY
Angle
SciTegic.value.DoubleValue
2.493

@<SCITEGIC>MOL_PROPERTY
Pdih
SciTegic.value.DoubleValue
6.986

@<SCITEGIC>MOL_PROPERTY
Idih
SciTegic.value.DoubleValue
0.001

@<SCITEGIC>MOL_PROPERTY
Tether
SciTegic.value.DoubleValue
0.000

@<TRIPOS>MOLECULE
guest-s22_confgen4.mol2 : confsearch ligand conformer 83
          20          19           1
SMALL
USER_CHARGES
 
@<TRIPOS>ATOM
       1    C1      18.415317   19.120183   24.954200 C.2        1 MOL1        -0.2535
       2    H1      17.984611   19.163321   25.953110 H          1 MOL1         0.0845
       3    H2      17.815223   18.645111   24.181062 H          1 MOL1         0.0845
       4    C2      19.626673   19.632813   24.709783 C.2        1 MOL1        -0.1324
       5    H3      20.180370   20.096451   25.525925 H          1 MOL1         0.0833
       6    C3      20.354736   19.647463   23.376094 C.3        1 MOL1        -0.1813
       7    H4      21.323057   19.143651   23.497182 H          1 MOL1         0.0753
       8    H5      20.592693   20.687448   23.115435 H          1 MOL1         0.0753
       9    C4      19.586182   18.993978   22.203804 C.3        1 MOL1        -0.1855
      10    H6      19.363175   17.946648   22.449680 H          1 MOL1         0.0755
      11    H7      18.624874   19.507178   22.063807 H          1 MOL1         0.0755
      12    C5      20.393145   19.050466   20.888265 C.3        1 MOL1        -0.1855
      13    H8      21.356365   18.538625   21.021802 H          1 MOL1         0.0755
      14    H9      20.619574   20.095963   20.636729 H          1 MOL1         0.0755
      15    C6      19.625653   18.396719   19.712826 C.3        1 MOL1        -0.1958
      16    H10     19.403322   17.347687   19.942399 H          1 MOL1         0.0753
      17    H11     18.666455   18.905030   19.557388 H          1 MOL1         0.0753
      18    C7      20.402377   18.440116   18.401794 C.2        1 MOL1         0.6174
      19    O1      21.149429   17.516222   18.146881 O.co2      1 MOL1        -0.6695
      20    O2      20.254829   19.406069   17.679429 O.co2      1 MOL1        -0.6695
@<TRIPOS>BOND
    1     1     2    1
    2     1     3    1
    3     1     4    2
    4     4     5    1
    5     4     6    1
    6     6     7    1
    7     6     8    1
    8     6     9    1
    9     9    10    1
   10     9    11    1
   11     9    12    1
   12    12    13    1
   13    12    14    1
   14    12    15    1
   15    15    16    1
   16    15    17    1
   17    15    18    1
   18    18    19    1
   19    18    20    2
@<TRIPOS>SUBSTRUCTURE
       1 MOL1            1 RESIDUE      1      MOL     
@<SCITEGIC>MOL_PROPERTY
VConf Rank
SciTegic.value.IntegerValue
83

@<SCITEGIC>MOL_PROPERTY
Conf_Id
SciTegic.value.IntegerValue
44

@<SCITEGIC>MOL_PROPERTY
Delta U+W
SciTegic.value.DoubleValue
-1.440

@<SCITEGIC>MOL_PROPERTY
U+W
SciTegic.value.DoubleValue
-53.185

@<SCITEGIC>MOL_PROPERTY
Grad RMS
SciTegic.value.DoubleValue
0.000000

@<SCITEGIC>MOL_PROPERTY
U
SciTegic.value.DoubleValue
6.572

@<SCITEGIC>MOL_PROPERTY
W
SciTegic.value.DoubleValue
-59.757

@<SCITEGIC>MOL_PROPERTY
W(PB)
SciTegic.value.DoubleValue
-62.007

@<SCITEGIC>MOL_PROPERTY
W(SA)
SciTegic.value.DoubleValue
2.249

@<SCITEGIC>MOL_PROPERTY
Valence
SciTegic.value.DoubleValue
7.989

@<SCITEGIC>MOL_PROPERTY
Coulomb
SciTegic.value.DoubleValue
-2.697

@<SCITEGIC>MOL_PROPERTY
VdW
SciTegic.value.DoubleValue
1.281

@<SCITEGIC>MOL_PROPERTY
VdW6
SciTegic.value.DoubleValue
-6.467

@<SCITEGIC>MOL_PROPERTY
VdW12
SciTegic.value.DoubleValue
7.748

@<SCITEGIC>MOL_PROPERTY
Bond
SciTegic.value.DoubleValue
0.136

@<SCITEGIC>MOL_PROPERTY
Angle
SciTegic.value.DoubleValue
2.854

@<SCITEGIC>MOL_PROPERTY
Pdih
SciTegic.value.DoubleValue
4.997

@<SCITEGIC>MOL_PROPERTY
Idih
SciTegic.value.DoubleValue
0.001

@<SCITEGIC>MOL_PROPERTY
Tether
SciTegic.value.DoubleValue
0.000

@<TRIPOS>MOLECULE
guest-s22_confgen4.mol2 : confsearch ligand conformer 84
          20          19           1
SMALL
USER_CHARGES
 
@<TRIPOS>ATOM
       1    C1      19.397976   16.047336   23.577942 C.2        1 MOL1        -0.2535
       2    H1      19.906753   15.690247   22.683955 H          1 MOL1         0.0845
       3    H2      18.925888   15.302822   24.216758 H          1 MOL1         0.0845
       4    C2      19.350192   17.347101   23.881331 C.2        1 MOL1        -0.1324
       5    H3      18.835177   17.683654   24.780846 H          1 MOL1         0.0833
       6    C3      19.982517   18.436911   23.044446 C.3        1 MOL1        -0.1813
       7    H4      20.691827   17.995862   22.332439 H          1 MOL1         0.0753
       8    H5      20.560315   19.108652   23.693173 H          1 MOL1         0.0753
       9    C4      18.908186   19.247267   22.284778 C.3        1 MOL1        -0.1855
      10    H6      18.366880   18.584511   21.595624 H          1 MOL1         0.0755
      11    H7      18.166203   19.617271   23.005641 H          1 MOL1         0.0755
      12    C5      19.481738   20.454185   21.504578 C.3        1 MOL1        -0.1855
      13    H8      20.015151   21.122930   22.194232 H          1 MOL1         0.0755
      14    H9      18.645784   21.036480   21.092734 H          1 MOL1         0.0755
      15    C6      20.425465   20.048448   20.342764 C.3        1 MOL1        -0.1958
      16    H10     21.318508   19.543762   20.728080 H          1 MOL1         0.0753
      17    H11     19.918280   19.345726   19.670943 H          1 MOL1         0.0753
      18    C7      20.888736   21.242402   19.515851 C.2        1 MOL1         0.6174
      19    O1      20.216176   21.573303   18.559346 O.co2      1 MOL1        -0.6695
      20    O2      21.899032   21.822479   19.861576 O.co2      1 MOL1        -0.6695
@<TRIPOS>BOND
    1     1     2    1
    2     1     3    1
    3     1     4    2
    4     4     5    1
    5     4     6    1
    6     6     7    1
    7     6     8    1
    8     6     9    1
    9     9    10    1
   10     9    11    1
   11     9    12    1
   12    12    13    1
   13    12    14    1
   14    12    15    1
   15    15    16    1
   16    15    17    1
   17    15    18    1
   18    18    19    1
   19    18    20    2
@<TRIPOS>SUBSTRUCTURE
       1 MOL1            1 RESIDUE      1      MOL     
@<SCITEGIC>MOL_PROPERTY
VConf Rank
SciTegic.value.IntegerValue
84

@<SCITEGIC>MOL_PROPERTY
Conf_Id
SciTegic.value.IntegerValue
38

@<SCITEGIC>MOL_PROPERTY
Delta U+W
SciTegic.value.DoubleValue
-0.381

@<SCITEGIC>MOL_PROPERTY
U+W
SciTegic.value.DoubleValue
-52.126

@<SCITEGIC>MOL_PROPERTY
Grad RMS
SciTegic.value.DoubleValue
0.000000

@<SCITEGIC>MOL_PROPERTY
U
SciTegic.value.DoubleValue
7.601

@<SCITEGIC>MOL_PROPERTY
W
SciTegic.value.DoubleValue
-59.727

@<SCITEGIC>MOL_PROPERTY
W(PB)
SciTegic.value.DoubleValue
-61.964

@<SCITEGIC>MOL_PROPERTY
W(SA)
SciTegic.value.DoubleValue
2.236

@<SCITEGIC>MOL_PROPERTY
Valence
SciTegic.value.DoubleValue
9.602

@<SCITEGIC>MOL_PROPERTY
Coulomb
SciTegic.value.DoubleValue
-2.686

@<SCITEGIC>MOL_PROPERTY
VdW
SciTegic.value.DoubleValue
0.685

@<SCITEGIC>MOL_PROPERTY
VdW6
SciTegic.value.DoubleValue
-6.453

@<SCITEGIC>MOL_PROPERTY
VdW12
SciTegic.value.DoubleValue
7.139

@<SCITEGIC>MOL_PROPERTY
Bond
SciTegic.value.DoubleValue
0.125

@<SCITEGIC>MOL_PROPERTY
Angle
SciTegic.value.DoubleValue
2.485

@<SCITEGIC>MOL_PROPERTY
Pdih
SciTegic.value.DoubleValue
6.991

@<SCITEGIC>MOL_PROPERTY
Idih
SciTegic.value.DoubleValue
0.001

@<SCITEGIC>MOL_PROPERTY
Tether
SciTegic.value.DoubleValue
0.000

@<TRIPOS>MOLECULE
guest-s22_confgen4.mol2 : confsearch ligand conformer 85
          20          19           1
SMALL
USER_CHARGES
 
@<TRIPOS>ATOM
       1    C1      19.137827   16.776947   24.556488 C.2        1 MOL1        -0.2535
       2    H1      19.271651   17.493589   25.365248 H          1 MOL1         0.0845
       3    H2      18.576572   15.870738   24.777954 H          1 MOL1         0.0845
       4    C2      19.638840   16.998019   23.338384 C.2        1 MOL1        -0.1324
       5    H3      19.492759   16.268187   22.542353 H          1 MOL1         0.0833
       6    C3      20.428117   18.230645   22.957173 C.3        1 MOL1        -0.1813
       7    H4      21.345247   17.931758   22.432135 H          1 MOL1         0.0753
       8    H5      20.742540   18.774582   23.858290 H          1 MOL1         0.0753
       9    C4      19.597599   19.166931   22.054609 C.3        1 MOL1        -0.1855
      10    H6      19.286395   18.621229   21.153058 H          1 MOL1         0.0755
      11    H7      18.678852   19.459856   22.581269 H          1 MOL1         0.0755
      12    C5      20.391006   20.430925   21.653168 C.3        1 MOL1        -0.1855
      13    H8      21.305535   20.141805   21.116752 H          1 MOL1         0.0755
      14    H9      20.710914   20.961088   22.560455 H          1 MOL1         0.0755
      15    C6      19.562300   21.399682   20.770189 C.3        1 MOL1        -0.1958
      16    H10     18.631813   21.675813   21.280878 H          1 MOL1         0.0753
      17    H11     20.126232   22.326889   20.614475 H          1 MOL1         0.0753
      18    C7      19.214938   20.840286   19.393496 C.2        1 MOL1         0.6174
      19    O1      18.076433   20.464226   19.195111 O.co2      1 MOL1        -0.6695
      20    O2      20.091143   20.806037   18.551956 O.co2      1 MOL1        -0.6695
@<TRIPOS>BOND
    1     1     2    1
    2     1     3    1
    3     1     4    2
    4     4     5    1
    5     4     6    1
    6     6     7    1
    7     6     8    1
    8     6     9    1
    9     9    10    1
   10     9    11    1
   11     9    12    1
   12    12    13    1
   13    12    14    1
   14    12    15    1
   15    15    16    1
   16    15    17    1
   17    15    18    1
   18    18    19    1
   19    18    20    2
@<TRIPOS>SUBSTRUCTURE
       1 MOL1            1 RESIDUE      1      MOL     
@<SCITEGIC>MOL_PROPERTY
VConf Rank
SciTegic.value.IntegerValue
85

@<SCITEGIC>MOL_PROPERTY
Conf_Id
SciTegic.value.IntegerValue
58

@<SCITEGIC>MOL_PROPERTY
Delta U+W
SciTegic.value.DoubleValue
0.019

@<SCITEGIC>MOL_PROPERTY
U+W
SciTegic.value.DoubleValue
-51.727

@<SCITEGIC>MOL_PROPERTY
Grad RMS
SciTegic.value.DoubleValue
0.000000

@<SCITEGIC>MOL_PROPERTY
U
SciTegic.value.DoubleValue
8.963

@<SCITEGIC>MOL_PROPERTY
W
SciTegic.value.DoubleValue
-60.690

@<SCITEGIC>MOL_PROPERTY
W(PB)
SciTegic.value.DoubleValue
-62.934

@<SCITEGIC>MOL_PROPERTY
W(SA)
SciTegic.value.DoubleValue
2.244

@<SCITEGIC>MOL_PROPERTY
Valence
SciTegic.value.DoubleValue
9.327

@<SCITEGIC>MOL_PROPERTY
Coulomb
SciTegic.value.DoubleValue
-0.780

@<SCITEGIC>MOL_PROPERTY
VdW
SciTegic.value.DoubleValue
0.417

@<SCITEGIC>MOL_PROPERTY
VdW6
SciTegic.value.DoubleValue
-6.635

@<SCITEGIC>MOL_PROPERTY
VdW12
SciTegic.value.DoubleValue
7.052

@<SCITEGIC>MOL_PROPERTY
Bond
SciTegic.value.DoubleValue
0.105

@<SCITEGIC>MOL_PROPERTY
Angle
SciTegic.value.DoubleValue
2.399

@<SCITEGIC>MOL_PROPERTY
Pdih
SciTegic.value.DoubleValue
6.822

@<SCITEGIC>MOL_PROPERTY
Idih
SciTegic.value.DoubleValue
0.000

@<SCITEGIC>MOL_PROPERTY
Tether
SciTegic.value.DoubleValue
0.000

@<TRIPOS>MOLECULE
guest-s22_confgen4.mol2 : confsearch ligand conformer 86
          20          19           1
SMALL
USER_CHARGES
 
@<TRIPOS>ATOM
       1    C1      19.628054   19.979751   18.559089 C.2        1 MOL1        -0.2535
       2    H1      19.196652   20.965298   18.726915 H          1 MOL1         0.0845
       3    H2      19.487761   19.532228   17.576589 H          1 MOL1         0.0845
       4    C2      20.301430   19.340246   19.518914 C.2        1 MOL1        -0.1324
       5    H3      20.724633   18.353780   19.330649 H          1 MOL1         0.0833
       6    C3      20.536887   19.897939   20.904981 C.3        1 MOL1        -0.1813
       7    H4      20.309723   20.972504   20.926134 H          1 MOL1         0.0753
       8    H5      21.598229   19.793917   21.167391 H          1 MOL1         0.0753
       9    C4      19.671277   19.168365   21.953529 C.3        1 MOL1        -0.1855
      10    H6      18.610731   19.270598   21.685085 H          1 MOL1         0.0755
      11    H7      19.902043   18.094255   21.931929 H          1 MOL1         0.0755
      12    C5      19.902185   19.724447   23.376829 C.3        1 MOL1        -0.1855
      13    H8      19.684176   20.801012   23.384842 H          1 MOL1         0.0755
      14    H9      20.960199   19.613954   23.652675 H          1 MOL1         0.0755
      15    C6      19.018160   19.024185   24.441266 C.3        1 MOL1        -0.1958
      16    H10     19.132998   19.533184   25.405480 H          1 MOL1         0.0753
      17    H11     17.959555   19.101782   24.165233 H          1 MOL1         0.0753
      18    C7      19.358270   17.552508   24.658883 C.2        1 MOL1         0.6174
      19    O1      20.357318   17.284304   25.296900 O.co2      1 MOL1        -0.6695
      20    O2      18.610805   16.713942   24.195124 O.co2      1 MOL1        -0.6695
@<TRIPOS>BOND
    1     1     2    1
    2     1     3    1
    3     1     4    2
    4     4     5    1
    5     4     6    1
    6     6     7    1
    7     6     8    1
    8     6     9    1
    9     9    10    1
   10     9    11    1
   11     9    12    1
   12    12    13    1
   13    12    14    1
   14    12    15    1
   15    15    16    1
   16    15    17    1
   17    15    18    1
   18    18    19    1
   19    18    20    2
@<TRIPOS>SUBSTRUCTURE
       1 MOL1            1 RESIDUE      1      MOL     
@<SCITEGIC>MOL_PROPERTY
VConf Rank
SciTegic.value.IntegerValue
86

@<SCITEGIC>MOL_PROPERTY
Conf_Id
SciTegic.value.IntegerValue
54

@<SCITEGIC>MOL_PROPERTY
Delta U+W
SciTegic.value.DoubleValue
-0.048

@<SCITEGIC>MOL_PROPERTY
U+W
SciTegic.value.DoubleValue
-51.793

@<SCITEGIC>MOL_PROPERTY
Grad RMS
SciTegic.value.DoubleValue
0.000000

@<SCITEGIC>MOL_PROPERTY
U
SciTegic.value.DoubleValue
8.964

@<SCITEGIC>MOL_PROPERTY
W
SciTegic.value.DoubleValue
-60.756

@<SCITEGIC>MOL_PROPERTY
W(PB)
SciTegic.value.DoubleValue
-63.007

@<SCITEGIC>MOL_PROPERTY
W(SA)
SciTegic.value.DoubleValue
2.251

@<SCITEGIC>MOL_PROPERTY
Valence
SciTegic.value.DoubleValue
9.327

@<SCITEGIC>MOL_PROPERTY
Coulomb
SciTegic.value.DoubleValue
-0.780

@<SCITEGIC>MOL_PROPERTY
VdW
SciTegic.value.DoubleValue
0.417

@<SCITEGIC>MOL_PROPERTY
VdW6
SciTegic.value.DoubleValue
-6.635

@<SCITEGIC>MOL_PROPERTY
VdW12
SciTegic.value.DoubleValue
7.052

@<SCITEGIC>MOL_PROPERTY
Bond
SciTegic.value.DoubleValue
0.105

@<SCITEGIC>MOL_PROPERTY
Angle
SciTegic.value.DoubleValue
2.399

@<SCITEGIC>MOL_PROPERTY
Pdih
SciTegic.value.DoubleValue
6.822

@<SCITEGIC>MOL_PROPERTY
Idih
SciTegic.value.DoubleValue
0.000

@<SCITEGIC>MOL_PROPERTY
Tether
SciTegic.value.DoubleValue
0.000

@<TRIPOS>MOLECULE
guest-s22_confgen4.mol2 : confsearch ligand conformer 87
          20          19           1
SMALL
USER_CHARGES
 
@<TRIPOS>ATOM
       1    C1      17.668524   21.606164   21.203777 C.2        1 MOL1        -0.2535
       2    H1      17.603402   22.285723   20.355751 H          1 MOL1         0.0845
       3    H2      16.733731   21.247836   21.631878 H          1 MOL1         0.0845
       4    C2      18.851090   21.226813   21.695002 C.2        1 MOL1        -0.1324
       5    H3      19.774709   21.600174   21.253662 H          1 MOL1         0.0833
       6    C3      19.018529   20.292051   22.873999 C.3        1 MOL1        -0.1813
       7    H4      18.090000   20.266097   23.460251 H          1 MOL1         0.0753
       8    H5      19.796534   20.674937   23.547906 H          1 MOL1         0.0753
       9    C4      19.368863   18.851278   22.438524 C.3        1 MOL1        -0.1855
      10    H6      19.339450   18.200120   23.322894 H          1 MOL1         0.0755
      11    H7      18.596895   18.479542   21.750762 H          1 MOL1         0.0755
      12    C5      20.760579   18.746032   21.770578 C.3        1 MOL1        -0.1855
      13    H8      21.531169   19.131321   22.452619 H          1 MOL1         0.0755
      14    H9      20.785902   19.379667   20.874274 H          1 MOL1         0.0755
      15    C6      21.116530   17.293030   21.361598 C.3        1 MOL1        -0.1958
      16    H10     20.338320   16.882552   20.706825 H          1 MOL1         0.0753
      17    H11     22.049061   17.292857   20.785108 H          1 MOL1         0.0753
      18    C7      21.310231   16.345448   22.542024 C.2        1 MOL1         0.6174
      19    O1      20.429758   15.544752   22.788403 O.co2      1 MOL1        -0.6695
      20    O2      22.342925   16.426569   23.177694 O.co2      1 MOL1        -0.6695
@<TRIPOS>BOND
    1     1     2    1
    2     1     3    1
    3     1     4    2
    4     4     5    1
    5     4     6    1
    6     6     7    1
    7     6     8    1
    8     6     9    1
    9     9    10    1
   10     9    11    1
   11     9    12    1
   12    12    13    1
   13    12    14    1
   14    12    15    1
   15    15    16    1
   16    15    17    1
   17    15    18    1
   18    18    19    1
   19    18    20    2
@<TRIPOS>SUBSTRUCTURE
       1 MOL1            1 RESIDUE      1      MOL     
@<SCITEGIC>MOL_PROPERTY
VConf Rank
SciTegic.value.IntegerValue
87

@<SCITEGIC>MOL_PROPERTY
Conf_Id
SciTegic.value.IntegerValue
27

@<SCITEGIC>MOL_PROPERTY
Delta U+W
SciTegic.value.DoubleValue
0.478

@<SCITEGIC>MOL_PROPERTY
U+W
SciTegic.value.DoubleValue
-51.267

@<SCITEGIC>MOL_PROPERTY
Grad RMS
SciTegic.value.DoubleValue
0.000000

@<SCITEGIC>MOL_PROPERTY
U
SciTegic.value.DoubleValue
9.192

@<SCITEGIC>MOL_PROPERTY
W
SciTegic.value.DoubleValue
-60.459

@<SCITEGIC>MOL_PROPERTY
W(PB)
SciTegic.value.DoubleValue
-62.649

@<SCITEGIC>MOL_PROPERTY
W(SA)
SciTegic.value.DoubleValue
2.190

@<SCITEGIC>MOL_PROPERTY
Valence
SciTegic.value.DoubleValue
9.572

@<SCITEGIC>MOL_PROPERTY
Coulomb
SciTegic.value.DoubleValue
-0.884

@<SCITEGIC>MOL_PROPERTY
VdW
SciTegic.value.DoubleValue
0.504

@<SCITEGIC>MOL_PROPERTY
VdW6
SciTegic.value.DoubleValue
-7.168

@<SCITEGIC>MOL_PROPERTY
VdW12
SciTegic.value.DoubleValue
7.672

@<SCITEGIC>MOL_PROPERTY
Bond
SciTegic.value.DoubleValue
0.127

@<SCITEGIC>MOL_PROPERTY
Angle
SciTegic.value.DoubleValue
2.504

@<SCITEGIC>MOL_PROPERTY
Pdih
SciTegic.value.DoubleValue
6.941

@<SCITEGIC>MOL_PROPERTY
Idih
SciTegic.value.DoubleValue
0.001

@<SCITEGIC>MOL_PROPERTY
Tether
SciTegic.value.DoubleValue
0.000

@<TRIPOS>MOLECULE
guest-s22_confgen4.mol2 : confsearch ligand conformer 88
          20          19           1
SMALL
USER_CHARGES
 
@<TRIPOS>ATOM
       1    C1      21.541871   18.899195   19.144623 C.2        1 MOL1        -0.2535
       2    H1      22.355070   19.598640   19.331676 H          1 MOL1         0.0845
       3    H2      21.202954   18.788203   18.116025 H          1 MOL1         0.0845
       4    C2      20.977230   18.204947   20.136025 C.2        1 MOL1        -0.1324
       5    H3      20.166551   17.507743   19.926265 H          1 MOL1         0.0833
       6    C3      21.399437   18.302585   21.586544 C.3        1 MOL1        -0.1813
       7    H4      22.410784   18.726494   21.650067 H          1 MOL1         0.0753
       8    H5      21.458997   17.298461   22.027281 H          1 MOL1         0.0753
       9    C4      20.440644   19.182172   22.420272 C.3        1 MOL1        -0.1855
      10    H6      20.869560   19.321387   23.422035 H          1 MOL1         0.0755
      11    H7      20.372985   20.180187   21.965635 H          1 MOL1         0.0755
      12    C5      19.027132   18.570542   22.554183 C.3        1 MOL1        -0.1855
      13    H8      19.098811   17.562254   22.984968 H          1 MOL1         0.0755
      14    H9      18.569858   18.461891   21.561319 H          1 MOL1         0.0755
      15    C6      18.105104   19.441785   23.442361 C.3        1 MOL1        -0.1958
      16    H10     18.535779   19.549280   24.445107 H          1 MOL1         0.0753
      17    H11     18.013594   20.449155   23.018754 H          1 MOL1         0.0753
      18    C7      16.703495   18.860434   23.589226 C.2        1 MOL1         0.6174
      19    O1      15.858815   19.187594   22.779199 O.co2      1 MOL1        -0.6695
      20    O2      16.497995   18.082035   24.499482 O.co2      1 MOL1        -0.6695
@<TRIPOS>BOND
    1     1     2    1
    2     1     3    1
    3     1     4    2
    4     4     5    1
    5     4     6    1
    6     6     7    1
    7     6     8    1
    8     6     9    1
    9     9    10    1
   10     9    11    1
   11     9    12    1
   12    12    13    1
   13    12    14    1
   14    12    15    1
   15    15    16    1
   16    15    17    1
   17    15    18    1
   18    18    19    1
   19    18    20    2
@<TRIPOS>SUBSTRUCTURE
       1 MOL1            1 RESIDUE      1      MOL     
@<SCITEGIC>MOL_PROPERTY
VConf Rank
SciTegic.value.IntegerValue
88

@<SCITEGIC>MOL_PROPERTY
Conf_Id
SciTegic.value.IntegerValue
41

@<SCITEGIC>MOL_PROPERTY
Delta U+W
SciTegic.value.DoubleValue
-0.634

@<SCITEGIC>MOL_PROPERTY
U+W
SciTegic.value.DoubleValue
-52.379

@<SCITEGIC>MOL_PROPERTY
Grad RMS
SciTegic.value.DoubleValue
0.000000

@<SCITEGIC>MOL_PROPERTY
U
SciTegic.value.DoubleValue
7.828

@<SCITEGIC>MOL_PROPERTY
W
SciTegic.value.DoubleValue
-60.207

@<SCITEGIC>MOL_PROPERTY
W(PB)
SciTegic.value.DoubleValue
-62.449

@<SCITEGIC>MOL_PROPERTY
W(SA)
SciTegic.value.DoubleValue
2.242

@<SCITEGIC>MOL_PROPERTY
Valence
SciTegic.value.DoubleValue
9.300

@<SCITEGIC>MOL_PROPERTY
Coulomb
SciTegic.value.DoubleValue
-2.080

@<SCITEGIC>MOL_PROPERTY
VdW
SciTegic.value.DoubleValue
0.608

@<SCITEGIC>MOL_PROPERTY
VdW6
SciTegic.value.DoubleValue
-6.341

@<SCITEGIC>MOL_PROPERTY
VdW12
SciTegic.value.DoubleValue
6.949

@<SCITEGIC>MOL_PROPERTY
Bond
SciTegic.value.DoubleValue
0.103

@<SCITEGIC>MOL_PROPERTY
Angle
SciTegic.value.DoubleValue
2.334

@<SCITEGIC>MOL_PROPERTY
Pdih
SciTegic.value.DoubleValue
6.862

@<SCITEGIC>MOL_PROPERTY
Idih
SciTegic.value.DoubleValue
0.001

@<SCITEGIC>MOL_PROPERTY
Tether
SciTegic.value.DoubleValue
0.000

@<TRIPOS>MOLECULE
guest-s22_confgen4.mol2 : confsearch ligand conformer 89
          20          19           1
SMALL
USER_CHARGES
 
@<TRIPOS>ATOM
       1    C1      17.589035   21.196692   21.113929 C.2        1 MOL1        -0.2535
       2    H1      16.540588   21.489702   21.125885 H          1 MOL1         0.0845
       3    H2      18.320719   21.963286   20.863879 H          1 MOL1         0.0845
       4    C2      17.959129   19.945214   21.397738 C.2        1 MOL1        -0.1324
       5    H3      17.211167   19.192590   21.646285 H          1 MOL1         0.0833
       6    C3      19.393279   19.464790   21.400223 C.3        1 MOL1        -0.1813
       7    H4      20.040356   20.196620   20.898137 H          1 MOL1         0.0753
       8    H5      19.460793   18.531761   20.825894 H          1 MOL1         0.0753
       9    C4      19.898100   19.232766   22.841922 C.3        1 MOL1        -0.1855
      10    H6      19.729846   20.146833   23.427868 H          1 MOL1         0.0755
      11    H7      19.297819   18.445853   23.319090 H          1 MOL1         0.0755
      12    C5      21.400869   18.867002   22.919989 C.3        1 MOL1        -0.1855
      13    H8      21.693153   18.796501   23.976865 H          1 MOL1         0.0755
      14    H9      21.994999   19.684989   22.490673 H          1 MOL1         0.0755
      15    C6      21.776151   17.537841   22.209416 C.3        1 MOL1        -0.1958
      16    H10     21.566600   17.600208   21.135543 H          1 MOL1         0.0753
      17    H11     22.854774   17.367262   22.305236 H          1 MOL1         0.0753
      18    C7      21.070410   16.308475   22.774506 C.2        1 MOL1         0.6174
      19    O1      21.415861   15.901671   23.866559 O.co2      1 MOL1        -0.6695
      20    O2      20.207552   15.779522   22.101723 O.co2      1 MOL1        -0.6695
@<TRIPOS>BOND
    1     1     2    1
    2     1     3    1
    3     1     4    2
    4     4     5    1
    5     4     6    1
    6     6     7    1
    7     6     8    1
    8     6     9    1
    9     9    10    1
   10     9    11    1
   11     9    12    1
   12    12    13    1
   13    12    14    1
   14    12    15    1
   15    15    16    1
   16    15    17    1
   17    15    18    1
   18    18    19    1
   19    18    20    2
@<TRIPOS>SUBSTRUCTURE
       1 MOL1            1 RESIDUE      1      MOL     
@<SCITEGIC>MOL_PROPERTY
VConf Rank
SciTegic.value.IntegerValue
89

@<SCITEGIC>MOL_PROPERTY
Conf_Id
SciTegic.value.IntegerValue
84

@<SCITEGIC>MOL_PROPERTY
Delta U+W
SciTegic.value.DoubleValue
0.942

@<SCITEGIC>MOL_PROPERTY
U+W
SciTegic.value.DoubleValue
-50.803

@<SCITEGIC>MOL_PROPERTY
Grad RMS
SciTegic.value.DoubleValue
0.000000

@<SCITEGIC>MOL_PROPERTY
U
SciTegic.value.DoubleValue
10.196

@<SCITEGIC>MOL_PROPERTY
W
SciTegic.value.DoubleValue
-60.999

@<SCITEGIC>MOL_PROPERTY
W(PB)
SciTegic.value.DoubleValue
-63.182

@<SCITEGIC>MOL_PROPERTY
W(SA)
SciTegic.value.DoubleValue
2.182

@<SCITEGIC>MOL_PROPERTY
Valence
SciTegic.value.DoubleValue
9.837

@<SCITEGIC>MOL_PROPERTY
Coulomb
SciTegic.value.DoubleValue
0.032

@<SCITEGIC>MOL_PROPERTY
VdW
SciTegic.value.DoubleValue
0.328

@<SCITEGIC>MOL_PROPERTY
VdW6
SciTegic.value.DoubleValue
-7.642

@<SCITEGIC>MOL_PROPERTY
VdW12
SciTegic.value.DoubleValue
7.969

@<SCITEGIC>MOL_PROPERTY
Bond
SciTegic.value.DoubleValue
0.151

@<SCITEGIC>MOL_PROPERTY
Angle
SciTegic.value.DoubleValue
2.748

@<SCITEGIC>MOL_PROPERTY
Pdih
SciTegic.value.DoubleValue
6.937

@<SCITEGIC>MOL_PROPERTY
Idih
SciTegic.value.DoubleValue
0.001

@<SCITEGIC>MOL_PROPERTY
Tether
SciTegic.value.DoubleValue
0.000

@<TRIPOS>MOLECULE
guest-s22_confgen4.mol2 : confsearch ligand conformer 90
          20          19           1
SMALL
USER_CHARGES
 
@<TRIPOS>ATOM
       1    C1      16.522789   17.806742   22.628689 C.2        1 MOL1        -0.2535
       2    H1      15.444766   17.950464   22.578959 H          1 MOL1         0.0845
       3    H2      16.923185   16.876533   22.228717 H          1 MOL1         0.0845
       4    C2      17.319566   18.738673   23.158136 C.2        1 MOL1        -0.1324
       5    H3      16.898644   19.663386   23.552302 H          1 MOL1         0.0833
       6    C3      18.822917   18.609156   23.262186 C.3        1 MOL1        -0.1813
       7    H4      19.128012   17.568477   23.086995 H          1 MOL1         0.0753
       8    H5      19.143939   18.865531   24.280665 H          1 MOL1         0.0753
       9    C4      19.533204   19.530005   22.247991 C.3        1 MOL1        -0.1855
      10    H6      19.202645   19.272283   21.232123 H          1 MOL1         0.0755
      11    H7      19.231701   20.571510   22.425225 H          1 MOL1         0.0755
      12    C5      21.071136   19.412032   22.343815 C.3        1 MOL1        -0.1855
      13    H8      21.377402   18.373991   22.153072 H          1 MOL1         0.0755
      14    H9      21.389918   19.652718   23.367054 H          1 MOL1         0.0755
      15    C6      21.804393   20.353865   21.353780 C.3        1 MOL1        -0.1958
      16    H10     21.488534   21.391893   21.513728 H          1 MOL1         0.0753
      17    H11     22.883449   20.317420   21.544266 H          1 MOL1         0.0753
      18    C7      21.588210   19.999648   19.885213 C.2        1 MOL1         0.6174
      19    O1      20.840749   20.697505   19.228502 O.co2      1 MOL1        -0.6695
      20    O2      22.184415   19.041579   19.433825 O.co2      1 MOL1        -0.6695
@<TRIPOS>BOND
    1     1     2    1
    2     1     3    1
    3     1     4    2
    4     4     5    1
    5     4     6    1
    6     6     7    1
    7     6     8    1
    8     6     9    1
    9     9    10    1
   10     9    11    1
   11     9    12    1
   12    12    13    1
   13    12    14    1
   14    12    15    1
   15    15    16    1
   16    15    17    1
   17    15    18    1
   18    18    19    1
   19    18    20    2
@<TRIPOS>SUBSTRUCTURE
       1 MOL1            1 RESIDUE      1      MOL     
@<SCITEGIC>MOL_PROPERTY
VConf Rank
SciTegic.value.IntegerValue
90

@<SCITEGIC>MOL_PROPERTY
Conf_Id
SciTegic.value.IntegerValue
81

@<SCITEGIC>MOL_PROPERTY
Delta U+W
SciTegic.value.DoubleValue
-0.051

@<SCITEGIC>MOL_PROPERTY
U+W
SciTegic.value.DoubleValue
-51.796

@<SCITEGIC>MOL_PROPERTY
Grad RMS
SciTegic.value.DoubleValue
0.000000

@<SCITEGIC>MOL_PROPERTY
U
SciTegic.value.DoubleValue
9.412

@<SCITEGIC>MOL_PROPERTY
W
SciTegic.value.DoubleValue
-61.209

@<SCITEGIC>MOL_PROPERTY
W(PB)
SciTegic.value.DoubleValue
-63.452

@<SCITEGIC>MOL_PROPERTY
W(SA)
SciTegic.value.DoubleValue
2.243

@<SCITEGIC>MOL_PROPERTY
Valence
SciTegic.value.DoubleValue
9.329

@<SCITEGIC>MOL_PROPERTY
Coulomb
SciTegic.value.DoubleValue
-0.323

@<SCITEGIC>MOL_PROPERTY
VdW
SciTegic.value.DoubleValue
0.406

@<SCITEGIC>MOL_PROPERTY
VdW6
SciTegic.value.DoubleValue
-6.640

@<SCITEGIC>MOL_PROPERTY
VdW12
SciTegic.value.DoubleValue
7.046

@<SCITEGIC>MOL_PROPERTY
Bond
SciTegic.value.DoubleValue
0.105

@<SCITEGIC>MOL_PROPERTY
Angle
SciTegic.value.DoubleValue
2.401

@<SCITEGIC>MOL_PROPERTY
Pdih
SciTegic.value.DoubleValue
6.823

@<SCITEGIC>MOL_PROPERTY
Idih
SciTegic.value.DoubleValue
0.000

@<SCITEGIC>MOL_PROPERTY
Tether
SciTegic.value.DoubleValue
0.000

@<TRIPOS>MOLECULE
guest-s22_confgen4.mol2 : confsearch ligand conformer 91
          20          19           1
SMALL
USER_CHARGES
 
@<TRIPOS>ATOM
       1    C1      17.071283   17.145617   21.702408 C.2        1 MOL1        -0.2535
       2    H1      17.437524   16.167210   21.395738 H          1 MOL1         0.0845
       3    H2      16.049494   17.204624   22.073366 H          1 MOL1         0.0845
       4    C2      17.843302   18.233050   21.630621 C.2        1 MOL1        -0.1324
       5    H3      17.456578   19.203457   21.940429 H          1 MOL1         0.0833
       6    C3      19.268911   18.229029   21.121554 C.3        1 MOL1        -0.1813
       7    H4      19.427090   19.073069   20.437808 H          1 MOL1         0.0753
       8    H5      19.446535   17.323924   20.525358 H          1 MOL1         0.0753
       9    C4      20.306453   18.272535   22.268864 C.3        1 MOL1        -0.1855
      10    H6      20.185355   17.374090   22.889321 H          1 MOL1         0.0755
      11    H7      21.315515   18.211340   21.838724 H          1 MOL1         0.0755
      12    C5      20.214053   19.524185   23.179318 C.3        1 MOL1        -0.1855
      13    H8      20.972001   19.440516   23.970328 H          1 MOL1         0.0755
      14    H9      19.242221   19.534611   23.690326 H          1 MOL1         0.0755
      15    C6      20.414951   20.874259   22.438286 C.3        1 MOL1        -0.1958
      16    H10     19.627983   21.025330   21.690690 H          1 MOL1         0.0753
      17    H11     20.324188   21.698693   23.154999 H          1 MOL1         0.0753
      18    C7      21.772111   21.013614   21.754735 C.2        1 MOL1         0.6174
      19    O1      21.813322   20.969576   20.540878 O.co2      1 MOL1        -0.6695
      20    O2      22.751360   21.180312   22.455265 O.co2      1 MOL1        -0.6695
@<TRIPOS>BOND
    1     1     2    1
    2     1     3    1
    3     1     4    2
    4     4     5    1
    5     4     6    1
    6     6     7    1
    7     6     8    1
    8     6     9    1
    9     9    10    1
   10     9    11    1
   11     9    12    1
   12    12    13    1
   13    12    14    1
   14    12    15    1
   15    15    16    1
   16    15    17    1
   17    15    18    1
   18    18    19    1
   19    18    20    2
@<TRIPOS>SUBSTRUCTURE
       1 MOL1            1 RESIDUE      1      MOL     
@<SCITEGIC>MOL_PROPERTY
VConf Rank
SciTegic.value.IntegerValue
91

@<SCITEGIC>MOL_PROPERTY
Conf_Id
SciTegic.value.IntegerValue
86

@<SCITEGIC>MOL_PROPERTY
Delta U+W
SciTegic.value.DoubleValue
1.248

@<SCITEGIC>MOL_PROPERTY
U+W
SciTegic.value.DoubleValue
-50.498

@<SCITEGIC>MOL_PROPERTY
Grad RMS
SciTegic.value.DoubleValue
0.000000

@<SCITEGIC>MOL_PROPERTY
U
SciTegic.value.DoubleValue
10.404

@<SCITEGIC>MOL_PROPERTY
W
SciTegic.value.DoubleValue
-60.901

@<SCITEGIC>MOL_PROPERTY
W(PB)
SciTegic.value.DoubleValue
-63.061

@<SCITEGIC>MOL_PROPERTY
W(SA)
SciTegic.value.DoubleValue
2.159

@<SCITEGIC>MOL_PROPERTY
Valence
SciTegic.value.DoubleValue
10.021

@<SCITEGIC>MOL_PROPERTY
Coulomb
SciTegic.value.DoubleValue
0.094

@<SCITEGIC>MOL_PROPERTY
VdW
SciTegic.value.DoubleValue
0.289

@<SCITEGIC>MOL_PROPERTY
VdW6
SciTegic.value.DoubleValue
-8.409

@<SCITEGIC>MOL_PROPERTY
VdW12
SciTegic.value.DoubleValue
8.698

@<SCITEGIC>MOL_PROPERTY
Bond
SciTegic.value.DoubleValue
0.179

@<SCITEGIC>MOL_PROPERTY
Angle
SciTegic.value.DoubleValue
2.939

@<SCITEGIC>MOL_PROPERTY
Pdih
SciTegic.value.DoubleValue
6.902

@<SCITEGIC>MOL_PROPERTY
Idih
SciTegic.value.DoubleValue
0.001

@<SCITEGIC>MOL_PROPERTY
Tether
SciTegic.value.DoubleValue
0.000

@<TRIPOS>MOLECULE
guest-s22_confgen4.mol2 : confsearch ligand conformer 92
          20          19           1
SMALL
USER_CHARGES
 
@<TRIPOS>ATOM
       1    C1      19.298350   19.016767   25.099273 C.2        1 MOL1        -0.2535
       2    H1      19.115204   19.724462   25.905952 H          1 MOL1         0.0845
       3    H2      18.549991   18.244120   24.930757 H          1 MOL1         0.0845
       4    C2      20.397927   19.098730   24.345458 C.2        1 MOL1        -0.1324
       5    H3      21.133709   19.881185   24.529248 H          1 MOL1         0.0833
       6    C3      20.720498   18.153087   23.208022 C.3        1 MOL1        -0.1813
       7    H4      20.043858   17.287833   23.220403 H          1 MOL1         0.0753
       8    H5      21.734265   17.755338   23.349063 H          1 MOL1         0.0753
       9    C4      20.645090   18.846751   21.829180 C.3        1 MOL1        -0.1855
      10    H6      21.318627   19.714581   21.817263 H          1 MOL1         0.0755
      11    H7      21.017101   18.151567   21.064107 H          1 MOL1         0.0755
      12    C5      19.209553   19.292500   21.462929 C.3        1 MOL1        -0.1855
      13    H8      18.838947   19.992849   22.223344 H          1 MOL1         0.0755
      14    H9      18.535472   18.424907   21.478683 H          1 MOL1         0.0755
      15    C6      19.133830   19.977846   20.073829 C.3        1 MOL1        -0.1958
      16    H10     18.126107   20.380857   19.918857 H          1 MOL1         0.0753
      17    H11     19.825623   20.827853   20.032742 H          1 MOL1         0.0753
      18    C7      19.437116   19.045510   18.904430 C.2        1 MOL1         0.6174
      19    O1      18.577814   18.256523   18.563507 O.co2      1 MOL1        -0.6695
      20    O2      20.518626   19.139894   18.358066 O.co2      1 MOL1        -0.6695
@<TRIPOS>BOND
    1     1     2    1
    2     1     3    1
    3     1     4    2
    4     4     5    1
    5     4     6    1
    6     6     7    1
    7     6     8    1
    8     6     9    1
    9     9    10    1
   10     9    11    1
   11     9    12    1
   12    12    13    1
   13    12    14    1
   14    12    15    1
   15    15    16    1
   16    15    17    1
   17    15    18    1
   18    18    19    1
   19    18    20    2
@<TRIPOS>SUBSTRUCTURE
       1 MOL1            1 RESIDUE      1      MOL     
@<SCITEGIC>MOL_PROPERTY
VConf Rank
SciTegic.value.IntegerValue
92

@<SCITEGIC>MOL_PROPERTY
Conf_Id
SciTegic.value.IntegerValue
28

@<SCITEGIC>MOL_PROPERTY
Delta U+W
SciTegic.value.DoubleValue
0.446

@<SCITEGIC>MOL_PROPERTY
U+W
SciTegic.value.DoubleValue
-51.299

@<SCITEGIC>MOL_PROPERTY
Grad RMS
SciTegic.value.DoubleValue
0.000000

@<SCITEGIC>MOL_PROPERTY
U
SciTegic.value.DoubleValue
9.295

@<SCITEGIC>MOL_PROPERTY
W
SciTegic.value.DoubleValue
-60.594

@<SCITEGIC>MOL_PROPERTY
W(PB)
SciTegic.value.DoubleValue
-62.806

@<SCITEGIC>MOL_PROPERTY
W(SA)
SciTegic.value.DoubleValue
2.212

@<SCITEGIC>MOL_PROPERTY
Valence
SciTegic.value.DoubleValue
9.495

@<SCITEGIC>MOL_PROPERTY
Coulomb
SciTegic.value.DoubleValue
-0.610

@<SCITEGIC>MOL_PROPERTY
VdW
SciTegic.value.DoubleValue
0.409

@<SCITEGIC>MOL_PROPERTY
VdW6
SciTegic.value.DoubleValue
-7.332

@<SCITEGIC>MOL_PROPERTY
VdW12
SciTegic.value.DoubleValue
7.741

@<SCITEGIC>MOL_PROPERTY
Bond
SciTegic.value.DoubleValue
0.126

@<SCITEGIC>MOL_PROPERTY
Angle
SciTegic.value.DoubleValue
2.497

@<SCITEGIC>MOL_PROPERTY
Pdih
SciTegic.value.DoubleValue
6.872

@<SCITEGIC>MOL_PROPERTY
Idih
SciTegic.value.DoubleValue
0.000

@<SCITEGIC>MOL_PROPERTY
Tether
SciTegic.value.DoubleValue
0.000

@<TRIPOS>MOLECULE
guest-s22_confgen4.mol2 : confsearch ligand conformer 93
          20          19           1
SMALL
USER_CHARGES
 
@<TRIPOS>ATOM
       1    C1      17.679558   21.531907   22.477893 C.2        1 MOL1        -0.2535
       2    H1      17.892454   21.139384   23.469909 H          1 MOL1         0.0845
       3    H2      17.059777   22.425375   22.425681 H          1 MOL1         0.0845
       4    C2      18.150546   20.960943   21.363377 C.2        1 MOL1        -0.1324
       5    H3      17.904873   21.402090   20.397678 H          1 MOL1         0.0833
       6    C3      19.020951   19.718242   21.276517 C.3        1 MOL1        -0.1813
       7    H4      19.976748   19.996713   20.814387 H          1 MOL1         0.0753
       8    H5      18.549704   19.007186   20.585084 H          1 MOL1         0.0753
       9    C4      19.282686   19.008295   22.627839 C.3        1 MOL1        -0.1855
      10    H6      19.833900   19.682136   23.298119 H          1 MOL1         0.0755
      11    H7      18.320247   18.798855   23.114191 H          1 MOL1         0.0755
      12    C5      20.053066   17.672251   22.484451 C.3        1 MOL1        -0.1855
      13    H8      19.472319   16.985512   21.853966 H          1 MOL1         0.0755
      14    H9      20.122510   17.197110   23.472797 H          1 MOL1         0.0755
      15    C6      21.484781   17.813375   21.898845 C.3        1 MOL1        -0.1958
      16    H10     21.945240   16.821356   21.824453 H          1 MOL1         0.0753
      17    H11     21.448885   18.215078   20.879903 H          1 MOL1         0.0753
      18    C7      22.418075   18.684044   22.735387 C.2        1 MOL1         0.6174
      19    O1      22.799894   18.250746   23.804928 O.co2      1 MOL1        -0.6695
      20    O2      22.755489   19.762145   22.287384 O.co2      1 MOL1        -0.6695
@<TRIPOS>BOND
    1     1     2    1
    2     1     3    1
    3     1     4    2
    4     4     5    1
    5     4     6    1
    6     6     7    1
    7     6     8    1
    8     6     9    1
    9     9    10    1
   10     9    11    1
   11     9    12    1
   12    12    13    1
   13    12    14    1
   14    12    15    1
   15    15    16    1
   16    15    17    1
   17    15    18    1
   18    18    19    1
   19    18    20    2
@<TRIPOS>SUBSTRUCTURE
       1 MOL1            1 RESIDUE      1      MOL     
@<SCITEGIC>MOL_PROPERTY
VConf Rank
SciTegic.value.IntegerValue
93

@<SCITEGIC>MOL_PROPERTY
Conf_Id
SciTegic.value.IntegerValue
53

@<SCITEGIC>MOL_PROPERTY
Delta U+W
SciTegic.value.DoubleValue
0.549

@<SCITEGIC>MOL_PROPERTY
U+W
SciTegic.value.DoubleValue
-51.197

@<SCITEGIC>MOL_PROPERTY
Grad RMS
SciTegic.value.DoubleValue
0.000000

@<SCITEGIC>MOL_PROPERTY
U
SciTegic.value.DoubleValue
10.870

@<SCITEGIC>MOL_PROPERTY
W
SciTegic.value.DoubleValue
-62.067

@<SCITEGIC>MOL_PROPERTY
W(PB)
SciTegic.value.DoubleValue
-64.228

@<SCITEGIC>MOL_PROPERTY
W(SA)
SciTegic.value.DoubleValue
2.161

@<SCITEGIC>MOL_PROPERTY
Valence
SciTegic.value.DoubleValue
8.803

@<SCITEGIC>MOL_PROPERTY
Coulomb
SciTegic.value.DoubleValue
1.020

@<SCITEGIC>MOL_PROPERTY
VdW
SciTegic.value.DoubleValue
1.048

@<SCITEGIC>MOL_PROPERTY
VdW6
SciTegic.value.DoubleValue
-8.312

@<SCITEGIC>MOL_PROPERTY
VdW12
SciTegic.value.DoubleValue
9.360

@<SCITEGIC>MOL_PROPERTY
Bond
SciTegic.value.DoubleValue
0.212

@<SCITEGIC>MOL_PROPERTY
Angle
SciTegic.value.DoubleValue
3.379

@<SCITEGIC>MOL_PROPERTY
Pdih
SciTegic.value.DoubleValue
5.211

@<SCITEGIC>MOL_PROPERTY
Idih
SciTegic.value.DoubleValue
0.001

@<SCITEGIC>MOL_PROPERTY
Tether
SciTegic.value.DoubleValue
0.000

@<TRIPOS>MOLECULE
guest-s22_confgen4.mol2 : confsearch ligand conformer 94
          20          19           1
SMALL
USER_CHARGES
 
@<TRIPOS>ATOM
       1    C1      22.262701   19.996473   22.257084 C.2        1 MOL1        -0.2535
       2    H1      22.465326   18.987506   22.609543 H          1 MOL1         0.0845
       3    H2      22.899803   20.791274   22.640902 H          1 MOL1         0.0845
       4    C2      21.282902   20.263331   21.386776 C.2        1 MOL1        -0.1324
       5    H3      21.124008   21.291703   21.063502 H          1 MOL1         0.0833
       6    C3      20.319376   19.258320   20.777301 C.3        1 MOL1        -0.1813
       7    H4      20.677468   18.991136   19.774413 H          1 MOL1         0.0753
       8    H5      19.352405   19.748729   20.606872 H          1 MOL1         0.0753
       9    C4      20.084372   17.962540   21.596752 C.3        1 MOL1        -0.1855
      10    H6      19.432540   17.295452   21.016282 H          1 MOL1         0.0755
      11    H7      21.034220   17.423166   21.707148 H          1 MOL1         0.0755
      12    C5      19.454920   18.184310   22.997275 C.3        1 MOL1        -0.1855
      13    H8      20.131008   18.789787   23.614411 H          1 MOL1         0.0755
      14    H9      19.370175   17.212374   23.502425 H          1 MOL1         0.0755
      15    C6      18.055012   18.856693   22.975392 C.3        1 MOL1        -0.1958
      16    H10     17.694231   18.976172   24.003560 H          1 MOL1         0.0753
      17    H11     18.118086   19.864980   22.550679 H          1 MOL1         0.0753
      18    C7      16.995613   18.068193   22.210953 C.2        1 MOL1         0.6174
      19    O1      16.615345   18.500993   21.140795 O.co2      1 MOL1        -0.6695
      20    O2      16.565057   17.049657   22.715644 O.co2      1 MOL1        -0.6695
@<TRIPOS>BOND
    1     1     2    1
    2     1     3    1
    3     1     4    2
    4     4     5    1
    5     4     6    1
    6     6     7    1
    7     6     8    1
    8     6     9    1
    9     9    10    1
   10     9    11    1
   11     9    12    1
   12    12    13    1
   13    12    14    1
   14    12    15    1
   15    15    16    1
   16    15    17    1
   17    15    18    1
   18    18    19    1
   19    18    20    2
@<TRIPOS>SUBSTRUCTURE
       1 MOL1            1 RESIDUE      1      MOL     
@<SCITEGIC>MOL_PROPERTY
VConf Rank
SciTegic.value.IntegerValue
94

@<SCITEGIC>MOL_PROPERTY
Conf_Id
SciTegic.value.IntegerValue
66

@<SCITEGIC>MOL_PROPERTY
Delta U+W
SciTegic.value.DoubleValue
1.737

@<SCITEGIC>MOL_PROPERTY
U+W
SciTegic.value.DoubleValue
-50.008

@<SCITEGIC>MOL_PROPERTY
Grad RMS
SciTegic.value.DoubleValue
0.000000

@<SCITEGIC>MOL_PROPERTY
U
SciTegic.value.DoubleValue
11.091

@<SCITEGIC>MOL_PROPERTY
W
SciTegic.value.DoubleValue
-61.099

@<SCITEGIC>MOL_PROPERTY
W(PB)
SciTegic.value.DoubleValue
-63.213

@<SCITEGIC>MOL_PROPERTY
W(SA)
SciTegic.value.DoubleValue
2.114

@<SCITEGIC>MOL_PROPERTY
Valence
SciTegic.value.DoubleValue
9.664

@<SCITEGIC>MOL_PROPERTY
Coulomb
SciTegic.value.DoubleValue
0.658

@<SCITEGIC>MOL_PROPERTY
VdW
SciTegic.value.DoubleValue
0.769

@<SCITEGIC>MOL_PROPERTY
VdW6
SciTegic.value.DoubleValue
-9.171

@<SCITEGIC>MOL_PROPERTY
VdW12
SciTegic.value.DoubleValue
9.940

@<SCITEGIC>MOL_PROPERTY
Bond
SciTegic.value.DoubleValue
0.244

@<SCITEGIC>MOL_PROPERTY
Angle
SciTegic.value.DoubleValue
3.658

@<SCITEGIC>MOL_PROPERTY
Pdih
SciTegic.value.DoubleValue
5.762

@<SCITEGIC>MOL_PROPERTY
Idih
SciTegic.value.DoubleValue
0.001

@<SCITEGIC>MOL_PROPERTY
Tether
SciTegic.value.DoubleValue
0.000

@<TRIPOS>MOLECULE
guest-s22_confgen4.mol2 : confsearch ligand conformer 95
          20          19           1
SMALL
USER_CHARGES
 
@<TRIPOS>ATOM
       1    C1      17.077443   19.633402   21.068144 C.2        1 MOL1        -0.2535
       2    H1      16.963179   18.597451   21.379485 H          1 MOL1         0.0845
       3    H2      16.218929   20.288092   21.206956 H          1 MOL1         0.0845
       4    C2      18.212203   20.096047   20.532270 C.2        1 MOL1        -0.1324
       5    H3      18.271113   21.142865   20.235551 H          1 MOL1         0.0833
       6    C3      19.485306   19.302943   20.285708 C.3        1 MOL1        -0.1813
       7    H4      20.349157   19.962464   20.435520 H          1 MOL1         0.0753
       8    H5      19.525003   19.025882   19.223991 H          1 MOL1         0.0753
       9    C4      19.668784   18.028464   21.150784 C.3        1 MOL1        -0.1855
      10    H6      18.836866   17.337141   20.962425 H          1 MOL1         0.0755
      11    H7      20.572596   17.502375   20.814654 H          1 MOL1         0.0755
      12    C5      19.784693   18.290546   22.674128 C.3        1 MOL1        -0.1855
      13    H8      19.824631   17.323078   23.193350 H          1 MOL1         0.0755
      14    H9      18.883696   18.799182   23.041676 H          1 MOL1         0.0755
      15    C6      21.036471   19.117199   23.067340 C.3        1 MOL1        -0.1958
      16    H10     21.942189   18.649049   22.664028 H          1 MOL1         0.0753
      17    H11     20.976847   20.128140   22.648669 H          1 MOL1         0.0753
      18    C7      21.205699   19.249064   24.576717 C.2        1 MOL1         0.6174
      19    O1      20.703799   20.207464   25.130176 O.co2      1 MOL1        -0.6695
      20    O2      21.823494   18.381533   25.162082 O.co2      1 MOL1        -0.6695
@<TRIPOS>BOND
    1     1     2    1
    2     1     3    1
    3     1     4    2
    4     4     5    1
    5     4     6    1
    6     6     7    1
    7     6     8    1
    8     6     9    1
    9     9    10    1
   10     9    11    1
   11     9    12    1
   12    12    13    1
   13    12    14    1
   14    12    15    1
   15    15    16    1
   16    15    17    1
   17    15    18    1
   18    18    19    1
   19    18    20    2
@<TRIPOS>SUBSTRUCTURE
       1 MOL1            1 RESIDUE      1      MOL     
@<SCITEGIC>MOL_PROPERTY
VConf Rank
SciTegic.value.IntegerValue
95

@<SCITEGIC>MOL_PROPERTY
Conf_Id
SciTegic.value.IntegerValue
64

@<SCITEGIC>MOL_PROPERTY
Delta U+W
SciTegic.value.DoubleValue
0.366

@<SCITEGIC>MOL_PROPERTY
U+W
SciTegic.value.DoubleValue
-51.379

@<SCITEGIC>MOL_PROPERTY
Grad RMS
SciTegic.value.DoubleValue
0.000000

@<SCITEGIC>MOL_PROPERTY
U
SciTegic.value.DoubleValue
10.000

@<SCITEGIC>MOL_PROPERTY
W
SciTegic.value.DoubleValue
-61.379

@<SCITEGIC>MOL_PROPERTY
W(PB)
SciTegic.value.DoubleValue
-63.541

@<SCITEGIC>MOL_PROPERTY
W(SA)
SciTegic.value.DoubleValue
2.162

@<SCITEGIC>MOL_PROPERTY
Valence
SciTegic.value.DoubleValue
9.398

@<SCITEGIC>MOL_PROPERTY
Coulomb
SciTegic.value.DoubleValue
-0.504

@<SCITEGIC>MOL_PROPERTY
VdW
SciTegic.value.DoubleValue
1.105

@<SCITEGIC>MOL_PROPERTY
VdW6
SciTegic.value.DoubleValue
-7.975

@<SCITEGIC>MOL_PROPERTY
VdW12
SciTegic.value.DoubleValue
9.080

@<SCITEGIC>MOL_PROPERTY
Bond
SciTegic.value.DoubleValue
0.216

@<SCITEGIC>MOL_PROPERTY
Angle
SciTegic.value.DoubleValue
3.417

@<SCITEGIC>MOL_PROPERTY
Pdih
SciTegic.value.DoubleValue
5.765

@<SCITEGIC>MOL_PROPERTY
Idih
SciTegic.value.DoubleValue
0.001

@<SCITEGIC>MOL_PROPERTY
Tether
SciTegic.value.DoubleValue
0.000

@<TRIPOS>MOLECULE
guest-s22_confgen4.mol2 : confsearch ligand conformer 96
          20          19           1
SMALL
USER_CHARGES
 
@<TRIPOS>ATOM
       1    C1      17.157382   20.146584   21.613514 C.2        1 MOL1        -0.2535
       2    H1      16.923761   19.791812   22.615999 H          1 MOL1         0.0845
       3    H2      16.397208   20.014918   20.845462 H          1 MOL1         0.0845
       4    C2      18.331390   20.717953   21.331989 C.2        1 MOL1        -0.1324
       5    H3      18.546331   21.064040   20.321337 H          1 MOL1         0.0833
       6    C3      19.435473   20.934119   22.345029 C.3        1 MOL1        -0.1813
       7    H4      19.067440   20.749328   23.363400 H          1 MOL1         0.0753
       8    H5      19.748717   21.986180   22.315212 H          1 MOL1         0.0753
       9    C4      20.665489   20.039803   22.070803 C.3        1 MOL1        -0.1855
      10    H6      21.033084   20.224211   21.052004 H          1 MOL1         0.0755
      11    H7      21.474728   20.330310   22.754630 H          1 MOL1         0.0755
      12    C5      20.361514   18.535217   22.253575 C.3        1 MOL1        -0.1855
      13    H8      19.571357   18.225759   21.555638 H          1 MOL1         0.0755
      14    H9      19.977944   18.355712   23.267449 H          1 MOL1         0.0755
      15    C6      21.617776   17.660757   22.018746 C.3        1 MOL1        -0.1958
      16    H10     22.005319   17.819832   21.005290 H          1 MOL1         0.0753
      17    H11     22.413032   17.944139   22.718567 H          1 MOL1         0.0753
      18    C7      21.343131   16.171363   22.193012 C.2        1 MOL1         0.6174
      19    O1      21.457384   15.693374   23.304417 O.co2      1 MOL1        -0.6695
      20    O2      21.008664   15.531202   21.215762 O.co2      1 MOL1        -0.6695
@<TRIPOS>BOND
    1     1     2    1
    2     1     3    1
    3     1     4    2
    4     4     5    1
    5     4     6    1
    6     6     7    1
    7     6     8    1
    8     6     9    1
    9     9    10    1
   10     9    11    1
   11     9    12    1
   12    12    13    1
   13    12    14    1
   14    12    15    1
   15    15    16    1
   16    15    17    1
   17    15    18    1
   18    18    19    1
   19    18    20    2
@<TRIPOS>SUBSTRUCTURE
       1 MOL1            1 RESIDUE      1      MOL     
@<SCITEGIC>MOL_PROPERTY
VConf Rank
SciTegic.value.IntegerValue
96

@<SCITEGIC>MOL_PROPERTY
Conf_Id
SciTegic.value.IntegerValue
42

@<SCITEGIC>MOL_PROPERTY
Delta U+W
SciTegic.value.DoubleValue
-0.601

@<SCITEGIC>MOL_PROPERTY
U+W
SciTegic.value.DoubleValue
-52.347

@<SCITEGIC>MOL_PROPERTY
Grad RMS
SciTegic.value.DoubleValue
0.000000

@<SCITEGIC>MOL_PROPERTY
U
SciTegic.value.DoubleValue
8.428

@<SCITEGIC>MOL_PROPERTY
W
SciTegic.value.DoubleValue
-60.774

@<SCITEGIC>MOL_PROPERTY
W(PB)
SciTegic.value.DoubleValue
-62.982

@<SCITEGIC>MOL_PROPERTY
W(SA)
SciTegic.value.DoubleValue
2.208

@<SCITEGIC>MOL_PROPERTY
Valence
SciTegic.value.DoubleValue
9.231

@<SCITEGIC>MOL_PROPERTY
Coulomb
SciTegic.value.DoubleValue
-1.304

@<SCITEGIC>MOL_PROPERTY
VdW
SciTegic.value.DoubleValue
0.501

@<SCITEGIC>MOL_PROPERTY
VdW6
SciTegic.value.DoubleValue
-6.515

@<SCITEGIC>MOL_PROPERTY
VdW12
SciTegic.value.DoubleValue
7.016

@<SCITEGIC>MOL_PROPERTY
Bond
SciTegic.value.DoubleValue
0.103

@<SCITEGIC>MOL_PROPERTY
Angle
SciTegic.value.DoubleValue
2.328

@<SCITEGIC>MOL_PROPERTY
Pdih
SciTegic.value.DoubleValue
6.799

@<SCITEGIC>MOL_PROPERTY
Idih
SciTegic.value.DoubleValue
0.000

@<SCITEGIC>MOL_PROPERTY
Tether
SciTegic.value.DoubleValue
0.000

@<TRIPOS>MOLECULE
guest-s22_confgen4.mol2 : confsearch ligand conformer 97
          20          19           1
SMALL
USER_CHARGES
 
@<TRIPOS>ATOM
       1    C1      18.130747   19.954621   19.577482 C.2        1 MOL1        -0.2535
       2    H1      18.056953   21.009795   19.835469 H          1 MOL1         0.0845
       3    H2      17.271975   19.496678   19.089738 H          1 MOL1         0.0845
       4    C2      19.228886   19.245071   19.850712 C.2        1 MOL1        -0.1324
       5    H3      19.281334   18.189151   19.586730 H          1 MOL1         0.0833
       6    C3      20.459502   19.811043   20.526851 C.3        1 MOL1        -0.1813
       7    H4      20.402541   20.906767   20.579324 H          1 MOL1         0.0753
       8    H5      21.343210   19.575612   19.919033 H          1 MOL1         0.0753
       9    C4      20.663937   19.236065   21.946557 C.3        1 MOL1        -0.1855
      10    H6      20.727415   18.140524   21.890901 H          1 MOL1         0.0755
      11    H7      21.629646   19.585918   22.336109 H          1 MOL1         0.0755
      12    C5      19.540330   19.650620   22.925802 C.3        1 MOL1        -0.1855
      13    H8      18.572831   19.270618   22.569573 H          1 MOL1         0.0755
      14    H9      19.461499   20.745936   22.943097 H          1 MOL1         0.0755
      15    C6      19.788994   19.139921   24.368776 C.3        1 MOL1        -0.1958
      16    H10     20.762403   19.490295   24.732701 H          1 MOL1         0.0753
      17    H11     19.029898   19.557198   25.040821 H          1 MOL1         0.0753
      18    C7      19.736000   17.620999   24.506174 C.2        1 MOL1         0.6174
      19    O1      20.784917   17.014532   24.601749 O.co2      1 MOL1        -0.6695
      20    O2      18.644951   17.086187   24.532315 O.co2      1 MOL1        -0.6695
@<TRIPOS>BOND
    1     1     2    1
    2     1     3    1
    3     1     4    2
    4     4     5    1
    5     4     6    1
    6     6     7    1
    7     6     8    1
    8     6     9    1
    9     9    10    1
   10     9    11    1
   11     9    12    1
   12    12    13    1
   13    12    14    1
   14    12    15    1
   15    15    16    1
   16    15    17    1
   17    15    18    1
   18    18    19    1
   19    18    20    2
@<TRIPOS>SUBSTRUCTURE
       1 MOL1            1 RESIDUE      1      MOL     
@<SCITEGIC>MOL_PROPERTY
VConf Rank
SciTegic.value.IntegerValue
97

@<SCITEGIC>MOL_PROPERTY
Conf_Id
SciTegic.value.IntegerValue
68

@<SCITEGIC>MOL_PROPERTY
Delta U+W
SciTegic.value.DoubleValue
0.492

@<SCITEGIC>MOL_PROPERTY
U+W
SciTegic.value.DoubleValue
-51.253

@<SCITEGIC>MOL_PROPERTY
Grad RMS
SciTegic.value.DoubleValue
0.000000

@<SCITEGIC>MOL_PROPERTY
U
SciTegic.value.DoubleValue
10.179

@<SCITEGIC>MOL_PROPERTY
W
SciTegic.value.DoubleValue
-61.432

@<SCITEGIC>MOL_PROPERTY
W(PB)
SciTegic.value.DoubleValue
-63.627

@<SCITEGIC>MOL_PROPERTY
W(SA)
SciTegic.value.DoubleValue
2.195

@<SCITEGIC>MOL_PROPERTY
Valence
SciTegic.value.DoubleValue
9.483

@<SCITEGIC>MOL_PROPERTY
Coulomb
SciTegic.value.DoubleValue
0.361

@<SCITEGIC>MOL_PROPERTY
VdW
SciTegic.value.DoubleValue
0.335

@<SCITEGIC>MOL_PROPERTY
VdW6
SciTegic.value.DoubleValue
-7.385

@<SCITEGIC>MOL_PROPERTY
VdW12
SciTegic.value.DoubleValue
7.720

@<SCITEGIC>MOL_PROPERTY
Bond
SciTegic.value.DoubleValue
0.125

@<SCITEGIC>MOL_PROPERTY
Angle
SciTegic.value.DoubleValue
2.487

@<SCITEGIC>MOL_PROPERTY
Pdih
SciTegic.value.DoubleValue
6.870

@<SCITEGIC>MOL_PROPERTY
Idih
SciTegic.value.DoubleValue
0.001

@<SCITEGIC>MOL_PROPERTY
Tether
SciTegic.value.DoubleValue
0.000

@<TRIPOS>MOLECULE
guest-s22_confgen4.mol2 : confsearch ligand conformer 98
          20          19           1
SMALL
USER_CHARGES
 
@<TRIPOS>ATOM
       1    C1      21.331675   18.093794   24.561686 C.2        1 MOL1        -0.2535
       2    H1      22.346530   18.059480   24.168770 H          1 MOL1         0.0845
       3    H2      21.051362   17.337090   25.292439 H          1 MOL1         0.0845
       4    C2      20.460453   19.024111   24.162713 C.2        1 MOL1        -0.1324
       5    H3      19.450334   19.041903   24.570866 H          1 MOL1         0.0833
       6    C3      20.780482   20.109110   23.156662 C.3        1 MOL1        -0.1813
       7    H4      21.869313   20.227110   23.072746 H          1 MOL1         0.0753
       8    H5      20.393299   21.073760   23.510972 H          1 MOL1         0.0753
       9    C4      20.206768   19.799544   21.755519 C.3        1 MOL1        -0.1855
      10    H6      20.580184   20.550482   21.046012 H          1 MOL1         0.0755
      11    H7      20.589298   18.828035   21.412825 H          1 MOL1         0.0755
      12    C5      18.659886   19.798223   21.725804 C.3        1 MOL1        -0.1855
      13    H8      18.289072   20.755320   22.116665 H          1 MOL1         0.0755
      14    H9      18.271347   19.013226   22.388854 H          1 MOL1         0.0755
      15    C6      18.092584   19.583855   20.298545 C.3        1 MOL1        -0.1958
      16    H10     17.003322   19.707319   20.314971 H          1 MOL1         0.0753
      17    H11     18.487978   20.344746   19.614826 H          1 MOL1         0.0753
      18    C7      18.387433   18.204875   19.715178 C.2        1 MOL1         0.6174
      19    O1      17.718828   17.265776   20.100100 O.co2      1 MOL1        -0.6695
      20    O2      19.263325   18.109032   18.878069 O.co2      1 MOL1        -0.6695
@<TRIPOS>BOND
    1     1     2    1
    2     1     3    1
    3     1     4    2
    4     4     5    1
    5     4     6    1
    6     6     7    1
    7     6     8    1
    8     6     9    1
    9     9    10    1
   10     9    11    1
   11     9    12    1
   12    12    13    1
   13    12    14    1
   14    12    15    1
   15    15    16    1
   16    15    17    1
   17    15    18    1
   18    18    19    1
   19    18    20    2
@<TRIPOS>SUBSTRUCTURE
       1 MOL1            1 RESIDUE      1      MOL     
@<SCITEGIC>MOL_PROPERTY
VConf Rank
SciTegic.value.IntegerValue
98

@<SCITEGIC>MOL_PROPERTY
Conf_Id
SciTegic.value.IntegerValue
87

@<SCITEGIC>MOL_PROPERTY
Delta U+W
SciTegic.value.DoubleValue
0.339

@<SCITEGIC>MOL_PROPERTY
U+W
SciTegic.value.DoubleValue
-51.407

@<SCITEGIC>MOL_PROPERTY
Grad RMS
SciTegic.value.DoubleValue
0.000000

@<SCITEGIC>MOL_PROPERTY
U
SciTegic.value.DoubleValue
10.461

@<SCITEGIC>MOL_PROPERTY
W
SciTegic.value.DoubleValue
-61.867

@<SCITEGIC>MOL_PROPERTY
W(PB)
SciTegic.value.DoubleValue
-64.045

@<SCITEGIC>MOL_PROPERTY
W(SA)
SciTegic.value.DoubleValue
2.178

@<SCITEGIC>MOL_PROPERTY
Valence
SciTegic.value.DoubleValue
9.555

@<SCITEGIC>MOL_PROPERTY
Coulomb
SciTegic.value.DoubleValue
0.483

@<SCITEGIC>MOL_PROPERTY
VdW
SciTegic.value.DoubleValue
0.423

@<SCITEGIC>MOL_PROPERTY
VdW6
SciTegic.value.DoubleValue
-7.223

@<SCITEGIC>MOL_PROPERTY
VdW12
SciTegic.value.DoubleValue
7.646

@<SCITEGIC>MOL_PROPERTY
Bond
SciTegic.value.DoubleValue
0.126

@<SCITEGIC>MOL_PROPERTY
Angle
SciTegic.value.DoubleValue
2.492

@<SCITEGIC>MOL_PROPERTY
Pdih
SciTegic.value.DoubleValue
6.936

@<SCITEGIC>MOL_PROPERTY
Idih
SciTegic.value.DoubleValue
0.001

@<SCITEGIC>MOL_PROPERTY
Tether
SciTegic.value.DoubleValue
0.000

@<TRIPOS>MOLECULE
guest-s22_confgen4.mol2 : confsearch ligand conformer 99
          20          19           1
SMALL
USER_CHARGES
 
@<TRIPOS>ATOM
       1    C1      18.908260   19.369295   19.240294 C.2        1 MOL1        -0.2535
       2    H1      17.846787   19.607336   19.285325 H          1 MOL1         0.0845
       3    H2      19.509281   19.892532   18.498662 H          1 MOL1         0.0845
       4    C2      19.454908   18.471542   20.064265 C.2        1 MOL1        -0.1324
       5    H3      20.517390   18.240240   19.997798 H          1 MOL1         0.0833
       6    C3      18.678025   17.698777   21.108725 C.3        1 MOL1        -0.1813
       7    H4      19.235001   16.801862   21.410813 H          1 MOL1         0.0753
       8    H5      17.749291   17.332394   20.650877 H          1 MOL1         0.0753
       9    C4      18.311175   18.540299   22.356294 C.3        1 MOL1        -0.1855
      10    H6      17.923442   19.520713   22.047448 H          1 MOL1         0.0755
      11    H7      17.481165   18.036709   22.870312 H          1 MOL1         0.0755
      12    C5      19.458519   18.720801   23.382022 C.3        1 MOL1        -0.1855
      13    H8      19.852939   17.739018   23.677951 H          1 MOL1         0.0755
      14    H9      19.038795   19.170426   24.292603 H          1 MOL1         0.0755
      15    C6      20.621025   19.618541   22.886132 C.3        1 MOL1        -0.1958
      16    H10     21.161703   19.131375   22.068565 H          1 MOL1         0.0753
      17    H11     20.230021   20.567637   22.500573 H          1 MOL1         0.0753
      18    C7      21.632765   19.932475   23.982242 C.2        1 MOL1         0.6174
      19    O1      22.558328   19.162360   24.147005 O.co2      1 MOL1        -0.6695
      20    O2      21.457534   20.927979   24.656890 O.co2      1 MOL1        -0.6695
@<TRIPOS>BOND
    1     1     2    1
    2     1     3    1
    3     1     4    2
    4     4     5    1
    5     4     6    1
    6     6     7    1
    7     6     8    1
    8     6     9    1
    9     9    10    1
   10     9    11    1
   11     9    12    1
   12    12    13    1
   13    12    14    1
   14    12    15    1
   15    15    16    1
   16    15    17    1
   17    15    18    1
   18    18    19    1
   19    18    20    2
@<TRIPOS>SUBSTRUCTURE
       1 MOL1            1 RESIDUE      1      MOL     
@<SCITEGIC>MOL_PROPERTY
VConf Rank
SciTegic.value.IntegerValue
99

@<SCITEGIC>MOL_PROPERTY
Conf_Id
SciTegic.value.IntegerValue
51

@<SCITEGIC>MOL_PROPERTY
Delta U+W
SciTegic.value.DoubleValue
1.709

@<SCITEGIC>MOL_PROPERTY
U+W
SciTegic.value.DoubleValue
-50.036

@<SCITEGIC>MOL_PROPERTY
Grad RMS
SciTegic.value.DoubleValue
0.000000

@<SCITEGIC>MOL_PROPERTY
U
SciTegic.value.DoubleValue
10.643

@<SCITEGIC>MOL_PROPERTY
W
SciTegic.value.DoubleValue
-60.679

@<SCITEGIC>MOL_PROPERTY
W(PB)
SciTegic.value.DoubleValue
-62.882

@<SCITEGIC>MOL_PROPERTY
W(SA)
SciTegic.value.DoubleValue
2.203

@<SCITEGIC>MOL_PROPERTY
Valence
SciTegic.value.DoubleValue
11.231

@<SCITEGIC>MOL_PROPERTY
Coulomb
SciTegic.value.DoubleValue
-1.077

@<SCITEGIC>MOL_PROPERTY
VdW
SciTegic.value.DoubleValue
0.489

@<SCITEGIC>MOL_PROPERTY
VdW6
SciTegic.value.DoubleValue
-7.546

@<SCITEGIC>MOL_PROPERTY
VdW12
SciTegic.value.DoubleValue
8.035

@<SCITEGIC>MOL_PROPERTY
Bond
SciTegic.value.DoubleValue
0.159

@<SCITEGIC>MOL_PROPERTY
Angle
SciTegic.value.DoubleValue
3.005

@<SCITEGIC>MOL_PROPERTY
Pdih
SciTegic.value.DoubleValue
8.065

@<SCITEGIC>MOL_PROPERTY
Idih
SciTegic.value.DoubleValue
0.002

@<SCITEGIC>MOL_PROPERTY
Tether
SciTegic.value.DoubleValue
0.000

@<TRIPOS>MOLECULE
guest-s22_confgen4.mol2 : confsearch ligand conformer 100
          20          19           1
SMALL
USER_CHARGES
 
@<TRIPOS>ATOM
       1    C1      17.218132   20.391592   22.765398 C.2        1 MOL1        -0.2535
       2    H1      17.067114   20.015949   23.776092 H          1 MOL1         0.0845
       3    H2      16.332842   20.560477   22.154858 H          1 MOL1         0.0845
       4    C2      18.442269   20.634167   22.289626 C.2        1 MOL1        -0.1324
       5    H3      18.572537   21.018424   21.278601 H          1 MOL1         0.0833
       6    C3      19.714179   20.434321   23.085810 C.3        1 MOL1        -0.1813
       7    H4      19.566664   20.857038   24.088784 H          1 MOL1         0.0753
       8    H5      20.536868   21.008255   22.638914 H          1 MOL1         0.0753
       9    C4      20.124461   18.948215   23.235241 C.3        1 MOL1        -0.1855
      10    H6      20.815480   18.873293   24.085896 H          1 MOL1         0.0755
      11    H7      19.248766   18.341920   23.504492 H          1 MOL1         0.0755
      12    C5      20.833444   18.339564   21.999121 C.3        1 MOL1        -0.1855
      13    H8      21.233440   17.355761   22.281300 H          1 MOL1         0.0755
      14    H9      21.700192   18.956217   21.724301 H          1 MOL1         0.0755
      15    C6      19.914866   18.156409   20.763833 C.3        1 MOL1        -0.1958
      16    H10     19.000119   17.622057   21.046727 H          1 MOL1         0.0753
      17    H11     19.614216   19.128439   20.360285 H          1 MOL1         0.0753
      18    C7      20.588458   17.380707   19.637698 C.2        1 MOL1         0.6174
      19    O1      21.235330   18.003214   18.818594 O.co2      1 MOL1        -0.6695
      20    O2      20.465866   16.171760   19.620370 O.co2      1 MOL1        -0.6695
@<TRIPOS>BOND
    1     1     2    1
    2     1     3    1
    3     1     4    2
    4     4     5    1
    5     4     6    1
    6     6     7    1
    7     6     8    1
    8     6     9    1
    9     9    10    1
   10     9    11    1
   11     9    12    1
   12    12    13    1
   13    12    14    1
   14    12    15    1
   15    15    16    1
   16    15    17    1
   17    15    18    1
   18    18    19    1
   19    18    20    2
@<TRIPOS>SUBSTRUCTURE
       1 MOL1            1 RESIDUE      1      MOL     
@<SCITEGIC>MOL_PROPERTY
VConf Rank
SciTegic.value.IntegerValue
100

@<SCITEGIC>MOL_PROPERTY
Conf_Id
SciTegic.value.IntegerValue
91

@<SCITEGIC>MOL_PROPERTY
Delta U+W
SciTegic.value.DoubleValue
1.604

@<SCITEGIC>MOL_PROPERTY
U+W
SciTegic.value.DoubleValue
-50.141

@<SCITEGIC>MOL_PROPERTY
Grad RMS
SciTegic.value.DoubleValue
0.000000

@<SCITEGIC>MOL_PROPERTY
U
SciTegic.value.DoubleValue
10.644

@<SCITEGIC>MOL_PROPERTY
W
SciTegic.value.DoubleValue
-60.786

@<SCITEGIC>MOL_PROPERTY
W(PB)
SciTegic.value.DoubleValue
-62.965

@<SCITEGIC>MOL_PROPERTY
W(SA)
SciTegic.value.DoubleValue
2.179

@<SCITEGIC>MOL_PROPERTY
Valence
SciTegic.value.DoubleValue
11.230

@<SCITEGIC>MOL_PROPERTY
Coulomb
SciTegic.value.DoubleValue
-1.075

@<SCITEGIC>MOL_PROPERTY
VdW
SciTegic.value.DoubleValue
0.489

@<SCITEGIC>MOL_PROPERTY
VdW6
SciTegic.value.DoubleValue
-7.547

@<SCITEGIC>MOL_PROPERTY
VdW12
SciTegic.value.DoubleValue
8.036

@<SCITEGIC>MOL_PROPERTY
Bond
SciTegic.value.DoubleValue
0.159

@<SCITEGIC>MOL_PROPERTY
Angle
SciTegic.value.DoubleValue
3.006

@<SCITEGIC>MOL_PROPERTY
Pdih
SciTegic.value.DoubleValue
8.064

@<SCITEGIC>MOL_PROPERTY
Idih
SciTegic.value.DoubleValue
0.002

@<SCITEGIC>MOL_PROPERTY
Tether
SciTegic.value.DoubleValue
0.000

@<TRIPOS>MOLECULE
guest-s22_confgen4.mol2 : confsearch ligand conformer 101
          20          19           1
SMALL
USER_CHARGES
 
@<TRIPOS>ATOM
       1    C1      22.287001   20.719822   19.749880 C.2        1 MOL1        -0.2535
       2    H1      23.064113   20.147102   20.253546 H          1 MOL1         0.0845
       3    H2      22.589810   21.629674   19.234368 H          1 MOL1         0.0845
       4    C2      21.010748   20.326577   19.763606 C.2        1 MOL1        -0.1324
       5    H3      20.248052   20.914780   19.253735 H          1 MOL1         0.0833
       6    C3      20.516347   19.076328   20.456490 C.3        1 MOL1        -0.1813
       7    H4      21.361902   18.422632   20.710504 H          1 MOL1         0.0753
       8    H5      19.871806   18.507735   19.772815 H          1 MOL1         0.0753
       9    C4      19.731774   19.423381   21.739016 C.3        1 MOL1        -0.1855
      10    H6      20.379572   19.995573   22.417499 H          1 MOL1         0.0755
      11    H7      18.883556   20.073435   21.483838 H          1 MOL1         0.0755
      12    C5      19.216786   18.157328   22.458051 C.3        1 MOL1        -0.1855
      13    H8      20.064668   17.506861   22.714042 H          1 MOL1         0.0755
      14    H9      18.569854   17.584003   21.779595 H          1 MOL1         0.0755
      15    C6      18.428383   18.506793   23.748281 C.3        1 MOL1        -0.1958
      16    H10     19.070236   19.073654   24.432830 H          1 MOL1         0.0753
      17    H11     17.576750   19.150757   23.499404 H          1 MOL1         0.0753
      18    C7      17.881726   17.307233   24.523871 C.2        1 MOL1         0.6174
      19    O1      17.257411   17.541463   25.539502 O.co2      1 MOL1        -0.6695
      20    O2      18.082581   16.180810   24.112197 O.co2      1 MOL1        -0.6695
@<TRIPOS>BOND
    1     1     2    1
    2     1     3    1
    3     1     4    2
    4     4     5    1
    5     4     6    1
    6     6     7    1
    7     6     8    1
    8     6     9    1
    9     9    10    1
   10     9    11    1
   11     9    12    1
   12    12    13    1
   13    12    14    1
   14    12    15    1
   15    15    16    1
   16    15    17    1
   17    15    18    1
   18    18    19    1
   19    18    20    2
@<TRIPOS>SUBSTRUCTURE
       1 MOL1            1 RESIDUE      1      MOL     
@<SCITEGIC>MOL_PROPERTY
VConf Rank
SciTegic.value.IntegerValue
101

@<SCITEGIC>MOL_PROPERTY
Conf_Id
SciTegic.value.IntegerValue
33

@<SCITEGIC>MOL_PROPERTY
Delta U+W
SciTegic.value.DoubleValue
0.000

@<SCITEGIC>MOL_PROPERTY
U+W
SciTegic.value.DoubleValue
-51.745

@<SCITEGIC>MOL_PROPERTY
Grad RMS
SciTegic.value.DoubleValue
0.000000

@<SCITEGIC>MOL_PROPERTY
U
SciTegic.value.DoubleValue
7.593

@<SCITEGIC>MOL_PROPERTY
W
SciTegic.value.DoubleValue
-59.338

@<SCITEGIC>MOL_PROPERTY
W(PB)
SciTegic.value.DoubleValue
-61.574

@<SCITEGIC>MOL_PROPERTY
W(SA)
SciTegic.value.DoubleValue
2.236

@<SCITEGIC>MOL_PROPERTY
Valence
SciTegic.value.DoubleValue
9.570

@<SCITEGIC>MOL_PROPERTY
Coulomb
SciTegic.value.DoubleValue
-3.091

@<SCITEGIC>MOL_PROPERTY
VdW
SciTegic.value.DoubleValue
1.114

@<SCITEGIC>MOL_PROPERTY
VdW6
SciTegic.value.DoubleValue
-6.064

@<SCITEGIC>MOL_PROPERTY
VdW12
SciTegic.value.DoubleValue
7.178

@<SCITEGIC>MOL_PROPERTY
Bond
SciTegic.value.DoubleValue
0.117

@<SCITEGIC>MOL_PROPERTY
Angle
SciTegic.value.DoubleValue
2.692

@<SCITEGIC>MOL_PROPERTY
Pdih
SciTegic.value.DoubleValue
6.761

@<SCITEGIC>MOL_PROPERTY
Idih
SciTegic.value.DoubleValue
0.000

@<SCITEGIC>MOL_PROPERTY
Tether
SciTegic.value.DoubleValue
0.000

@<TRIPOS>MOLECULE
guest-s22_confgen4.mol2 : confsearch ligand conformer 102
          20          19           1
SMALL
USER_CHARGES
 
@<TRIPOS>ATOM
       1    C1      20.643903   19.905491   25.273534 C.2        1 MOL1        -0.2535
       2    H1      21.461629   20.506314   24.878675 H          1 MOL1         0.0845
       3    H2      20.621768   19.734222   26.348446 H          1 MOL1         0.0845
       4    C2      19.704147   19.394629   24.473814 C.2        1 MOL1        -0.1324
       5    H3      18.894380   18.795111   24.889128 H          1 MOL1         0.0833
       6    C3      19.668751   19.590311   22.974421 C.3        1 MOL1        -0.1813
       7    H4      20.351373   20.399320   22.680942 H          1 MOL1         0.0753
       8    H5      18.659947   19.902200   22.675941 H          1 MOL1         0.0753
       9    C4      20.062783   18.291365   22.235986 C.3        1 MOL1        -0.1855
      10    H6      21.037859   17.952608   22.612565 H          1 MOL1         0.0755
      11    H7      19.343981   17.496362   22.477414 H          1 MOL1         0.0755
      12    C5      20.157894   18.458706   20.700691 C.3        1 MOL1        -0.1855
      13    H8      20.550297   17.527684   20.268588 H          1 MOL1         0.0755
      14    H9      20.886373   19.244472   20.457209 H          1 MOL1         0.0755
      15    C6      18.799227   18.785782   20.028368 C.3        1 MOL1        -0.1958
      16    H10     18.051475   18.030750   20.298879 H          1 MOL1         0.0753
      17    H11     18.421699   19.755669   20.371200 H          1 MOL1         0.0753
      18    C7      18.891622   18.835958   18.507540 C.2        1 MOL1         0.6174
      19    O1      19.172245   19.896272   17.984384 O.co2      1 MOL1        -0.6695
      20    O2      18.700011   17.808825   17.887042 O.co2      1 MOL1        -0.6695
@<TRIPOS>BOND
    1     1     2    1
    2     1     3    1
    3     1     4    2
    4     4     5    1
    5     4     6    1
    6     6     7    1
    7     6     8    1
    8     6     9    1
    9     9    10    1
   10     9    11    1
   11     9    12    1
   12    12    13    1
   13    12    14    1
   14    12    15    1
   15    15    16    1
   16    15    17    1
   17    15    18    1
   18    18    19    1
   19    18    20    2
@<TRIPOS>SUBSTRUCTURE
       1 MOL1            1 RESIDUE      1      MOL     
@<SCITEGIC>MOL_PROPERTY
VConf Rank
SciTegic.value.IntegerValue
102

@<SCITEGIC>MOL_PROPERTY
Conf_Id
SciTegic.value.IntegerValue
37

@<SCITEGIC>MOL_PROPERTY
Delta U+W
SciTegic.value.DoubleValue
-0.384

@<SCITEGIC>MOL_PROPERTY
U+W
SciTegic.value.DoubleValue
-52.130

@<SCITEGIC>MOL_PROPERTY
Grad RMS
SciTegic.value.DoubleValue
0.000000

@<SCITEGIC>MOL_PROPERTY
U
SciTegic.value.DoubleValue
7.491

@<SCITEGIC>MOL_PROPERTY
W
SciTegic.value.DoubleValue
-59.621

@<SCITEGIC>MOL_PROPERTY
W(PB)
SciTegic.value.DoubleValue
-61.853

@<SCITEGIC>MOL_PROPERTY
W(SA)
SciTegic.value.DoubleValue
2.232

@<SCITEGIC>MOL_PROPERTY
Valence
SciTegic.value.DoubleValue
9.604

@<SCITEGIC>MOL_PROPERTY
Coulomb
SciTegic.value.DoubleValue
-2.799

@<SCITEGIC>MOL_PROPERTY
VdW
SciTegic.value.DoubleValue
0.686

@<SCITEGIC>MOL_PROPERTY
VdW6
SciTegic.value.DoubleValue
-6.435

@<SCITEGIC>MOL_PROPERTY
VdW12
SciTegic.value.DoubleValue
7.121

@<SCITEGIC>MOL_PROPERTY
Bond
SciTegic.value.DoubleValue
0.124

@<SCITEGIC>MOL_PROPERTY
Angle
SciTegic.value.DoubleValue
2.493

@<SCITEGIC>MOL_PROPERTY
Pdih
SciTegic.value.DoubleValue
6.986

@<SCITEGIC>MOL_PROPERTY
Idih
SciTegic.value.DoubleValue
0.001

@<SCITEGIC>MOL_PROPERTY
Tether
SciTegic.value.DoubleValue
0.000

@<TRIPOS>MOLECULE
guest-s22_confgen4.mol2 : confsearch ligand conformer 103
          20          19           1
SMALL
USER_CHARGES
 
@<TRIPOS>ATOM
       1    C1      19.224641   20.455143   24.871133 C.2        1 MOL1        -0.2535
       2    H1      19.027778   20.911849   25.839563 H          1 MOL1         0.0845
       3    H2      20.045181   20.870780   24.290179 H          1 MOL1         0.0845
       4    C2      18.481126   19.432241   24.434363 C.2        1 MOL1        -0.1324
       5    H3      17.672028   19.059311   25.061987 H          1 MOL1         0.0833
       6    C3      18.634412   18.696533   23.113662 C.3        1 MOL1        -0.1813
       7    H4      17.685122   18.755694   22.564588 H          1 MOL1         0.0753
       8    H5      18.790805   17.629320   23.320376 H          1 MOL1         0.0753
       9    C4      19.777389   19.210310   22.207228 C.3        1 MOL1        -0.1855
      10    H6      19.615655   20.272865   21.979400 H          1 MOL1         0.0755
      11    H7      20.733334   19.134295   22.743398 H          1 MOL1         0.0755
      12    C5      19.865023   18.411428   20.888468 C.3        1 MOL1        -0.1855
      13    H8      18.911380   18.483462   20.347190 H          1 MOL1         0.0755
      14    H9      20.026766   17.347224   21.109633 H          1 MOL1         0.0755
      15    C6      21.008834   18.923996   19.979042 C.3        1 MOL1        -0.1958
      16    H10     20.855256   19.982622   19.737532 H          1 MOL1         0.0753
      17    H11     21.970671   18.846431   20.500057 H          1 MOL1         0.0753
      18    C7      21.115855   18.150400   18.669812 C.2        1 MOL1         0.6174
      19    O1      20.471389   18.542958   17.717336 O.co2      1 MOL1        -0.6695
      20    O2      21.825415   17.164279   18.642649 O.co2      1 MOL1        -0.6695
@<TRIPOS>BOND
    1     1     2    1
    2     1     3    1
    3     1     4    2
    4     4     5    1
    5     4     6    1
    6     6     7    1
    7     6     8    1
    8     6     9    1
    9     9    10    1
   10     9    11    1
   11     9    12    1
   12    12    13    1
   13    12    14    1
   14    12    15    1
   15    15    16    1
   16    15    17    1
   17    15    18    1
   18    18    19    1
   19    18    20    2
@<TRIPOS>SUBSTRUCTURE
       1 MOL1            1 RESIDUE      1      MOL     
@<SCITEGIC>MOL_PROPERTY
VConf Rank
SciTegic.value.IntegerValue
103

@<SCITEGIC>MOL_PROPERTY
Conf_Id
SciTegic.value.IntegerValue
44

@<SCITEGIC>MOL_PROPERTY
Delta U+W
SciTegic.value.DoubleValue
-1.440

@<SCITEGIC>MOL_PROPERTY
U+W
SciTegic.value.DoubleValue
-53.185

@<SCITEGIC>MOL_PROPERTY
Grad RMS
SciTegic.value.DoubleValue
0.000000

@<SCITEGIC>MOL_PROPERTY
U
SciTegic.value.DoubleValue
6.572

@<SCITEGIC>MOL_PROPERTY
W
SciTegic.value.DoubleValue
-59.757

@<SCITEGIC>MOL_PROPERTY
W(PB)
SciTegic.value.DoubleValue
-62.007

@<SCITEGIC>MOL_PROPERTY
W(SA)
SciTegic.value.DoubleValue
2.249

@<SCITEGIC>MOL_PROPERTY
Valence
SciTegic.value.DoubleValue
7.989

@<SCITEGIC>MOL_PROPERTY
Coulomb
SciTegic.value.DoubleValue
-2.697

@<SCITEGIC>MOL_PROPERTY
VdW
SciTegic.value.DoubleValue
1.281

@<SCITEGIC>MOL_PROPERTY
VdW6
SciTegic.value.DoubleValue
-6.467

@<SCITEGIC>MOL_PROPERTY
VdW12
SciTegic.value.DoubleValue
7.748

@<SCITEGIC>MOL_PROPERTY
Bond
SciTegic.value.DoubleValue
0.136

@<SCITEGIC>MOL_PROPERTY
Angle
SciTegic.value.DoubleValue
2.854

@<SCITEGIC>MOL_PROPERTY
Pdih
SciTegic.value.DoubleValue
4.997

@<SCITEGIC>MOL_PROPERTY
Idih
SciTegic.value.DoubleValue
0.001

@<SCITEGIC>MOL_PROPERTY
Tether
SciTegic.value.DoubleValue
0.000

@<TRIPOS>MOLECULE
guest-s22_confgen4.mol2 : confsearch ligand conformer 104
          20          19           1
SMALL
USER_CHARGES
 
@<TRIPOS>ATOM
       1    C1      19.677000   22.487628   22.403169 C.2        1 MOL1        -0.2535
       2    H1      20.132495   22.465209   21.414432 H          1 MOL1         0.0845
       3    H2      19.703569   23.431165   22.945651 H          1 MOL1         0.0845
       4    C2      19.109236   21.401814   22.934552 C.2        1 MOL1        -0.1324
       5    H3      18.659311   21.445490   23.926165 H          1 MOL1         0.0833
       6    C3      19.033249   20.059496   22.241512 C.3        1 MOL1        -0.1813
       7    H4      19.256108   20.178372   21.173428 H          1 MOL1         0.0753
       8    H5      18.009294   19.668740   22.310496 H          1 MOL1         0.0753
       9    C4      20.016876   19.050695   22.876144 C.3        1 MOL1        -0.1855
      10    H6      21.046044   19.416832   22.758032 H          1 MOL1         0.0755
      11    H7      19.827639   19.001765   23.957292 H          1 MOL1         0.0755
      12    C5      19.901079   17.623139   22.290486 C.3        1 MOL1        -0.1855
      13    H8      18.874623   17.251864   22.416639 H          1 MOL1         0.0755
      14    H9      20.547441   16.950794   22.871580 H          1 MOL1         0.0755
      15    C6      20.304697   17.532476   20.795852 C.3        1 MOL1        -0.1958
      16    H10     19.621094   18.121447   20.174158 H          1 MOL1         0.0753
      17    H11     21.311730   17.941234   20.650258 H          1 MOL1         0.0753
      18    C7      20.294220   16.102150   20.268605 C.2        1 MOL1         0.6174
      19    O1      21.316828   15.451374   20.355204 O.co2      1 MOL1        -0.6695
      20    O2      19.258251   15.669661   19.803380 O.co2      1 MOL1        -0.6695
@<TRIPOS>BOND
    1     1     2    1
    2     1     3    1
    3     1     4    2
    4     4     5    1
    5     4     6    1
    6     6     7    1
    7     6     8    1
    8     6     9    1
    9     9    10    1
   10     9    11    1
   11     9    12    1
   12    12    13    1
   13    12    14    1
   14    12    15    1
   15    15    16    1
   16    15    17    1
   17    15    18    1
   18    18    19    1
   19    18    20    2
@<TRIPOS>SUBSTRUCTURE
       1 MOL1            1 RESIDUE      1      MOL     
@<SCITEGIC>MOL_PROPERTY
VConf Rank
SciTegic.value.IntegerValue
104

@<SCITEGIC>MOL_PROPERTY
Conf_Id
SciTegic.value.IntegerValue
38

@<SCITEGIC>MOL_PROPERTY
Delta U+W
SciTegic.value.DoubleValue
-0.381

@<SCITEGIC>MOL_PROPERTY
U+W
SciTegic.value.DoubleValue
-52.126

@<SCITEGIC>MOL_PROPERTY
Grad RMS
SciTegic.value.DoubleValue
0.000000

@<SCITEGIC>MOL_PROPERTY
U
SciTegic.value.DoubleValue
7.601

@<SCITEGIC>MOL_PROPERTY
W
SciTegic.value.DoubleValue
-59.727

@<SCITEGIC>MOL_PROPERTY
W(PB)
SciTegic.value.DoubleValue
-61.964

@<SCITEGIC>MOL_PROPERTY
W(SA)
SciTegic.value.DoubleValue
2.236

@<SCITEGIC>MOL_PROPERTY
Valence
SciTegic.value.DoubleValue
9.602

@<SCITEGIC>MOL_PROPERTY
Coulomb
SciTegic.value.DoubleValue
-2.686

@<SCITEGIC>MOL_PROPERTY
VdW
SciTegic.value.DoubleValue
0.685

@<SCITEGIC>MOL_PROPERTY
VdW6
SciTegic.value.DoubleValue
-6.453

@<SCITEGIC>MOL_PROPERTY
VdW12
SciTegic.value.DoubleValue
7.139

@<SCITEGIC>MOL_PROPERTY
Bond
SciTegic.value.DoubleValue
0.125

@<SCITEGIC>MOL_PROPERTY
Angle
SciTegic.value.DoubleValue
2.485

@<SCITEGIC>MOL_PROPERTY
Pdih
SciTegic.value.DoubleValue
6.991

@<SCITEGIC>MOL_PROPERTY
Idih
SciTegic.value.DoubleValue
0.001

@<SCITEGIC>MOL_PROPERTY
Tether
SciTegic.value.DoubleValue
0.000

@<TRIPOS>MOLECULE
guest-s22_confgen4.mol2 : confsearch ligand conformer 105
          20          19           1
SMALL
USER_CHARGES
 
@<TRIPOS>ATOM
       1    C1      19.450400   22.761062   21.613047 C.2        1 MOL1        -0.2535
       2    H1      19.543831   22.694597   20.530259 H          1 MOL1         0.0845
       3    H2      18.982954   23.655434   22.021534 H          1 MOL1         0.0845
       4    C2      19.888559   21.784961   22.412363 C.2        1 MOL1        -0.1324
       5    H3      19.784567   21.870734   23.493792 H          1 MOL1         0.0833
       6    C3      20.547485   20.516287   21.918470 C.3        1 MOL1        -0.1813
       7    H4      21.470601   20.336950   22.485764 H          1 MOL1         0.0753
       8    H5      20.839651   20.624787   20.865091 H          1 MOL1         0.0753
       9    C4      19.604739   19.303980   22.068650 C.3        1 MOL1        -0.1855
      10    H6      19.315926   19.196283   23.123363 H          1 MOL1         0.0755
      11    H7      18.680619   19.489111   21.503848 H          1 MOL1         0.0755
      12    C5      20.264210   17.997952   21.570935 C.3        1 MOL1        -0.1855
      13    H8      21.183460   17.804185   22.141136 H          1 MOL1         0.0755
      14    H9      20.563311   18.120489   20.521123 H          1 MOL1         0.0755
      15    C6      19.320907   16.772414   21.685535 C.3        1 MOL1        -0.1958
      16    H10     18.386133   16.961757   21.144051 H          1 MOL1         0.0753
      17    H11     19.791231   15.902372   21.212463 H          1 MOL1         0.0753
      18    C7      18.981779   16.383149   23.121617 C.2        1 MOL1         0.6174
      19    O1      17.877049   16.657745   23.547221 O.co2      1 MOL1        -0.6695
      20    O2      19.829298   15.804983   23.773179 O.co2      1 MOL1        -0.6695
@<TRIPOS>BOND
    1     1     2    1
    2     1     3    1
    3     1     4    2
    4     4     5    1
    5     4     6    1
    6     6     7    1
    7     6     8    1
    8     6     9    1
    9     9    10    1
   10     9    11    1
   11     9    12    1
   12    12    13    1
   13    12    14    1
   14    12    15    1
   15    15    16    1
   16    15    17    1
   17    15    18    1
   18    18    19    1
   19    18    20    2
@<TRIPOS>SUBSTRUCTURE
       1 MOL1            1 RESIDUE      1      MOL     
@<SCITEGIC>MOL_PROPERTY
VConf Rank
SciTegic.value.IntegerValue
105

@<SCITEGIC>MOL_PROPERTY
Conf_Id
SciTegic.value.IntegerValue
58

@<SCITEGIC>MOL_PROPERTY
Delta U+W
SciTegic.value.DoubleValue
0.019

@<SCITEGIC>MOL_PROPERTY
U+W
SciTegic.value.DoubleValue
-51.727

@<SCITEGIC>MOL_PROPERTY
Grad RMS
SciTegic.value.DoubleValue
0.000000

@<SCITEGIC>MOL_PROPERTY
U
SciTegic.value.DoubleValue
8.963

@<SCITEGIC>MOL_PROPERTY
W
SciTegic.value.DoubleValue
-60.690

@<SCITEGIC>MOL_PROPERTY
W(PB)
SciTegic.value.DoubleValue
-62.934

@<SCITEGIC>MOL_PROPERTY
W(SA)
SciTegic.value.DoubleValue
2.244

@<SCITEGIC>MOL_PROPERTY
Valence
SciTegic.value.DoubleValue
9.327

@<SCITEGIC>MOL_PROPERTY
Coulomb
SciTegic.value.DoubleValue
-0.780

@<SCITEGIC>MOL_PROPERTY
VdW
SciTegic.value.DoubleValue
0.417

@<SCITEGIC>MOL_PROPERTY
VdW6
SciTegic.value.DoubleValue
-6.635

@<SCITEGIC>MOL_PROPERTY
VdW12
SciTegic.value.DoubleValue
7.052

@<SCITEGIC>MOL_PROPERTY
Bond
SciTegic.value.DoubleValue
0.105

@<SCITEGIC>MOL_PROPERTY
Angle
SciTegic.value.DoubleValue
2.399

@<SCITEGIC>MOL_PROPERTY
Pdih
SciTegic.value.DoubleValue
6.822

@<SCITEGIC>MOL_PROPERTY
Idih
SciTegic.value.DoubleValue
0.000

@<SCITEGIC>MOL_PROPERTY
Tether
SciTegic.value.DoubleValue
0.000

@<TRIPOS>MOLECULE
guest-s22_confgen4.mol2 : confsearch ligand conformer 106
          20          19           1
SMALL
USER_CHARGES
 
@<TRIPOS>ATOM
       1    C1      22.854477   19.747553   23.713228 C.2        1 MOL1        -0.2535
       2    H1      23.035592   20.693944   23.206160 H          1 MOL1         0.0845
       3    H2      23.716865   19.228478   24.128095 H          1 MOL1         0.0845
       4    C2      21.624558   19.238502   23.822003 C.2        1 MOL1        -0.1324
       5    H3      21.464968   18.289123   24.332757 H          1 MOL1         0.0833
       6    C3      20.381000   19.901364   23.272619 C.3        1 MOL1        -0.1813
       7    H4      20.591551   20.947352   23.011242 H          1 MOL1         0.0753
       8    H5      19.601985   19.919507   24.046526 H          1 MOL1         0.0753
       9    C4      19.855813   19.155741   22.027936 C.3        1 MOL1        -0.1855
      10    H6      20.639375   19.135526   21.257940 H          1 MOL1         0.0755
      11    H7      19.643842   18.110534   22.292592 H          1 MOL1         0.0755
      12    C5      18.582702   19.818852   21.455399 C.3        1 MOL1        -0.1855
      13    H8      18.799958   20.866922   21.208553 H          1 MOL1         0.0755
      14    H9      17.793271   19.831069   22.219823 H          1 MOL1         0.0755
      15    C6      18.056482   19.101496   20.185207 C.3        1 MOL1        -0.1958
      16    H10     17.229142   19.677972   19.754903 H          1 MOL1         0.0753
      17    H11     18.842946   19.056539   19.422112 H          1 MOL1         0.0753
      18    C7      17.543160   17.687068   20.439684 C.2        1 MOL1         0.6174
      19    O1      16.458996   17.559185   20.973846 O.co2      1 MOL1        -0.6695
      20    O2      18.234405   16.751474   20.087812 O.co2      1 MOL1        -0.6695
@<TRIPOS>BOND
    1     1     2    1
    2     1     3    1
    3     1     4    2
    4     4     5    1
    5     4     6    1
    6     6     7    1
    7     6     8    1
    8     6     9    1
    9     9    10    1
   10     9    11    1
   11     9    12    1
   12    12    13    1
   13    12    14    1
   14    12    15    1
   15    15    16    1
   16    15    17    1
   17    15    18    1
   18    18    19    1
   19    18    20    2
@<TRIPOS>SUBSTRUCTURE
       1 MOL1            1 RESIDUE      1      MOL     
@<SCITEGIC>MOL_PROPERTY
VConf Rank
SciTegic.value.IntegerValue
106

@<SCITEGIC>MOL_PROPERTY
Conf_Id
SciTegic.value.IntegerValue
54

@<SCITEGIC>MOL_PROPERTY
Delta U+W
SciTegic.value.DoubleValue
-0.048

@<SCITEGIC>MOL_PROPERTY
U+W
SciTegic.value.DoubleValue
-51.793

@<SCITEGIC>MOL_PROPERTY
Grad RMS
SciTegic.value.DoubleValue
0.000000

@<SCITEGIC>MOL_PROPERTY
U
SciTegic.value.DoubleValue
8.964

@<SCITEGIC>MOL_PROPERTY
W
SciTegic.value.DoubleValue
-60.756

@<SCITEGIC>MOL_PROPERTY
W(PB)
SciTegic.value.DoubleValue
-63.007

@<SCITEGIC>MOL_PROPERTY
W(SA)
SciTegic.value.DoubleValue
2.251

@<SCITEGIC>MOL_PROPERTY
Valence
SciTegic.value.DoubleValue
9.327

@<SCITEGIC>MOL_PROPERTY
Coulomb
SciTegic.value.DoubleValue
-0.780

@<SCITEGIC>MOL_PROPERTY
VdW
SciTegic.value.DoubleValue
0.417

@<SCITEGIC>MOL_PROPERTY
VdW6
SciTegic.value.DoubleValue
-6.635

@<SCITEGIC>MOL_PROPERTY
VdW12
SciTegic.value.DoubleValue
7.052

@<SCITEGIC>MOL_PROPERTY
Bond
SciTegic.value.DoubleValue
0.105

@<SCITEGIC>MOL_PROPERTY
Angle
SciTegic.value.DoubleValue
2.399

@<SCITEGIC>MOL_PROPERTY
Pdih
SciTegic.value.DoubleValue
6.822

@<SCITEGIC>MOL_PROPERTY
Idih
SciTegic.value.DoubleValue
0.000

@<SCITEGIC>MOL_PROPERTY
Tether
SciTegic.value.DoubleValue
0.000

@<TRIPOS>MOLECULE
guest-s22_confgen4.mol2 : confsearch ligand conformer 107
          20          19           1
SMALL
USER_CHARGES
 
@<TRIPOS>ATOM
       1    C1      19.538173   15.803637   21.249770 C.2        1 MOL1        -0.2535
       2    H1      19.064233   14.957089   21.743657 H          1 MOL1         0.0845
       3    H2      19.502860   15.833335   20.161938 H          1 MOL1         0.0845
       4    C2      20.135991   16.767735   21.954611 C.2        1 MOL1        -0.1324
       5    H3      20.162912   16.716691   23.042693 H          1 MOL1         0.0833
       6    C3      20.820352   17.968683   21.337180 C.3        1 MOL1        -0.1813
       7    H4      21.061035   17.757605   20.286443 H          1 MOL1         0.0753
       8    H5      21.778746   18.153389   21.840579 H          1 MOL1         0.0753
       9    C4      19.945658   19.241236   21.398154 C.3        1 MOL1        -0.1855
      10    H6      20.436640   20.033108   20.816039 H          1 MOL1         0.0755
      11    H7      18.981510   19.045674   20.908958 H          1 MOL1         0.0755
      12    C5      19.708407   19.739777   22.843586 C.3        1 MOL1        -0.1855
      13    H8      20.672795   19.921491   23.337926 H          1 MOL1         0.0755
      14    H9      19.198711   18.958018   23.421994 H          1 MOL1         0.0755
      15    C6      18.853224   21.032532   22.894849 C.3        1 MOL1        -0.1958
      16    H10     17.900007   20.876794   22.375278 H          1 MOL1         0.0753
      17    H11     18.611354   21.270531   23.937351 H          1 MOL1         0.0753
      18    C7      19.540823   22.256084   22.295712 C.2        1 MOL1         0.6174
      19    O1      19.180513   22.640729   21.200598 O.co2      1 MOL1        -0.6695
      20    O2      20.412256   22.798825   22.946214 O.co2      1 MOL1        -0.6695
@<TRIPOS>BOND
    1     1     2    1
    2     1     3    1
    3     1     4    2
    4     4     5    1
    5     4     6    1
    6     6     7    1
    7     6     8    1
    8     6     9    1
    9     9    10    1
   10     9    11    1
   11     9    12    1
   12    12    13    1
   13    12    14    1
   14    12    15    1
   15    15    16    1
   16    15    17    1
   17    15    18    1
   18    18    19    1
   19    18    20    2
@<TRIPOS>SUBSTRUCTURE
       1 MOL1            1 RESIDUE      1      MOL     
@<SCITEGIC>MOL_PROPERTY
VConf Rank
SciTegic.value.IntegerValue
107

@<SCITEGIC>MOL_PROPERTY
Conf_Id
SciTegic.value.IntegerValue
27

@<SCITEGIC>MOL_PROPERTY
Delta U+W
SciTegic.value.DoubleValue
0.478

@<SCITEGIC>MOL_PROPERTY
U+W
SciTegic.value.DoubleValue
-51.267

@<SCITEGIC>MOL_PROPERTY
Grad RMS
SciTegic.value.DoubleValue
0.000000

@<SCITEGIC>MOL_PROPERTY
U
SciTegic.value.DoubleValue
9.192

@<SCITEGIC>MOL_PROPERTY
W
SciTegic.value.DoubleValue
-60.459

@<SCITEGIC>MOL_PROPERTY
W(PB)
SciTegic.value.DoubleValue
-62.649

@<SCITEGIC>MOL_PROPERTY
W(SA)
SciTegic.value.DoubleValue
2.190

@<SCITEGIC>MOL_PROPERTY
Valence
SciTegic.value.DoubleValue
9.572

@<SCITEGIC>MOL_PROPERTY
Coulomb
SciTegic.value.DoubleValue
-0.884

@<SCITEGIC>MOL_PROPERTY
VdW
SciTegic.value.DoubleValue
0.504

@<SCITEGIC>MOL_PROPERTY
VdW6
SciTegic.value.DoubleValue
-7.168

@<SCITEGIC>MOL_PROPERTY
VdW12
SciTegic.value.DoubleValue
7.672

@<SCITEGIC>MOL_PROPERTY
Bond
SciTegic.value.DoubleValue
0.127

@<SCITEGIC>MOL_PROPERTY
Angle
SciTegic.value.DoubleValue
2.504

@<SCITEGIC>MOL_PROPERTY
Pdih
SciTegic.value.DoubleValue
6.941

@<SCITEGIC>MOL_PROPERTY
Idih
SciTegic.value.DoubleValue
0.001

@<SCITEGIC>MOL_PROPERTY
Tether
SciTegic.value.DoubleValue
0.000

@<TRIPOS>MOLECULE
guest-s22_confgen4.mol2 : confsearch ligand conformer 108
          20          19           1
SMALL
USER_CHARGES
 
@<TRIPOS>ATOM
       1    C1      20.048749   15.676221   23.063037 C.2        1 MOL1        -0.2535
       2    H1      20.501295   15.100812   22.257052 H          1 MOL1         0.0845
       3    H2      19.404409   15.142295   23.759419 H          1 MOL1         0.0845
       4    C2      20.270280   16.986746   23.193902 C.2        1 MOL1        -0.1324
       5    H3      19.809762   17.543058   24.009827 H          1 MOL1         0.0833
       6    C3      21.157558   17.792762   22.269309 C.3        1 MOL1        -0.1813
       7    H4      21.836102   17.119899   21.727654 H          1 MOL1         0.0753
       8    H5      21.796470   18.465803   22.856563 H          1 MOL1         0.0753
       9    C4      20.345447   18.610675   21.239963 C.3        1 MOL1        -0.1855
      10    H6      21.041045   19.064194   20.520698 H          1 MOL1         0.0755
      11    H7      19.696845   17.934107   20.666485 H          1 MOL1         0.0755
      12    C5      19.494313   19.723629   21.893375 C.3        1 MOL1        -0.1855
      13    H8      20.140863   20.384143   22.487556 H          1 MOL1         0.0755
      14    H9      18.766499   19.280888   22.586880 H          1 MOL1         0.0755
      15    C6      18.737567   20.564747   20.836059 C.3        1 MOL1        -0.1958
      16    H10     19.448057   21.029990   20.142309 H          1 MOL1         0.0753
      17    H11     18.078049   19.920889   20.241843 H          1 MOL1         0.0753
      18    C7      17.888907   21.669300   21.455564 C.2        1 MOL1         0.6174
      19    O1      16.738052   21.412366   21.749126 O.co2      1 MOL1        -0.6695
      20    O2      18.406395   22.752460   21.644428 O.co2      1 MOL1        -0.6695
@<TRIPOS>BOND
    1     1     2    1
    2     1     3    1
    3     1     4    2
    4     4     5    1
    5     4     6    1
    6     6     7    1
    7     6     8    1
    8     6     9    1
    9     9    10    1
   10     9    11    1
   11     9    12    1
   12    12    13    1
   13    12    14    1
   14    12    15    1
   15    15    16    1
   16    15    17    1
   17    15    18    1
   18    18    19    1
   19    18    20    2
@<TRIPOS>SUBSTRUCTURE
       1 MOL1            1 RESIDUE      1      MOL     
@<SCITEGIC>MOL_PROPERTY
VConf Rank
SciTegic.value.IntegerValue
108

@<SCITEGIC>MOL_PROPERTY
Conf_Id
SciTegic.value.IntegerValue
41

@<SCITEGIC>MOL_PROPERTY
Delta U+W
SciTegic.value.DoubleValue
-0.634

@<SCITEGIC>MOL_PROPERTY
U+W
SciTegic.value.DoubleValue
-52.379

@<SCITEGIC>MOL_PROPERTY
Grad RMS
SciTegic.value.DoubleValue
0.000000

@<SCITEGIC>MOL_PROPERTY
U
SciTegic.value.DoubleValue
7.828

@<SCITEGIC>MOL_PROPERTY
W
SciTegic.value.DoubleValue
-60.207

@<SCITEGIC>MOL_PROPERTY
W(PB)
SciTegic.value.DoubleValue
-62.449

@<SCITEGIC>MOL_PROPERTY
W(SA)
SciTegic.value.DoubleValue
2.242

@<SCITEGIC>MOL_PROPERTY
Valence
SciTegic.value.DoubleValue
9.300

@<SCITEGIC>MOL_PROPERTY
Coulomb
SciTegic.value.DoubleValue
-2.080

@<SCITEGIC>MOL_PROPERTY
VdW
SciTegic.value.DoubleValue
0.608

@<SCITEGIC>MOL_PROPERTY
VdW6
SciTegic.value.DoubleValue
-6.341

@<SCITEGIC>MOL_PROPERTY
VdW12
SciTegic.value.DoubleValue
6.949

@<SCITEGIC>MOL_PROPERTY
Bond
SciTegic.value.DoubleValue
0.103

@<SCITEGIC>MOL_PROPERTY
Angle
SciTegic.value.DoubleValue
2.334

@<SCITEGIC>MOL_PROPERTY
Pdih
SciTegic.value.DoubleValue
6.862

@<SCITEGIC>MOL_PROPERTY
Idih
SciTegic.value.DoubleValue
0.001

@<SCITEGIC>MOL_PROPERTY
Tether
SciTegic.value.DoubleValue
0.000

@<TRIPOS>MOLECULE
guest-s22_confgen4.mol2 : confsearch ligand conformer 109
          20          19           1
SMALL
USER_CHARGES
 
@<TRIPOS>ATOM
       1    C1      20.041279   20.439895   25.236220 C.2        1 MOL1        -0.2535
       2    H1      19.561349   20.559685   26.206043 H          1 MOL1         0.0845
       3    H2      21.083003   20.745171   25.151548 H          1 MOL1         0.0845
       4    C2      19.375231   19.935625   24.194199 C.2        1 MOL1        -0.1324
       5    H3      18.332953   19.635334   24.299781 H          1 MOL1         0.0833
       6    C3      19.973705   19.740843   22.818885 C.3        1 MOL1        -0.1813
       7    H4      20.917647   20.295771   22.732844 H          1 MOL1         0.0753
       8    H5      19.289715   20.155675   22.067202 H          1 MOL1         0.0753
       9    C4      20.226689   18.244104   22.530878 C.3        1 MOL1        -0.1855
      10    H6      20.830194   17.823155   23.346808 H          1 MOL1         0.0755
      11    H7      19.271441   17.701306   22.542287 H          1 MOL1         0.0755
      12    C5      20.960766   17.987109   21.191746 C.3        1 MOL1        -0.1855
      13    H8      21.168421   16.911746   21.103083 H          1 MOL1         0.0755
      14    H9      21.937971   18.488136   21.212989 H          1 MOL1         0.0755
      15    C6      20.178960   18.449243   19.931733 C.3        1 MOL1        -0.1958
      16    H10     20.019324   19.533287   19.950980 H          1 MOL1         0.0753
      17    H11     20.776651   18.239907   19.036943 H          1 MOL1         0.0753
      18    C7      18.830049   17.759774   19.747865 C.2        1 MOL1         0.6174
      19    O1      18.825345   16.593148   19.406738 O.co2      1 MOL1        -0.6695
      20    O2      17.820508   18.410663   19.932589 O.co2      1 MOL1        -0.6695
@<TRIPOS>BOND
    1     1     2    1
    2     1     3    1
    3     1     4    2
    4     4     5    1
    5     4     6    1
    6     6     7    1
    7     6     8    1
    8     6     9    1
    9     9    10    1
   10     9    11    1
   11     9    12    1
   12    12    13    1
   13    12    14    1
   14    12    15    1
   15    15    16    1
   16    15    17    1
   17    15    18    1
   18    18    19    1
   19    18    20    2
@<TRIPOS>SUBSTRUCTURE
       1 MOL1            1 RESIDUE      1      MOL     
@<SCITEGIC>MOL_PROPERTY
VConf Rank
SciTegic.value.IntegerValue
109

@<SCITEGIC>MOL_PROPERTY
Conf_Id
SciTegic.value.IntegerValue
84

@<SCITEGIC>MOL_PROPERTY
Delta U+W
SciTegic.value.DoubleValue
0.942

@<SCITEGIC>MOL_PROPERTY
U+W
SciTegic.value.DoubleValue
-50.803

@<SCITEGIC>MOL_PROPERTY
Grad RMS
SciTegic.value.DoubleValue
0.000000

@<SCITEGIC>MOL_PROPERTY
U
SciTegic.value.DoubleValue
10.196

@<SCITEGIC>MOL_PROPERTY
W
SciTegic.value.DoubleValue
-60.999

@<SCITEGIC>MOL_PROPERTY
W(PB)
SciTegic.value.DoubleValue
-63.182

@<SCITEGIC>MOL_PROPERTY
W(SA)
SciTegic.value.DoubleValue
2.182

@<SCITEGIC>MOL_PROPERTY
Valence
SciTegic.value.DoubleValue
9.837

@<SCITEGIC>MOL_PROPERTY
Coulomb
SciTegic.value.DoubleValue
0.032

@<SCITEGIC>MOL_PROPERTY
VdW
SciTegic.value.DoubleValue
0.328

@<SCITEGIC>MOL_PROPERTY
VdW6
SciTegic.value.DoubleValue
-7.642

@<SCITEGIC>MOL_PROPERTY
VdW12
SciTegic.value.DoubleValue
7.969

@<SCITEGIC>MOL_PROPERTY
Bond
SciTegic.value.DoubleValue
0.151

@<SCITEGIC>MOL_PROPERTY
Angle
SciTegic.value.DoubleValue
2.748

@<SCITEGIC>MOL_PROPERTY
Pdih
SciTegic.value.DoubleValue
6.937

@<SCITEGIC>MOL_PROPERTY
Idih
SciTegic.value.DoubleValue
0.001

@<SCITEGIC>MOL_PROPERTY
Tether
SciTegic.value.DoubleValue
0.000

@<TRIPOS>MOLECULE
guest-s22_confgen4.mol2 : confsearch ligand conformer 110
          20          19           1
SMALL
USER_CHARGES
 
@<TRIPOS>ATOM
       1    C1      17.772579   18.464897   24.900577 C.2        1 MOL1        -0.2535
       2    H1      17.682862   18.579469   25.979505 H          1 MOL1         0.0845
       3    H2      16.877021   18.628349   24.303214 H          1 MOL1         0.0845
       4    C2      18.938078   18.138972   24.335732 C.2        1 MOL1        -0.1324
       5    H3      19.823003   17.980540   24.951721 H          1 MOL1         0.0833
       6    C3      19.138500   17.961700   22.847085 C.3        1 MOL1        -0.1813
       7    H4      18.167516   17.884076   22.339195 H          1 MOL1         0.0753
       8    H5      19.670478   17.019758   22.657801 H          1 MOL1         0.0753
       9    C4      19.938397   19.137649   22.248444 C.3        1 MOL1        -0.1855
      10    H6      19.403791   20.077036   22.447010 H          1 MOL1         0.0755
      11    H7      20.911337   19.213364   22.753126 H          1 MOL1         0.0755
      12    C5      20.154975   18.969960   20.727488 C.3        1 MOL1        -0.1855
      13    H8      19.183343   18.908035   20.217775 H          1 MOL1         0.0755
      14    H9      20.672563   18.019859   20.537803 H          1 MOL1         0.0755
      15    C6      20.984800   20.126510   20.112127 C.3        1 MOL1        -0.1958
      16    H10     21.947761   20.218687   20.628908 H          1 MOL1         0.0753
      17    H11     21.207963   19.899571   19.062998 H          1 MOL1         0.0753
      18    C7      20.281941   21.480655   20.146389 C.2        1 MOL1         0.6174
      19    O1      20.654885   22.302623   20.960179 O.co2      1 MOL1        -0.6695
      20    O2      19.387780   21.681702   19.348165 O.co2      1 MOL1        -0.6695
@<TRIPOS>BOND
    1     1     2    1
    2     1     3    1
    3     1     4    2
    4     4     5    1
    5     4     6    1
    6     6     7    1
    7     6     8    1
    8     6     9    1
    9     9    10    1
   10     9    11    1
   11     9    12    1
   12    12    13    1
   13    12    14    1
   14    12    15    1
   15    15    16    1
   16    15    17    1
   17    15    18    1
   18    18    19    1
   19    18    20    2
@<TRIPOS>SUBSTRUCTURE
       1 MOL1            1 RESIDUE      1      MOL     
@<SCITEGIC>MOL_PROPERTY
VConf Rank
SciTegic.value.IntegerValue
110

@<SCITEGIC>MOL_PROPERTY
Conf_Id
SciTegic.value.IntegerValue
81

@<SCITEGIC>MOL_PROPERTY
Delta U+W
SciTegic.value.DoubleValue
-0.051

@<SCITEGIC>MOL_PROPERTY
U+W
SciTegic.value.DoubleValue
-51.796

@<SCITEGIC>MOL_PROPERTY
Grad RMS
SciTegic.value.DoubleValue
0.000000

@<SCITEGIC>MOL_PROPERTY
U
SciTegic.value.DoubleValue
9.412

@<SCITEGIC>MOL_PROPERTY
W
SciTegic.value.DoubleValue
-61.209

@<SCITEGIC>MOL_PROPERTY
W(PB)
SciTegic.value.DoubleValue
-63.452

@<SCITEGIC>MOL_PROPERTY
W(SA)
SciTegic.value.DoubleValue
2.243

@<SCITEGIC>MOL_PROPERTY
Valence
SciTegic.value.DoubleValue
9.329

@<SCITEGIC>MOL_PROPERTY
Coulomb
SciTegic.value.DoubleValue
-0.323

@<SCITEGIC>MOL_PROPERTY
VdW
SciTegic.value.DoubleValue
0.406

@<SCITEGIC>MOL_PROPERTY
VdW6
SciTegic.value.DoubleValue
-6.640

@<SCITEGIC>MOL_PROPERTY
VdW12
SciTegic.value.DoubleValue
7.046

@<SCITEGIC>MOL_PROPERTY
Bond
SciTegic.value.DoubleValue
0.105

@<SCITEGIC>MOL_PROPERTY
Angle
SciTegic.value.DoubleValue
2.401

@<SCITEGIC>MOL_PROPERTY
Pdih
SciTegic.value.DoubleValue
6.823

@<SCITEGIC>MOL_PROPERTY
Idih
SciTegic.value.DoubleValue
0.000

@<SCITEGIC>MOL_PROPERTY
Tether
SciTegic.value.DoubleValue
0.000

@<TRIPOS>MOLECULE
guest-s22_confgen4.mol2 : confsearch ligand conformer 111
          20          19           1
SMALL
USER_CHARGES
 
@<TRIPOS>ATOM
       1    C1      16.985006   19.434183   23.850921 C.2        1 MOL1        -0.2535
       2    H1      16.430539   18.498558   23.799631 H          1 MOL1         0.0845
       3    H2      16.716298   20.133380   24.640898 H          1 MOL1         0.0845
       4    C2      17.959572   19.715689   22.982213 C.2        1 MOL1        -0.1324
       5    H3      18.500736   20.658999   23.049547 H          1 MOL1         0.0833
       6    C3      18.384078   18.796719   21.856685 C.3        1 MOL1        -0.1813
       7    H4      18.509026   19.370131   20.929043 H          1 MOL1         0.0753
       8    H5      17.587608   18.068448   21.653035 H          1 MOL1         0.0753
       9    C4      19.684301   18.023703   22.183140 C.3        1 MOL1        -0.1855
      10    H6      19.507923   17.391190   23.063851 H          1 MOL1         0.0755
      11    H7      19.907444   17.336884   21.355216 H          1 MOL1         0.0755
      12    C5      20.921058   18.919541   22.451461 C.3        1 MOL1        -0.1855
      13    H8      21.775770   18.274603   22.697846 H          1 MOL1         0.0755
      14    H9      20.740275   19.536696   23.341480 H          1 MOL1         0.0755
      15    C6      21.317705   19.839809   21.264883 C.3        1 MOL1        -0.1958
      16    H10     20.513367   20.549731   21.041073 H          1 MOL1         0.0753
      17    H11     22.190992   20.439408   21.546763 H          1 MOL1         0.0753
      18    C7      21.676167   19.087901   19.986335 C.2        1 MOL1         0.6174
      19    O1      20.901198   19.138360   19.051475 O.co2      1 MOL1        -0.6695
      20    O2      22.731165   18.485106   19.953519 O.co2      1 MOL1        -0.6695
@<TRIPOS>BOND
    1     1     2    1
    2     1     3    1
    3     1     4    2
    4     4     5    1
    5     4     6    1
    6     6     7    1
    7     6     8    1
    8     6     9    1
    9     9    10    1
   10     9    11    1
   11     9    12    1
   12    12    13    1
   13    12    14    1
   14    12    15    1
   15    15    16    1
   16    15    17    1
   17    15    18    1
   18    18    19    1
   19    18    20    2
@<TRIPOS>SUBSTRUCTURE
       1 MOL1            1 RESIDUE      1      MOL     
@<SCITEGIC>MOL_PROPERTY
VConf Rank
SciTegic.value.IntegerValue
111

@<SCITEGIC>MOL_PROPERTY
Conf_Id
SciTegic.value.IntegerValue
86

@<SCITEGIC>MOL_PROPERTY
Delta U+W
SciTegic.value.DoubleValue
1.248

@<SCITEGIC>MOL_PROPERTY
U+W
SciTegic.value.DoubleValue
-50.498

@<SCITEGIC>MOL_PROPERTY
Grad RMS
SciTegic.value.DoubleValue
0.000000

@<SCITEGIC>MOL_PROPERTY
U
SciTegic.value.DoubleValue
10.404

@<SCITEGIC>MOL_PROPERTY
W
SciTegic.value.DoubleValue
-60.901

@<SCITEGIC>MOL_PROPERTY
W(PB)
SciTegic.value.DoubleValue
-63.061

@<SCITEGIC>MOL_PROPERTY
W(SA)
SciTegic.value.DoubleValue
2.159

@<SCITEGIC>MOL_PROPERTY
Valence
SciTegic.value.DoubleValue
10.021

@<SCITEGIC>MOL_PROPERTY
Coulomb
SciTegic.value.DoubleValue
0.094

@<SCITEGIC>MOL_PROPERTY
VdW
SciTegic.value.DoubleValue
0.289

@<SCITEGIC>MOL_PROPERTY
VdW6
SciTegic.value.DoubleValue
-8.409

@<SCITEGIC>MOL_PROPERTY
VdW12
SciTegic.value.DoubleValue
8.698

@<SCITEGIC>MOL_PROPERTY
Bond
SciTegic.value.DoubleValue
0.179

@<SCITEGIC>MOL_PROPERTY
Angle
SciTegic.value.DoubleValue
2.939

@<SCITEGIC>MOL_PROPERTY
Pdih
SciTegic.value.DoubleValue
6.902

@<SCITEGIC>MOL_PROPERTY
Idih
SciTegic.value.DoubleValue
0.001

@<SCITEGIC>MOL_PROPERTY
Tether
SciTegic.value.DoubleValue
0.000

@<TRIPOS>MOLECULE
guest-s22_confgen4.mol2 : confsearch ligand conformer 112
          20          19           1
SMALL
USER_CHARGES
 
@<TRIPOS>ATOM
       1    C1      21.362937   17.272711   24.055075 C.2        1 MOL1        -0.2535
       2    H1      21.693706   16.239696   24.147675 H          1 MOL1         0.0845
       3    H2      22.124480   18.049246   24.104738 H          1 MOL1         0.0845
       4    C2      20.072464   17.571587   23.883676 C.2        1 MOL1        -0.1324
       5    H3      19.326186   16.779102   23.834428 H          1 MOL1         0.0833
       6    C3      19.537948   18.981415   23.746806 C.3        1 MOL1        -0.1813
       7    H4      20.312154   19.715811   24.007436 H          1 MOL1         0.0753
       8    H5      18.719883   19.125928   24.464933 H          1 MOL1         0.0753
       9    C4      19.009112   19.272720   22.324296 C.3        1 MOL1        -0.1855
      10    H6      18.237494   18.536265   22.061311 H          1 MOL1         0.0755
      11    H7      18.516655   20.254807   22.325617 H          1 MOL1         0.0755
      12    C5      20.129259   19.261856   21.257174 C.3        1 MOL1        -0.1855
      13    H8      20.617924   18.278381   21.250019 H          1 MOL1         0.0755
      14    H9      20.902678   19.995849   21.522559 H          1 MOL1         0.0755
      15    C6      19.598539   19.565981   19.832086 C.3        1 MOL1        -0.1958
      16    H10     20.405283   19.425224   19.103187 H          1 MOL1         0.0753
      17    H11     18.802924   18.859753   19.565596 H          1 MOL1         0.0753
      18    C7      19.068399   20.986228   19.657229 C.2        1 MOL1         0.6174
      19    O1      19.874805   21.889320   19.551103 O.co2      1 MOL1        -0.6695
      20    O2      17.864874   21.151276   19.620169 O.co2      1 MOL1        -0.6695
@<TRIPOS>BOND
    1     1     2    1
    2     1     3    1
    3     1     4    2
    4     4     5    1
    5     4     6    1
    6     6     7    1
    7     6     8    1
    8     6     9    1
    9     9    10    1
   10     9    11    1
   11     9    12    1
   12    12    13    1
   13    12    14    1
   14    12    15    1
   15    15    16    1
   16    15    17    1
   17    15    18    1
   18    18    19    1
   19    18    20    2
@<TRIPOS>SUBSTRUCTURE
       1 MOL1            1 RESIDUE      1      MOL     
@<SCITEGIC>MOL_PROPERTY
VConf Rank
SciTegic.value.IntegerValue
112

@<SCITEGIC>MOL_PROPERTY
Conf_Id
SciTegic.value.IntegerValue
28

@<SCITEGIC>MOL_PROPERTY
Delta U+W
SciTegic.value.DoubleValue
0.446

@<SCITEGIC>MOL_PROPERTY
U+W
SciTegic.value.DoubleValue
-51.299

@<SCITEGIC>MOL_PROPERTY
Grad RMS
SciTegic.value.DoubleValue
0.000000

@<SCITEGIC>MOL_PROPERTY
U
SciTegic.value.DoubleValue
9.295

@<SCITEGIC>MOL_PROPERTY
W
SciTegic.value.DoubleValue
-60.594

@<SCITEGIC>MOL_PROPERTY
W(PB)
SciTegic.value.DoubleValue
-62.806

@<SCITEGIC>MOL_PROPERTY
W(SA)
SciTegic.value.DoubleValue
2.212

@<SCITEGIC>MOL_PROPERTY
Valence
SciTegic.value.DoubleValue
9.495

@<SCITEGIC>MOL_PROPERTY
Coulomb
SciTegic.value.DoubleValue
-0.610

@<SCITEGIC>MOL_PROPERTY
VdW
SciTegic.value.DoubleValue
0.409

@<SCITEGIC>MOL_PROPERTY
VdW6
SciTegic.value.DoubleValue
-7.332

@<SCITEGIC>MOL_PROPERTY
VdW12
SciTegic.value.DoubleValue
7.741

@<SCITEGIC>MOL_PROPERTY
Bond
SciTegic.value.DoubleValue
0.126

@<SCITEGIC>MOL_PROPERTY
Angle
SciTegic.value.DoubleValue
2.497

@<SCITEGIC>MOL_PROPERTY
Pdih
SciTegic.value.DoubleValue
6.872

@<SCITEGIC>MOL_PROPERTY
Idih
SciTegic.value.DoubleValue
0.000

@<SCITEGIC>MOL_PROPERTY
Tether
SciTegic.value.DoubleValue
0.000

@<TRIPOS>MOLECULE
guest-s22_confgen4.mol2 : confsearch ligand conformer 113
          20          19           1
SMALL
USER_CHARGES
 
@<TRIPOS>ATOM
       1    C1      19.476473   16.223048   22.884703 C.2        1 MOL1        -0.2535
       2    H1      20.405899   16.326108   22.328789 H          1 MOL1         0.0845
       3    H2      19.277919   15.251541   23.334025 H          1 MOL1         0.0845
       4    C2      18.607723   17.230884   23.024401 C.2        1 MOL1        -0.1324
       5    H3      17.694002   17.067320   23.595278 H          1 MOL1         0.0833
       6    C3      18.744687   18.634324   22.457784 C.3        1 MOL1        -0.1813
       7    H4      18.774531   19.344025   23.294499 H          1 MOL1         0.0753
       8    H5      17.834430   18.875219   21.892847 H          1 MOL1         0.0753
       9    C4      19.976510   18.852850   21.544843 C.3        1 MOL1        -0.1855
      10    H6      20.897289   18.700804   22.124688 H          1 MOL1         0.0755
      11    H7      19.974242   18.091734   20.752763 H          1 MOL1         0.0755
      12    C5      20.008328   20.248709   20.874302 C.3        1 MOL1        -0.1855
      13    H8      19.108927   20.373954   20.256419 H          1 MOL1         0.0755
      14    H9      20.862733   20.289476   20.184563 H          1 MOL1         0.0755
      15    C6      20.113593   21.438535   21.867222 C.3        1 MOL1        -0.1958
      16    H10     20.118275   22.379882   21.305526 H          1 MOL1         0.0753
      17    H11     19.236843   21.474238   22.523676 H          1 MOL1         0.0753
      18    C7      21.371347   21.420749   22.731306 C.2        1 MOL1         0.6174
      19    O1      22.437192   21.654865   22.195941 O.co2      1 MOL1        -0.6695
      20    O2      21.250758   21.194479   23.919211 O.co2      1 MOL1        -0.6695
@<TRIPOS>BOND
    1     1     2    1
    2     1     3    1
    3     1     4    2
    4     4     5    1
    5     4     6    1
    6     6     7    1
    7     6     8    1
    8     6     9    1
    9     9    10    1
   10     9    11    1
   11     9    12    1
   12    12    13    1
   13    12    14    1
   14    12    15    1
   15    15    16    1
   16    15    17    1
   17    15    18    1
   18    18    19    1
   19    18    20    2
@<TRIPOS>SUBSTRUCTURE
       1 MOL1            1 RESIDUE      1      MOL     
@<SCITEGIC>MOL_PROPERTY
VConf Rank
SciTegic.value.IntegerValue
113

@<SCITEGIC>MOL_PROPERTY
Conf_Id
SciTegic.value.IntegerValue
53

@<SCITEGIC>MOL_PROPERTY
Delta U+W
SciTegic.value.DoubleValue
0.549

@<SCITEGIC>MOL_PROPERTY
U+W
SciTegic.value.DoubleValue
-51.197

@<SCITEGIC>MOL_PROPERTY
Grad RMS
SciTegic.value.DoubleValue
0.000000

@<SCITEGIC>MOL_PROPERTY
U
SciTegic.value.DoubleValue
10.870

@<SCITEGIC>MOL_PROPERTY
W
SciTegic.value.DoubleValue
-62.067

@<SCITEGIC>MOL_PROPERTY
W(PB)
SciTegic.value.DoubleValue
-64.228

@<SCITEGIC>MOL_PROPERTY
W(SA)
SciTegic.value.DoubleValue
2.161

@<SCITEGIC>MOL_PROPERTY
Valence
SciTegic.value.DoubleValue
8.803

@<SCITEGIC>MOL_PROPERTY
Coulomb
SciTegic.value.DoubleValue
1.020

@<SCITEGIC>MOL_PROPERTY
VdW
SciTegic.value.DoubleValue
1.048

@<SCITEGIC>MOL_PROPERTY
VdW6
SciTegic.value.DoubleValue
-8.312

@<SCITEGIC>MOL_PROPERTY
VdW12
SciTegic.value.DoubleValue
9.360

@<SCITEGIC>MOL_PROPERTY
Bond
SciTegic.value.DoubleValue
0.212

@<SCITEGIC>MOL_PROPERTY
Angle
SciTegic.value.DoubleValue
3.379

@<SCITEGIC>MOL_PROPERTY
Pdih
SciTegic.value.DoubleValue
5.211

@<SCITEGIC>MOL_PROPERTY
Idih
SciTegic.value.DoubleValue
0.001

@<SCITEGIC>MOL_PROPERTY
Tether
SciTegic.value.DoubleValue
0.000

@<TRIPOS>MOLECULE
guest-s22_confgen4.mol2 : confsearch ligand conformer 114
          20          19           1
SMALL
USER_CHARGES
 
@<TRIPOS>ATOM
       1    C1      17.204590   19.214382   20.810443 C.2        1 MOL1        -0.2535
       2    H1      17.788126   19.964752   20.281548 H          1 MOL1         0.0845
       3    H2      16.136186   19.398149   20.908754 H          1 MOL1         0.0845
       4    C2      17.759279   18.107867   21.317002 C.2        1 MOL1        -0.1324
       5    H3      17.128728   17.386191   21.835549 H          1 MOL1         0.0833
       6    C3      19.229752   17.728133   21.258691 C.3        1 MOL1        -0.1813
       7    H4      19.377238   17.017608   20.434796 H          1 MOL1         0.0753
       8    H5      19.488975   17.163802   22.163630 H          1 MOL1         0.0753
       9    C4      20.227461   18.905270   21.101538 C.3        1 MOL1        -0.1855
      10    H6      21.240600   18.493194   20.998669 H          1 MOL1         0.0755
      11    H7      20.026310   19.430872   20.158880 H          1 MOL1         0.0755
      12    C5      20.217768   19.925961   22.269849 C.3        1 MOL1        -0.1855
      13    H8      19.230301   20.400130   22.337872 H          1 MOL1         0.0755
      14    H9      20.927214   20.732185   22.038097 H          1 MOL1         0.0755
      15    C6      20.584113   19.324355   23.654111 C.3        1 MOL1        -0.1958
      16    H10     20.546681   20.113748   24.413731 H          1 MOL1         0.0753
      17    H11     19.847056   18.570998   23.954446 H          1 MOL1         0.0753
      18    C7      21.975389   18.700629   23.715291 C.2        1 MOL1         0.6174
      19    O1      22.062152   17.489963   23.777878 O.co2      1 MOL1        -0.6695
      20    O2      22.936646   19.444599   23.716934 O.co2      1 MOL1        -0.6695
@<TRIPOS>BOND
    1     1     2    1
    2     1     3    1
    3     1     4    2
    4     4     5    1
    5     4     6    1
    6     6     7    1
    7     6     8    1
    8     6     9    1
    9     9    10    1
   10     9    11    1
   11     9    12    1
   12    12    13    1
   13    12    14    1
   14    12    15    1
   15    15    16    1
   16    15    17    1
   17    15    18    1
   18    18    19    1
   19    18    20    2
@<TRIPOS>SUBSTRUCTURE
       1 MOL1            1 RESIDUE      1      MOL     
@<SCITEGIC>MOL_PROPERTY
VConf Rank
SciTegic.value.IntegerValue
114

@<SCITEGIC>MOL_PROPERTY
Conf_Id
SciTegic.value.IntegerValue
66

@<SCITEGIC>MOL_PROPERTY
Delta U+W
SciTegic.value.DoubleValue
1.737

@<SCITEGIC>MOL_PROPERTY
U+W
SciTegic.value.DoubleValue
-50.008

@<SCITEGIC>MOL_PROPERTY
Grad RMS
SciTegic.value.DoubleValue
0.000000

@<SCITEGIC>MOL_PROPERTY
U
SciTegic.value.DoubleValue
11.091

@<SCITEGIC>MOL_PROPERTY
W
SciTegic.value.DoubleValue
-61.099

@<SCITEGIC>MOL_PROPERTY
W(PB)
SciTegic.value.DoubleValue
-63.213

@<SCITEGIC>MOL_PROPERTY
W(SA)
SciTegic.value.DoubleValue
2.114

@<SCITEGIC>MOL_PROPERTY
Valence
SciTegic.value.DoubleValue
9.664

@<SCITEGIC>MOL_PROPERTY
Coulomb
SciTegic.value.DoubleValue
0.658

@<SCITEGIC>MOL_PROPERTY
VdW
SciTegic.value.DoubleValue
0.769

@<SCITEGIC>MOL_PROPERTY
VdW6
SciTegic.value.DoubleValue
-9.171

@<SCITEGIC>MOL_PROPERTY
VdW12
SciTegic.value.DoubleValue
9.940

@<SCITEGIC>MOL_PROPERTY
Bond
SciTegic.value.DoubleValue
0.244

@<SCITEGIC>MOL_PROPERTY
Angle
SciTegic.value.DoubleValue
3.658

@<SCITEGIC>MOL_PROPERTY
Pdih
SciTegic.value.DoubleValue
5.762

@<SCITEGIC>MOL_PROPERTY
Idih
SciTegic.value.DoubleValue
0.001

@<SCITEGIC>MOL_PROPERTY
Tether
SciTegic.value.DoubleValue
0.000

@<TRIPOS>MOLECULE
guest-s22_confgen4.mol2 : confsearch ligand conformer 115
          20          19           1
SMALL
USER_CHARGES
 
@<TRIPOS>ATOM
       1    C1      21.937954   19.676985   20.809531 C.2        1 MOL1        -0.2535
       2    H1      22.022159   18.597799   20.916531 H          1 MOL1         0.0845
       3    H2      22.398320   20.123199   19.929819 H          1 MOL1         0.0845
       4    C2      21.306057   20.435964   21.711494 C.2        1 MOL1        -0.1324
       5    H3      21.253699   21.513154   21.555733 H          1 MOL1         0.0833
       6    C3      20.616305   19.952190   22.976723 C.3        1 MOL1        -0.1813
       7    H4      19.739841   20.584022   23.167113 H          1 MOL1         0.0753
       8    H5      21.283107   20.133366   23.830031 H          1 MOL1         0.0753
       9    C4      20.175735   18.464851   22.982781 C.3        1 MOL1        -0.1855
      10    H6      21.056779   17.823131   22.850686 H          1 MOL1         0.0755
      11    H7      19.777699   18.220014   23.976890 H          1 MOL1         0.0755
      12    C5      19.109916   18.100483   21.917903 C.3        1 MOL1        -0.1855
      13    H8      18.936003   17.016216   21.953969 H          1 MOL1         0.0755
      14    H9      19.489744   18.317084   20.910723 H          1 MOL1         0.0755
      15    C6      17.755577   18.827715   22.122396 C.3        1 MOL1        -0.1958
      16    H10     17.386655   18.662844   23.141643 H          1 MOL1         0.0753
      17    H11     17.875537   19.908764   21.989034 H          1 MOL1         0.0753
      18    C7      16.680503   18.356429   21.149590 C.2        1 MOL1         0.6174
      19    O1      16.558175   18.949620   20.096067 O.co2      1 MOL1        -0.6695
      20    O2      16.002334   17.398548   21.464999 O.co2      1 MOL1        -0.6695
@<TRIPOS>BOND
    1     1     2    1
    2     1     3    1
    3     1     4    2
    4     4     5    1
    5     4     6    1
    6     6     7    1
    7     6     8    1
    8     6     9    1
    9     9    10    1
   10     9    11    1
   11     9    12    1
   12    12    13    1
   13    12    14    1
   14    12    15    1
   15    15    16    1
   16    15    17    1
   17    15    18    1
   18    18    19    1
   19    18    20    2
@<TRIPOS>SUBSTRUCTURE
       1 MOL1            1 RESIDUE      1      MOL     
@<SCITEGIC>MOL_PROPERTY
VConf Rank
SciTegic.value.IntegerValue
115

@<SCITEGIC>MOL_PROPERTY
Conf_Id
SciTegic.value.IntegerValue
64

@<SCITEGIC>MOL_PROPERTY
Delta U+W
SciTegic.value.DoubleValue
0.366

@<SCITEGIC>MOL_PROPERTY
U+W
SciTegic.value.DoubleValue
-51.379

@<SCITEGIC>MOL_PROPERTY
Grad RMS
SciTegic.value.DoubleValue
0.000000

@<SCITEGIC>MOL_PROPERTY
U
SciTegic.value.DoubleValue
10.000

@<SCITEGIC>MOL_PROPERTY
W
SciTegic.value.DoubleValue
-61.379

@<SCITEGIC>MOL_PROPERTY
W(PB)
SciTegic.value.DoubleValue
-63.541

@<SCITEGIC>MOL_PROPERTY
W(SA)
SciTegic.value.DoubleValue
2.162

@<SCITEGIC>MOL_PROPERTY
Valence
SciTegic.value.DoubleValue
9.398

@<SCITEGIC>MOL_PROPERTY
Coulomb
SciTegic.value.DoubleValue
-0.504

@<SCITEGIC>MOL_PROPERTY
VdW
SciTegic.value.DoubleValue
1.105

@<SCITEGIC>MOL_PROPERTY
VdW6
SciTegic.value.DoubleValue
-7.975

@<SCITEGIC>MOL_PROPERTY
VdW12
SciTegic.value.DoubleValue
9.080

@<SCITEGIC>MOL_PROPERTY
Bond
SciTegic.value.DoubleValue
0.216

@<SCITEGIC>MOL_PROPERTY
Angle
SciTegic.value.DoubleValue
3.417

@<SCITEGIC>MOL_PROPERTY
Pdih
SciTegic.value.DoubleValue
5.765

@<SCITEGIC>MOL_PROPERTY
Idih
SciTegic.value.DoubleValue
0.001

@<SCITEGIC>MOL_PROPERTY
Tether
SciTegic.value.DoubleValue
0.000

@<TRIPOS>MOLECULE
guest-s22_confgen4.mol2 : confsearch ligand conformer 116
          20          19           1
SMALL
USER_CHARGES
 
@<TRIPOS>ATOM
       1    C1      18.857552   16.308826   22.114301 C.2        1 MOL1        -0.2535
       2    H1      19.237015   16.245480   23.132836 H          1 MOL1         0.0845
       3    H2      18.966840   15.428620   21.483115 H          1 MOL1         0.0845
       4    C2      18.283333   17.422681   21.652118 C.2        1 MOL1        -0.1324
       5    H3      17.912276   17.466167   20.628488 H          1 MOL1         0.0833
       6    C3      18.097056   18.683950   22.468499 C.3        1 MOL1        -0.1813
       7    H4      18.306526   18.492154   23.529636 H          1 MOL1         0.0753
       8    H5      17.045693   18.995848   22.411945 H          1 MOL1         0.0753
       9    C4      18.988419   19.842774   21.967958 C.3        1 MOL1        -0.1855
      10    H6      18.779320   20.034064   20.906464 H          1 MOL1         0.0755
      11    H7      18.718363   20.758324   22.511759 H          1 MOL1         0.0755
      12    C5      20.496100   19.562360   22.162505 C.3        1 MOL1        -0.1855
      13    H8      20.784808   18.663079   21.601103 H          1 MOL1         0.0755
      14    H9      20.700115   19.354530   23.221973 H          1 MOL1         0.0755
      15    C6      21.368713   20.753874   21.696822 C.3        1 MOL1        -0.1958
      16    H10     21.185147   20.965528   20.636589 H          1 MOL1         0.0753
      17    H11     21.106140   21.658294   22.258574 H          1 MOL1         0.0753
      18    C7      22.861095   20.501044   21.878394 C.2        1 MOL1         0.6174
      19    O1      23.367752   20.798012   22.942282 O.co2      1 MOL1        -0.6695
      20    O2      23.474865   20.001004   20.956473 O.co2      1 MOL1        -0.6695
@<TRIPOS>BOND
    1     1     2    1
    2     1     3    1
    3     1     4    2
    4     4     5    1
    5     4     6    1
    6     6     7    1
    7     6     8    1
    8     6     9    1
    9     9    10    1
   10     9    11    1
   11     9    12    1
   12    12    13    1
   13    12    14    1
   14    12    15    1
   15    15    16    1
   16    15    17    1
   17    15    18    1
   18    18    19    1
   19    18    20    2
@<TRIPOS>SUBSTRUCTURE
       1 MOL1            1 RESIDUE      1      MOL     
@<SCITEGIC>MOL_PROPERTY
VConf Rank
SciTegic.value.IntegerValue
116

@<SCITEGIC>MOL_PROPERTY
Conf_Id
SciTegic.value.IntegerValue
42

@<SCITEGIC>MOL_PROPERTY
Delta U+W
SciTegic.value.DoubleValue
-0.601

@<SCITEGIC>MOL_PROPERTY
U+W
SciTegic.value.DoubleValue
-52.347

@<SCITEGIC>MOL_PROPERTY
Grad RMS
SciTegic.value.DoubleValue
0.000000

@<SCITEGIC>MOL_PROPERTY
U
SciTegic.value.DoubleValue
8.428

@<SCITEGIC>MOL_PROPERTY
W
SciTegic.value.DoubleValue
-60.774

@<SCITEGIC>MOL_PROPERTY
W(PB)
SciTegic.value.DoubleValue
-62.982

@<SCITEGIC>MOL_PROPERTY
W(SA)
SciTegic.value.DoubleValue
2.208

@<SCITEGIC>MOL_PROPERTY
Valence
SciTegic.value.DoubleValue
9.231

@<SCITEGIC>MOL_PROPERTY
Coulomb
SciTegic.value.DoubleValue
-1.304

@<SCITEGIC>MOL_PROPERTY
VdW
SciTegic.value.DoubleValue
0.501

@<SCITEGIC>MOL_PROPERTY
VdW6
SciTegic.value.DoubleValue
-6.515

@<SCITEGIC>MOL_PROPERTY
VdW12
SciTegic.value.DoubleValue
7.016

@<SCITEGIC>MOL_PROPERTY
Bond
SciTegic.value.DoubleValue
0.103

@<SCITEGIC>MOL_PROPERTY
Angle
SciTegic.value.DoubleValue
2.328

@<SCITEGIC>MOL_PROPERTY
Pdih
SciTegic.value.DoubleValue
6.799

@<SCITEGIC>MOL_PROPERTY
Idih
SciTegic.value.DoubleValue
0.000

@<SCITEGIC>MOL_PROPERTY
Tether
SciTegic.value.DoubleValue
0.000

@<TRIPOS>MOLECULE
guest-s22_confgen4.mol2 : confsearch ligand conformer 117
          20          19           1
SMALL
USER_CHARGES
 
@<TRIPOS>ATOM
       1    C1      21.226722   17.544000   20.109214 C.2        1 MOL1        -0.2535
       2    H1      22.190434   17.762614   20.566230 H          1 MOL1         0.0845
       3    H2      21.193647   17.462035   19.024187 H          1 MOL1         0.0845
       4    C2      20.124771   17.385822   20.847257 C.2        1 MOL1        -0.1324
       5    H3      19.169238   17.170306   20.369852 H          1 MOL1         0.0833
       6    C3      20.092227   17.486440   22.357463 C.3        1 MOL1        -0.1813
       7    H4      21.111776   17.508420   22.765685 H          1 MOL1         0.0753
       8    H5      19.614033   16.586693   22.766848 H          1 MOL1         0.0753
       9    C4      19.314090   18.729483   22.844604 C.3        1 MOL1        -0.1855
      10    H6      18.292615   18.701972   22.440662 H          1 MOL1         0.0755
      11    H7      19.219351   18.683568   23.938065 H          1 MOL1         0.0755
      12    C5      20.002498   20.057261   22.449167 C.3        1 MOL1        -0.1855
      13    H8      20.066218   20.135733   21.355030 H          1 MOL1         0.0755
      14    H9      21.034297   20.055824   22.825490 H          1 MOL1         0.0755
      15    C6      19.263587   21.301015   23.007654 C.3        1 MOL1        -0.1958
      16    H10     19.169521   21.228539   24.097895 H          1 MOL1         0.0753
      17    H11     19.853143   22.201518   22.799065 H          1 MOL1         0.0753
      18    C7      17.874873   21.515717   22.412517 C.2        1 MOL1         0.6174
      19    O1      16.907832   21.210072   23.082276 O.co2      1 MOL1        -0.6695
      20    O2      17.797096   22.000520   21.300756 O.co2      1 MOL1        -0.6695
@<TRIPOS>BOND
    1     1     2    1
    2     1     3    1
    3     1     4    2
    4     4     5    1
    5     4     6    1
    6     6     7    1
    7     6     8    1
    8     6     9    1
    9     9    10    1
   10     9    11    1
   11     9    12    1
   12    12    13    1
   13    12    14    1
   14    12    15    1
   15    15    16    1
   16    15    17    1
   17    15    18    1
   18    18    19    1
   19    18    20    2
@<TRIPOS>SUBSTRUCTURE
       1 MOL1            1 RESIDUE      1      MOL     
@<SCITEGIC>MOL_PROPERTY
VConf Rank
SciTegic.value.IntegerValue
117

@<SCITEGIC>MOL_PROPERTY
Conf_Id
SciTegic.value.IntegerValue
68

@<SCITEGIC>MOL_PROPERTY
Delta U+W
SciTegic.value.DoubleValue
0.492

@<SCITEGIC>MOL_PROPERTY
U+W
SciTegic.value.DoubleValue
-51.253

@<SCITEGIC>MOL_PROPERTY
Grad RMS
SciTegic.value.DoubleValue
0.000000

@<SCITEGIC>MOL_PROPERTY
U
SciTegic.value.DoubleValue
10.179

@<SCITEGIC>MOL_PROPERTY
W
SciTegic.value.DoubleValue
-61.432

@<SCITEGIC>MOL_PROPERTY
W(PB)
SciTegic.value.DoubleValue
-63.627

@<SCITEGIC>MOL_PROPERTY
W(SA)
SciTegic.value.DoubleValue
2.195

@<SCITEGIC>MOL_PROPERTY
Valence
SciTegic.value.DoubleValue
9.483

@<SCITEGIC>MOL_PROPERTY
Coulomb
SciTegic.value.DoubleValue
0.361

@<SCITEGIC>MOL_PROPERTY
VdW
SciTegic.value.DoubleValue
0.335

@<SCITEGIC>MOL_PROPERTY
VdW6
SciTegic.value.DoubleValue
-7.385

@<SCITEGIC>MOL_PROPERTY
VdW12
SciTegic.value.DoubleValue
7.720

@<SCITEGIC>MOL_PROPERTY
Bond
SciTegic.value.DoubleValue
0.125

@<SCITEGIC>MOL_PROPERTY
Angle
SciTegic.value.DoubleValue
2.487

@<SCITEGIC>MOL_PROPERTY
Pdih
SciTegic.value.DoubleValue
6.870

@<SCITEGIC>MOL_PROPERTY
Idih
SciTegic.value.DoubleValue
0.001

@<SCITEGIC>MOL_PROPERTY
Tether
SciTegic.value.DoubleValue
0.000

@<TRIPOS>MOLECULE
guest-s22_confgen4.mol2 : confsearch ligand conformer 118
          20          19           1
SMALL
USER_CHARGES
 
@<TRIPOS>ATOM
       1    C1      22.264163   18.612651   20.350763 C.2        1 MOL1        -0.2535
       2    H1      22.524535   19.589216   19.945771 H          1 MOL1         0.0845
       3    H2      22.491539   17.740234   19.740545 H          1 MOL1         0.0845
       4    C2      21.685065   18.485816   21.547532 C.2        1 MOL1        -0.1324
       5    H3      21.435267   17.498595   21.935140 H          1 MOL1         0.0833
       6    C3      21.345217   19.650923   22.452413 C.3        1 MOL1        -0.1813
       7    H4      21.927696   20.533357   22.154845 H          1 MOL1         0.0753
       8    H5      21.640961   19.421404   23.484815 H          1 MOL1         0.0753
       9    C4      19.843124   20.011358   22.407888 C.3        1 MOL1        -0.1855
      10    H6      19.683945   20.937125   22.977417 H          1 MOL1         0.0755
      11    H7      19.552157   20.228329   21.370651 H          1 MOL1         0.0755
      12    C5      18.939759   18.897116   22.987652 C.3        1 MOL1        -0.1855
      13    H8      19.271630   18.654793   24.006205 H          1 MOL1         0.0755
      14    H9      19.045483   17.979410   22.393131 H          1 MOL1         0.0755
      15    C6      17.444298   19.305409   23.029449 C.3        1 MOL1        -0.1958
      16    H10     16.868166   18.532913   23.552257 H          1 MOL1         0.0753
      17    H11     17.320309   20.234107   23.599457 H          1 MOL1         0.0753
      18    C7      16.814118   19.491826   21.652147 C.2        1 MOL1         0.6174
      19    O1      16.504313   18.497763   21.025277 O.co2      1 MOL1        -0.6695
      20    O2      16.631729   20.624447   21.250865 O.co2      1 MOL1        -0.6695
@<TRIPOS>BOND
    1     1     2    1
    2     1     3    1
    3     1     4    2
    4     4     5    1
    5     4     6    1
    6     6     7    1
    7     6     8    1
    8     6     9    1
    9     9    10    1
   10     9    11    1
   11     9    12    1
   12    12    13    1
   13    12    14    1
   14    12    15    1
   15    15    16    1
   16    15    17    1
   17    15    18    1
   18    18    19    1
   19    18    20    2
@<TRIPOS>SUBSTRUCTURE
       1 MOL1            1 RESIDUE      1      MOL     
@<SCITEGIC>MOL_PROPERTY
VConf Rank
SciTegic.value.IntegerValue
118

@<SCITEGIC>MOL_PROPERTY
Conf_Id
SciTegic.value.IntegerValue
87

@<SCITEGIC>MOL_PROPERTY
Delta U+W
SciTegic.value.DoubleValue
0.339

@<SCITEGIC>MOL_PROPERTY
U+W
SciTegic.value.DoubleValue
-51.407

@<SCITEGIC>MOL_PROPERTY
Grad RMS
SciTegic.value.DoubleValue
0.000000

@<SCITEGIC>MOL_PROPERTY
U
SciTegic.value.DoubleValue
10.461

@<SCITEGIC>MOL_PROPERTY
W
SciTegic.value.DoubleValue
-61.867

@<SCITEGIC>MOL_PROPERTY
W(PB)
SciTegic.value.DoubleValue
-64.045

@<SCITEGIC>MOL_PROPERTY
W(SA)
SciTegic.value.DoubleValue
2.178

@<SCITEGIC>MOL_PROPERTY
Valence
SciTegic.value.DoubleValue
9.555

@<SCITEGIC>MOL_PROPERTY
Coulomb
SciTegic.value.DoubleValue
0.483

@<SCITEGIC>MOL_PROPERTY
VdW
SciTegic.value.DoubleValue
0.423

@<SCITEGIC>MOL_PROPERTY
VdW6
SciTegic.value.DoubleValue
-7.223

@<SCITEGIC>MOL_PROPERTY
VdW12
SciTegic.value.DoubleValue
7.646

@<SCITEGIC>MOL_PROPERTY
Bond
SciTegic.value.DoubleValue
0.126

@<SCITEGIC>MOL_PROPERTY
Angle
SciTegic.value.DoubleValue
2.492

@<SCITEGIC>MOL_PROPERTY
Pdih
SciTegic.value.DoubleValue
6.936

@<SCITEGIC>MOL_PROPERTY
Idih
SciTegic.value.DoubleValue
0.001

@<SCITEGIC>MOL_PROPERTY
Tether
SciTegic.value.DoubleValue
0.000

@<TRIPOS>MOLECULE
guest-s22_confgen4.mol2 : confsearch ligand conformer 119
          20          19           1
SMALL
USER_CHARGES
 
@<TRIPOS>ATOM
       1    C1      18.179555   17.483060   19.959749 C.2        1 MOL1        -0.2535
       2    H1      18.074009   18.212074   19.157992 H          1 MOL1         0.0845
       3    H2      18.337163   16.443941   19.676179 H          1 MOL1         0.0845
       4    C2      18.120654   17.847840   21.243174 C.2        1 MOL1        -0.1324
       5    H3      18.219481   17.102254   22.031288 H          1 MOL1         0.0833
       6    C3      17.891717   19.269992   21.708662 C.3        1 MOL1        -0.1813
       7    H4      17.539739   19.277828   22.748848 H          1 MOL1         0.0753
       8    H5      17.075506   19.703130   21.114863 H          1 MOL1         0.0753
       9    C4      19.138629   20.177438   21.564026 C.3        1 MOL1        -0.1855
      10    H6      19.600902   20.026548   20.578902 H          1 MOL1         0.0755
      11    H7      18.798956   21.221991   21.580291 H          1 MOL1         0.0755
      12    C5      20.199736   20.011147   22.680942 C.3        1 MOL1        -0.1855
      13    H8      19.731043   20.148956   23.665003 H          1 MOL1         0.0755
      14    H9      20.938566   20.817863   22.576880 H          1 MOL1         0.0755
      15    C6      20.950578   18.655228   22.649596 C.3        1 MOL1        -0.1958
      16    H10     20.271591   17.833482   22.898171 H          1 MOL1         0.0753
      17    H11     21.344220   18.462279   21.644539 H          1 MOL1         0.0753
      18    C7      22.114031   18.602355   23.633065 C.2        1 MOL1         0.6174
      19    O1      21.890279   18.228828   24.767659 O.co2      1 MOL1        -0.6695
      20    O2      23.209998   18.956077   23.244968 O.co2      1 MOL1        -0.6695
@<TRIPOS>BOND
    1     1     2    1
    2     1     3    1
    3     1     4    2
    4     4     5    1
    5     4     6    1
    6     6     7    1
    7     6     8    1
    8     6     9    1
    9     9    10    1
   10     9    11    1
   11     9    12    1
   12    12    13    1
   13    12    14    1
   14    12    15    1
   15    15    16    1
   16    15    17    1
   17    15    18    1
   18    18    19    1
   19    18    20    2
@<TRIPOS>SUBSTRUCTURE
       1 MOL1            1 RESIDUE      1      MOL     
@<SCITEGIC>MOL_PROPERTY
VConf Rank
SciTegic.value.IntegerValue
119

@<SCITEGIC>MOL_PROPERTY
Conf_Id
SciTegic.value.IntegerValue
51

@<SCITEGIC>MOL_PROPERTY
Delta U+W
SciTegic.value.DoubleValue
1.709

@<SCITEGIC>MOL_PROPERTY
U+W
SciTegic.value.DoubleValue
-50.036

@<SCITEGIC>MOL_PROPERTY
Grad RMS
SciTegic.value.DoubleValue
0.000000

@<SCITEGIC>MOL_PROPERTY
U
SciTegic.value.DoubleValue
10.643

@<SCITEGIC>MOL_PROPERTY
W
SciTegic.value.DoubleValue
-60.679

@<SCITEGIC>MOL_PROPERTY
W(PB)
SciTegic.value.DoubleValue
-62.882

@<SCITEGIC>MOL_PROPERTY
W(SA)
SciTegic.value.DoubleValue
2.203

@<SCITEGIC>MOL_PROPERTY
Valence
SciTegic.value.DoubleValue
11.231

@<SCITEGIC>MOL_PROPERTY
Coulomb
SciTegic.value.DoubleValue
-1.077

@<SCITEGIC>MOL_PROPERTY
VdW
SciTegic.value.DoubleValue
0.489

@<SCITEGIC>MOL_PROPERTY
VdW6
SciTegic.value.DoubleValue
-7.546

@<SCITEGIC>MOL_PROPERTY
VdW12
SciTegic.value.DoubleValue
8.035

@<SCITEGIC>MOL_PROPERTY
Bond
SciTegic.value.DoubleValue
0.159

@<SCITEGIC>MOL_PROPERTY
Angle
SciTegic.value.DoubleValue
3.005

@<SCITEGIC>MOL_PROPERTY
Pdih
SciTegic.value.DoubleValue
8.065

@<SCITEGIC>MOL_PROPERTY
Idih
SciTegic.value.DoubleValue
0.002

@<SCITEGIC>MOL_PROPERTY
Tether
SciTegic.value.DoubleValue
0.000

@<TRIPOS>MOLECULE
guest-s22_confgen4.mol2 : confsearch ligand conformer 120
          20          19           1
SMALL
USER_CHARGES
 
@<TRIPOS>ATOM
       1    C1      17.848800   20.245755   20.053699 C.2        1 MOL1        -0.2535
       2    H1      17.546432   21.179507   20.524971 H          1 MOL1         0.0845
       3    H2      17.103620   19.717893   19.461171 H          1 MOL1         0.0845
       4    C2      19.085667   19.762964   20.197876 C.2        1 MOL1        -0.1324
       5    H3      19.371987   18.831408   19.711031 H          1 MOL1         0.0833
       6    C3      20.173996   20.449363   20.995371 C.3        1 MOL1        -0.1813
       7    H4      20.171867   21.517420   20.739133 H          1 MOL1         0.0753
       8    H5      21.160847   20.073043   20.694634 H          1 MOL1         0.0753
       9    C4      19.998918   20.312253   22.528250 C.3        1 MOL1        -0.1855
      10    H6      20.593379   21.102097   23.007310 H          1 MOL1         0.0755
      11    H7      18.954810   20.510735   22.806410 H          1 MOL1         0.0755
      12    C5      20.458197   18.955205   23.118664 C.3        1 MOL1        -0.1855
      13    H8      20.457356   19.038441   24.214365 H          1 MOL1         0.0755
      14    H9      21.497977   18.753518   22.826745 H          1 MOL1         0.0755
      15    C6      19.565185   17.752230   22.720352 C.3        1 MOL1        -0.1958
      16    H10     18.511277   17.978785   22.921032 H          1 MOL1         0.0753
      17    H11     19.656555   17.542875   21.649882 H          1 MOL1         0.0753
      18    C7      19.927058   16.475246   23.470004 C.2        1 MOL1         0.6174
      19    O1      20.777107   15.750107   22.992009 O.co2      1 MOL1        -0.6695
      20    O2      19.364210   16.248937   24.523032 O.co2      1 MOL1        -0.6695
@<TRIPOS>BOND
    1     1     2    1
    2     1     3    1
    3     1     4    2
    4     4     5    1
    5     4     6    1
    6     6     7    1
    7     6     8    1
    8     6     9    1
    9     9    10    1
   10     9    11    1
   11     9    12    1
   12    12    13    1
   13    12    14    1
   14    12    15    1
   15    15    16    1
   16    15    17    1
   17    15    18    1
   18    18    19    1
   19    18    20    2
@<TRIPOS>SUBSTRUCTURE
       1 MOL1            1 RESIDUE      1      MOL     
@<SCITEGIC>MOL_PROPERTY
VConf Rank
SciTegic.value.IntegerValue
120

@<SCITEGIC>MOL_PROPERTY
Conf_Id
SciTegic.value.IntegerValue
91

@<SCITEGIC>MOL_PROPERTY
Delta U+W
SciTegic.value.DoubleValue
1.604

@<SCITEGIC>MOL_PROPERTY
U+W
SciTegic.value.DoubleValue
-50.141

@<SCITEGIC>MOL_PROPERTY
Grad RMS
SciTegic.value.DoubleValue
0.000000

@<SCITEGIC>MOL_PROPERTY
U
SciTegic.value.DoubleValue
10.644

@<SCITEGIC>MOL_PROPERTY
W
SciTegic.value.DoubleValue
-60.786

@<SCITEGIC>MOL_PROPERTY
W(PB)
SciTegic.value.DoubleValue
-62.965

@<SCITEGIC>MOL_PROPERTY
W(SA)
SciTegic.value.DoubleValue
2.179

@<SCITEGIC>MOL_PROPERTY
Valence
SciTegic.value.DoubleValue
11.230

@<SCITEGIC>MOL_PROPERTY
Coulomb
SciTegic.value.DoubleValue
-1.075

@<SCITEGIC>MOL_PROPERTY
VdW
SciTegic.value.DoubleValue
0.489

@<SCITEGIC>MOL_PROPERTY
VdW6
SciTegic.value.DoubleValue
-7.547

@<SCITEGIC>MOL_PROPERTY
VdW12
SciTegic.value.DoubleValue
8.036

@<SCITEGIC>MOL_PROPERTY
Bond
SciTegic.value.DoubleValue
0.159

@<SCITEGIC>MOL_PROPERTY
Angle
SciTegic.value.DoubleValue
3.006

@<SCITEGIC>MOL_PROPERTY
Pdih
SciTegic.value.DoubleValue
8.064

@<SCITEGIC>MOL_PROPERTY
Idih
SciTegic.value.DoubleValue
0.002

@<SCITEGIC>MOL_PROPERTY
Tether
SciTegic.value.DoubleValue
0.000

@<TRIPOS>MOLECULE
guest-s22_confgen4.mol2 : confsearch ligand conformer 121
          20          19           1
SMALL
USER_CHARGES
 
@<TRIPOS>ATOM
       1    C1      16.949285   16.727043   22.380914 C.2        1 MOL1        -0.2535
       2    H1      17.105367   16.364306   21.366196 H          1 MOL1         0.0845
       3    H2      15.971932   16.556284   22.829131 H          1 MOL1         0.0845
       4    C2      17.915343   17.359424   23.052090 C.2        1 MOL1        -0.1324
       5    H3      17.738298   17.715335   24.066802 H          1 MOL1         0.0833
       6    C3      19.295423   17.631439   22.496188 C.3        1 MOL1        -0.1813
       7    H4      19.469924   17.024229   21.597494 H          1 MOL1         0.0753
       8    H5      20.053643   17.331725   23.231999 H          1 MOL1         0.0753
       9    C4      19.472129   19.124629   22.149732 C.3        1 MOL1        -0.1855
      10    H6      18.708804   19.420259   21.416709 H          1 MOL1         0.0755
      11    H7      19.302009   19.731212   23.049886 H          1 MOL1         0.0755
      12    C5      20.877950   19.420703   21.583055 C.3        1 MOL1        -0.1855
      13    H8      21.048653   18.814713   20.682399 H          1 MOL1         0.0755
      14    H9      21.641838   19.124106   22.315195 H          1 MOL1         0.0755
      15    C6      21.055001   20.922454   21.234063 C.3        1 MOL1        -0.1958
      16    H10     20.299665   21.223712   20.498790 H          1 MOL1         0.0753
      17    H11     20.892312   21.532971   22.130003 H          1 MOL1         0.0753
      18    C7      22.422672   21.303154   20.664977 C.2        1 MOL1         0.6174
      19    O1      22.599380   22.471135   20.380841 O.co2      1 MOL1        -0.6695
      20    O2      23.273448   20.447109   20.516604 O.co2      1 MOL1        -0.6695
@<TRIPOS>BOND
    1     1     2    1
    2     1     3    1
    3     1     4    2
    4     4     5    1
    5     4     6    1
    6     6     7    1
    7     6     8    1
    8     6     9    1
    9     9    10    1
   10     9    11    1
   11     9    12    1
   12    12    13    1
   13    12    14    1
   14    12    15    1
   15    15    16    1
   16    15    17    1
   17    15    18    1
   18    18    19    1
   19    18    20    2
@<TRIPOS>SUBSTRUCTURE
       1 MOL1            1 RESIDUE      1      MOL     
@<SCITEGIC>MOL_PROPERTY
VConf Rank
SciTegic.value.IntegerValue
121

@<SCITEGIC>MOL_PROPERTY
Conf_Id
SciTegic.value.IntegerValue
33

@<SCITEGIC>MOL_PROPERTY
Delta U+W
SciTegic.value.DoubleValue
0.000

@<SCITEGIC>MOL_PROPERTY
U+W
SciTegic.value.DoubleValue
-51.745

@<SCITEGIC>MOL_PROPERTY
Grad RMS
SciTegic.value.DoubleValue
0.000000

@<SCITEGIC>MOL_PROPERTY
U
SciTegic.value.DoubleValue
7.593

@<SCITEGIC>MOL_PROPERTY
W
SciTegic.value.DoubleValue
-59.338

@<SCITEGIC>MOL_PROPERTY
W(PB)
SciTegic.value.DoubleValue
-61.574

@<SCITEGIC>MOL_PROPERTY
W(SA)
SciTegic.value.DoubleValue
2.236

@<SCITEGIC>MOL_PROPERTY
Valence
SciTegic.value.DoubleValue
9.570

@<SCITEGIC>MOL_PROPERTY
Coulomb
SciTegic.value.DoubleValue
-3.091

@<SCITEGIC>MOL_PROPERTY
VdW
SciTegic.value.DoubleValue
1.114

@<SCITEGIC>MOL_PROPERTY
VdW6
SciTegic.value.DoubleValue
-6.064

@<SCITEGIC>MOL_PROPERTY
VdW12
SciTegic.value.DoubleValue
7.178

@<SCITEGIC>MOL_PROPERTY
Bond
SciTegic.value.DoubleValue
0.117

@<SCITEGIC>MOL_PROPERTY
Angle
SciTegic.value.DoubleValue
2.692

@<SCITEGIC>MOL_PROPERTY
Pdih
SciTegic.value.DoubleValue
6.761

@<SCITEGIC>MOL_PROPERTY
Idih
SciTegic.value.DoubleValue
0.000

@<SCITEGIC>MOL_PROPERTY
Tether
SciTegic.value.DoubleValue
0.000

@<TRIPOS>MOLECULE
guest-s22_confgen4.mol2 : confsearch ligand conformer 122
          20          19           1
SMALL
USER_CHARGES
 
@<TRIPOS>ATOM
       1    C1      19.725055   15.998537   23.887301 C.2        1 MOL1        -0.2535
       2    H1      18.802746   16.318829   24.369314 H          1 MOL1         0.0845
       3    H2      20.238072   15.136429   24.310201 H          1 MOL1         0.0845
       4    C2      20.212777   16.636913   22.820401 C.2        1 MOL1        -0.1324
       5    H3      21.138147   16.300674   22.353212 H          1 MOL1         0.0833
       6    C3      19.556522   17.838830   22.178179 C.3        1 MOL1        -0.1813
       7    H4      18.524759   17.946248   22.539457 H          1 MOL1         0.0753
       8    H5      19.498363   17.680564   21.093919 H          1 MOL1         0.0753
       9    C4      20.345997   19.131478   22.484121 C.3        1 MOL1        -0.1855
      10    H6      20.464387   19.224068   23.572584 H          1 MOL1         0.0755
      11    H7      21.359565   19.052882   22.067592 H          1 MOL1         0.0755
      12    C5      19.662066   20.413144   21.951438 C.3        1 MOL1        -0.1855
      13    H8      20.225251   21.286892   22.307642 H          1 MOL1         0.0755
      14    H9      18.652999   20.500117   22.377598 H          1 MOL1         0.0755
      15    C6      19.577599   20.472205   20.404069 C.3        1 MOL1        -0.1958
      16    H10     20.574264   20.343586   19.965322 H          1 MOL1         0.0753
      17    H11     18.945764   19.663419   20.020149 H          1 MOL1         0.0753
      18    C7      19.003594   21.789688   19.895419 C.2        1 MOL1         0.6174
      19    O1      17.799143   21.876398   19.759446 O.co2      1 MOL1        -0.6695
      20    O2      19.774296   22.701149   19.667401 O.co2      1 MOL1        -0.6695
@<TRIPOS>BOND
    1     1     2    1
    2     1     3    1
    3     1     4    2
    4     4     5    1
    5     4     6    1
    6     6     7    1
    7     6     8    1
    8     6     9    1
    9     9    10    1
   10     9    11    1
   11     9    12    1
   12    12    13    1
   13    12    14    1
   14    12    15    1
   15    15    16    1
   16    15    17    1
   17    15    18    1
   18    18    19    1
   19    18    20    2
@<TRIPOS>SUBSTRUCTURE
       1 MOL1            1 RESIDUE      1      MOL     
@<SCITEGIC>MOL_PROPERTY
VConf Rank
SciTegic.value.IntegerValue
122

@<SCITEGIC>MOL_PROPERTY
Conf_Id
SciTegic.value.IntegerValue
37

@<SCITEGIC>MOL_PROPERTY
Delta U+W
SciTegic.value.DoubleValue
-0.384

@<SCITEGIC>MOL_PROPERTY
U+W
SciTegic.value.DoubleValue
-52.130

@<SCITEGIC>MOL_PROPERTY
Grad RMS
SciTegic.value.DoubleValue
0.000000

@<SCITEGIC>MOL_PROPERTY
U
SciTegic.value.DoubleValue
7.491

@<SCITEGIC>MOL_PROPERTY
W
SciTegic.value.DoubleValue
-59.621

@<SCITEGIC>MOL_PROPERTY
W(PB)
SciTegic.value.DoubleValue
-61.853

@<SCITEGIC>MOL_PROPERTY
W(SA)
SciTegic.value.DoubleValue
2.232

@<SCITEGIC>MOL_PROPERTY
Valence
SciTegic.value.DoubleValue
9.604

@<SCITEGIC>MOL_PROPERTY
Coulomb
SciTegic.value.DoubleValue
-2.799

@<SCITEGIC>MOL_PROPERTY
VdW
SciTegic.value.DoubleValue
0.686

@<SCITEGIC>MOL_PROPERTY
VdW6
SciTegic.value.DoubleValue
-6.435

@<SCITEGIC>MOL_PROPERTY
VdW12
SciTegic.value.DoubleValue
7.121

@<SCITEGIC>MOL_PROPERTY
Bond
SciTegic.value.DoubleValue
0.124

@<SCITEGIC>MOL_PROPERTY
Angle
SciTegic.value.DoubleValue
2.493

@<SCITEGIC>MOL_PROPERTY
Pdih
SciTegic.value.DoubleValue
6.986

@<SCITEGIC>MOL_PROPERTY
Idih
SciTegic.value.DoubleValue
0.001

@<SCITEGIC>MOL_PROPERTY
Tether
SciTegic.value.DoubleValue
0.000

@<TRIPOS>MOLECULE
guest-s22_confgen4.mol2 : confsearch ligand conformer 123
          20          19           1
SMALL
USER_CHARGES
 
@<TRIPOS>ATOM
       1    C1      20.966404   19.720877   24.954477 C.2        1 MOL1        -0.2535
       2    H1      21.364826   19.958394   25.939382 H          1 MOL1         0.0845
       3    H2      20.008333   19.206393   24.923602 H          1 MOL1         0.0845
       4    C2      21.638695   20.054394   23.846910 C.2        1 MOL1        -0.1324
       5    H3      22.594534   20.569128   23.942033 H          1 MOL1         0.0833
       6    C3      21.213245   19.791322   22.412058 C.3        1 MOL1        -0.1813
       7    H4      21.997668   19.206717   21.913008 H          1 MOL1         0.0753
       8    H5      21.170861   20.748616   21.875469 H          1 MOL1         0.0753
       9    C4      19.858930   19.061263   22.254488 C.3        1 MOL1        -0.1855
      10    H6      19.901666   18.092913   22.771748 H          1 MOL1         0.0755
      11    H7      19.065892   19.651529   22.733825 H          1 MOL1         0.0755
      12    C5      19.501081   18.833245   20.769572 C.3        1 MOL1        -0.1855
      13    H8      20.290882   18.243150   20.284175 H          1 MOL1         0.0755
      14    H9      19.456824   19.798580   20.246337 H          1 MOL1         0.0755
      15    C6      18.145305   18.102346   20.609126 C.3        1 MOL1        -0.1958
      16    H10     18.177064   17.129843   21.114923 H          1 MOL1         0.0753
      17    H11     17.342996   18.685294   21.077180 H          1 MOL1         0.0753
      18    C7      17.769557   17.865479   19.150807 C.2        1 MOL1         0.6174
      19    O1      18.142951   16.837049   18.622076 O.co2      1 MOL1        -0.6695
      20    O2      17.130347   18.724610   18.576394 O.co2      1 MOL1        -0.6695
@<TRIPOS>BOND
    1     1     2    1
    2     1     3    1
    3     1     4    2
    4     4     5    1
    5     4     6    1
    6     6     7    1
    7     6     8    1
    8     6     9    1
    9     9    10    1
   10     9    11    1
   11     9    12    1
   12    12    13    1
   13    12    14    1
   14    12    15    1
   15    15    16    1
   16    15    17    1
   17    15    18    1
   18    18    19    1
   19    18    20    2
@<TRIPOS>SUBSTRUCTURE
       1 MOL1            1 RESIDUE      1      MOL     
@<SCITEGIC>MOL_PROPERTY
VConf Rank
SciTegic.value.IntegerValue
123

@<SCITEGIC>MOL_PROPERTY
Conf_Id
SciTegic.value.IntegerValue
44

@<SCITEGIC>MOL_PROPERTY
Delta U+W
SciTegic.value.DoubleValue
-1.440

@<SCITEGIC>MOL_PROPERTY
U+W
SciTegic.value.DoubleValue
-53.185

@<SCITEGIC>MOL_PROPERTY
Grad RMS
SciTegic.value.DoubleValue
0.000000

@<SCITEGIC>MOL_PROPERTY
U
SciTegic.value.DoubleValue
6.572

@<SCITEGIC>MOL_PROPERTY
W
SciTegic.value.DoubleValue
-59.757

@<SCITEGIC>MOL_PROPERTY
W(PB)
SciTegic.value.DoubleValue
-62.007

@<SCITEGIC>MOL_PROPERTY
W(SA)
SciTegic.value.DoubleValue
2.249

@<SCITEGIC>MOL_PROPERTY
Valence
SciTegic.value.DoubleValue
7.989

@<SCITEGIC>MOL_PROPERTY
Coulomb
SciTegic.value.DoubleValue
-2.697

@<SCITEGIC>MOL_PROPERTY
VdW
SciTegic.value.DoubleValue
1.281

@<SCITEGIC>MOL_PROPERTY
VdW6
SciTegic.value.DoubleValue
-6.467

@<SCITEGIC>MOL_PROPERTY
VdW12
SciTegic.value.DoubleValue
7.748

@<SCITEGIC>MOL_PROPERTY
Bond
SciTegic.value.DoubleValue
0.136

@<SCITEGIC>MOL_PROPERTY
Angle
SciTegic.value.DoubleValue
2.854

@<SCITEGIC>MOL_PROPERTY
Pdih
SciTegic.value.DoubleValue
4.997

@<SCITEGIC>MOL_PROPERTY
Idih
SciTegic.value.DoubleValue
0.001

@<SCITEGIC>MOL_PROPERTY
Tether
SciTegic.value.DoubleValue
0.000

@<TRIPOS>MOLECULE
guest-s22_confgen4.mol2 : confsearch ligand conformer 124
          20          19           1
SMALL
USER_CHARGES
 
@<TRIPOS>ATOM
       1    C1      21.991407   21.180108   23.560043 C.2        1 MOL1        -0.2535
       2    H1      22.233087   21.439392   22.530509 H          1 MOL1         0.0845
       3    H2      22.676409   21.518173   24.335761 H          1 MOL1         0.0845
       4    C2      20.899865   20.472918   23.863581 C.2        1 MOL1        -0.1324
       5    H3      20.676542   20.223493   24.900668 H          1 MOL1         0.0833
       6    C3      19.903495   19.971143   22.842129 C.3        1 MOL1        -0.1813
       7    H4      20.056279   20.489240   21.886706 H          1 MOL1         0.0753
       8    H5      18.884940   20.212041   23.174463 H          1 MOL1         0.0753
       9    C4      20.035719   18.444692   22.641070 C.3        1 MOL1        -0.1855
      10    H6      21.037808   18.210054   22.256423 H          1 MOL1         0.0755
      11    H7      19.955123   17.949104   23.618301 H          1 MOL1         0.0755
      12    C5      18.962911   17.850735   21.697342 C.3        1 MOL1        -0.1855
      13    H8      17.960186   18.076309   22.085968 H          1 MOL1         0.0755
      14    H9      19.057801   16.755983   21.701366 H          1 MOL1         0.0755
      15    C6      19.077198   18.354633   20.235124 C.3        1 MOL1        -0.1958
      16    H10     18.896227   19.434080   20.182708 H          1 MOL1         0.0753
      17    H11     20.088223   18.174602   19.850655 H          1 MOL1         0.0753
      18    C7      18.086676   17.672944   19.298057 C.2        1 MOL1         0.6174
      19    O1      18.435322   16.651700   18.739271 O.co2      1 MOL1        -0.6695
      20    O2      16.985567   18.170004   19.166892 O.co2      1 MOL1        -0.6695
@<TRIPOS>BOND
    1     1     2    1
    2     1     3    1
    3     1     4    2
    4     4     5    1
    5     4     6    1
    6     6     7    1
    7     6     8    1
    8     6     9    1
    9     9    10    1
   10     9    11    1
   11     9    12    1
   12    12    13    1
   13    12    14    1
   14    12    15    1
   15    15    16    1
   16    15    17    1
   17    15    18    1
   18    18    19    1
   19    18    20    2
@<TRIPOS>SUBSTRUCTURE
       1 MOL1            1 RESIDUE      1      MOL     
@<SCITEGIC>MOL_PROPERTY
VConf Rank
SciTegic.value.IntegerValue
124

@<SCITEGIC>MOL_PROPERTY
Conf_Id
SciTegic.value.IntegerValue
38

@<SCITEGIC>MOL_PROPERTY
Delta U+W
SciTegic.value.DoubleValue
-0.381

@<SCITEGIC>MOL_PROPERTY
U+W
SciTegic.value.DoubleValue
-52.126

@<SCITEGIC>MOL_PROPERTY
Grad RMS
SciTegic.value.DoubleValue
0.000000

@<SCITEGIC>MOL_PROPERTY
U
SciTegic.value.DoubleValue
7.601

@<SCITEGIC>MOL_PROPERTY
W
SciTegic.value.DoubleValue
-59.727

@<SCITEGIC>MOL_PROPERTY
W(PB)
SciTegic.value.DoubleValue
-61.964

@<SCITEGIC>MOL_PROPERTY
W(SA)
SciTegic.value.DoubleValue
2.236

@<SCITEGIC>MOL_PROPERTY
Valence
SciTegic.value.DoubleValue
9.602

@<SCITEGIC>MOL_PROPERTY
Coulomb
SciTegic.value.DoubleValue
-2.686

@<SCITEGIC>MOL_PROPERTY
VdW
SciTegic.value.DoubleValue
0.685

@<SCITEGIC>MOL_PROPERTY
VdW6
SciTegic.value.DoubleValue
-6.453

@<SCITEGIC>MOL_PROPERTY
VdW12
SciTegic.value.DoubleValue
7.139

@<SCITEGIC>MOL_PROPERTY
Bond
SciTegic.value.DoubleValue
0.125

@<SCITEGIC>MOL_PROPERTY
Angle
SciTegic.value.DoubleValue
2.485

@<SCITEGIC>MOL_PROPERTY
Pdih
SciTegic.value.DoubleValue
6.991

@<SCITEGIC>MOL_PROPERTY
Idih
SciTegic.value.DoubleValue
0.001

@<SCITEGIC>MOL_PROPERTY
Tether
SciTegic.value.DoubleValue
0.000

@<TRIPOS>MOLECULE
guest-s22_confgen4.mol2 : confsearch ligand conformer 125
          20          19           1
SMALL
USER_CHARGES
 
@<TRIPOS>ATOM
       1    C1      17.151438   19.764387   19.619408 C.2        1 MOL1        -0.2535
       2    H1      17.854618   20.125079   18.870398 H          1 MOL1         0.0845
       3    H2      16.194134   19.384881   19.266119 H          1 MOL1         0.0845
       4    C2      17.448474   19.782782   20.921367 C.2        1 MOL1        -0.1324
       5    H3      16.730745   19.416133   21.654916 H          1 MOL1         0.0833
       6    C3      18.755036   20.294675   21.485733 C.3        1 MOL1        -0.1813
       7    H4      18.551514   20.984359   22.315817 H          1 MOL1         0.0753
       8    H5      19.299410   20.868872   20.723699 H          1 MOL1         0.0753
       9    C4      19.639873   19.132904   21.984093 C.3        1 MOL1        -0.1855
      10    H6      19.094032   18.561680   22.747764 H          1 MOL1         0.0755
      11    H7      19.837271   18.442716   21.152260 H          1 MOL1         0.0755
      12    C5      20.978584   19.639213   22.567045 C.3        1 MOL1        -0.1855
      13    H8      20.784875   20.321731   23.406295 H          1 MOL1         0.0755
      14    H9      21.509551   20.221700   21.801953 H          1 MOL1         0.0755
      15    C6      21.895380   18.483762   23.045913 C.3        1 MOL1        -0.1958
      16    H10     22.075470   17.778162   22.225819 H          1 MOL1         0.0753
      17    H11     22.872029   18.887616   23.337523 H          1 MOL1         0.0753
      18    C7      21.345751   17.711027   24.241595 C.2        1 MOL1         0.6174
      19    O1      20.877665   16.606380   24.047632 O.co2      1 MOL1        -0.6695
      20    O2      21.410862   18.231173   25.338092 O.co2      1 MOL1        -0.6695
@<TRIPOS>BOND
    1     1     2    1
    2     1     3    1
    3     1     4    2
    4     4     5    1
    5     4     6    1
    6     6     7    1
    7     6     8    1
    8     6     9    1
    9     9    10    1
   10     9    11    1
   11     9    12    1
   12    12    13    1
   13    12    14    1
   14    12    15    1
   15    15    16    1
   16    15    17    1
   17    15    18    1
   18    18    19    1
   19    18    20    2
@<TRIPOS>SUBSTRUCTURE
       1 MOL1            1 RESIDUE      1      MOL     
@<SCITEGIC>MOL_PROPERTY
VConf Rank
SciTegic.value.IntegerValue
125

@<SCITEGIC>MOL_PROPERTY
Conf_Id
SciTegic.value.IntegerValue
58

@<SCITEGIC>MOL_PROPERTY
Delta U+W
SciTegic.value.DoubleValue
0.019

@<SCITEGIC>MOL_PROPERTY
U+W
SciTegic.value.DoubleValue
-51.727

@<SCITEGIC>MOL_PROPERTY
Grad RMS
SciTegic.value.DoubleValue
0.000000

@<SCITEGIC>MOL_PROPERTY
U
SciTegic.value.DoubleValue
8.963

@<SCITEGIC>MOL_PROPERTY
W
SciTegic.value.DoubleValue
-60.690

@<SCITEGIC>MOL_PROPERTY
W(PB)
SciTegic.value.DoubleValue
-62.934

@<SCITEGIC>MOL_PROPERTY
W(SA)
SciTegic.value.DoubleValue
2.244

@<SCITEGIC>MOL_PROPERTY
Valence
SciTegic.value.DoubleValue
9.327

@<SCITEGIC>MOL_PROPERTY
Coulomb
SciTegic.value.DoubleValue
-0.780

@<SCITEGIC>MOL_PROPERTY
VdW
SciTegic.value.DoubleValue
0.417

@<SCITEGIC>MOL_PROPERTY
VdW6
SciTegic.value.DoubleValue
-6.635

@<SCITEGIC>MOL_PROPERTY
VdW12
SciTegic.value.DoubleValue
7.052

@<SCITEGIC>MOL_PROPERTY
Bond
SciTegic.value.DoubleValue
0.105

@<SCITEGIC>MOL_PROPERTY
Angle
SciTegic.value.DoubleValue
2.399

@<SCITEGIC>MOL_PROPERTY
Pdih
SciTegic.value.DoubleValue
6.822

@<SCITEGIC>MOL_PROPERTY
Idih
SciTegic.value.DoubleValue
0.000

@<SCITEGIC>MOL_PROPERTY
Tether
SciTegic.value.DoubleValue
0.000

@<TRIPOS>MOLECULE
guest-s22_confgen4.mol2 : confsearch ligand conformer 126
          20          19           1
SMALL
USER_CHARGES
 
@<TRIPOS>ATOM
       1    C1      17.327727   16.963369   23.340867 C.2        1 MOL1        -0.2535
       2    H1      16.951400   16.710664   22.350870 H          1 MOL1         0.0845
       3    H2      16.669137   16.781694   24.188523 H          1 MOL1         0.0845
       4    C2      18.547795   17.478639   23.512907 C.2        1 MOL1        -0.1324
       5    H3      18.905094   17.725574   24.512417 H          1 MOL1         0.0833
       6    C3      19.516995   17.757547   22.385740 C.3        1 MOL1        -0.1813
       7    H4      19.187876   17.252312   21.467504 H          1 MOL1         0.0753
       8    H5      20.502697   17.344235   22.638108 H          1 MOL1         0.0753
       9    C4      19.643865   19.272613   22.122125 C.3        1 MOL1        -0.1855
      10    H6      18.655219   19.683264   21.874707 H          1 MOL1         0.0755
      11    H7      19.975352   19.775231   23.041322 H          1 MOL1         0.0755
      12    C5      20.633514   19.575375   20.974406 C.3        1 MOL1        -0.1855
      13    H8      20.302660   19.056456   20.064548 H          1 MOL1         0.0755
      14    H9      21.626257   19.175212   21.223455 H          1 MOL1         0.0755
      15    C6      20.751886   21.092101   20.673699 C.3        1 MOL1        -0.1958
      16    H10     21.369851   21.241540   19.780523 H          1 MOL1         0.0753
      17    H11     19.763806   21.512380   20.450265 H          1 MOL1         0.0753
      18    C7      21.381074   21.901122   21.804395 C.2        1 MOL1         0.6174
      19    O1      22.584163   21.827384   21.960074 O.co2      1 MOL1        -0.6695
      20    O2      20.654719   22.591487   22.491981 O.co2      1 MOL1        -0.6695
@<TRIPOS>BOND
    1     1     2    1
    2     1     3    1
    3     1     4    2
    4     4     5    1
    5     4     6    1
    6     6     7    1
    7     6     8    1
    8     6     9    1
    9     9    10    1
   10     9    11    1
   11     9    12    1
   12    12    13    1
   13    12    14    1
   14    12    15    1
   15    15    16    1
   16    15    17    1
   17    15    18    1
   18    18    19    1
   19    18    20    2
@<TRIPOS>SUBSTRUCTURE
       1 MOL1            1 RESIDUE      1      MOL     
@<SCITEGIC>MOL_PROPERTY
VConf Rank
SciTegic.value.IntegerValue
126

@<SCITEGIC>MOL_PROPERTY
Conf_Id
SciTegic.value.IntegerValue
54

@<SCITEGIC>MOL_PROPERTY
Delta U+W
SciTegic.value.DoubleValue
-0.048

@<SCITEGIC>MOL_PROPERTY
U+W
SciTegic.value.DoubleValue
-51.793

@<SCITEGIC>MOL_PROPERTY
Grad RMS
SciTegic.value.DoubleValue
0.000000

@<SCITEGIC>MOL_PROPERTY
U
SciTegic.value.DoubleValue
8.964

@<SCITEGIC>MOL_PROPERTY
W
SciTegic.value.DoubleValue
-60.756

@<SCITEGIC>MOL_PROPERTY
W(PB)
SciTegic.value.DoubleValue
-63.007

@<SCITEGIC>MOL_PROPERTY
W(SA)
SciTegic.value.DoubleValue
2.251

@<SCITEGIC>MOL_PROPERTY
Valence
SciTegic.value.DoubleValue
9.327

@<SCITEGIC>MOL_PROPERTY
Coulomb
SciTegic.value.DoubleValue
-0.780

@<SCITEGIC>MOL_PROPERTY
VdW
SciTegic.value.DoubleValue
0.417

@<SCITEGIC>MOL_PROPERTY
VdW6
SciTegic.value.DoubleValue
-6.635

@<SCITEGIC>MOL_PROPERTY
VdW12
SciTegic.value.DoubleValue
7.052

@<SCITEGIC>MOL_PROPERTY
Bond
SciTegic.value.DoubleValue
0.105

@<SCITEGIC>MOL_PROPERTY
Angle
SciTegic.value.DoubleValue
2.399

@<SCITEGIC>MOL_PROPERTY
Pdih
SciTegic.value.DoubleValue
6.822

@<SCITEGIC>MOL_PROPERTY
Idih
SciTegic.value.DoubleValue
0.000

@<SCITEGIC>MOL_PROPERTY
Tether
SciTegic.value.DoubleValue
0.000

@<TRIPOS>MOLECULE
guest-s22_confgen4.mol2 : confsearch ligand conformer 127
          20          19           1
SMALL
USER_CHARGES
 
@<TRIPOS>ATOM
       1    C1      18.089112   20.553126   24.533830 C.2        1 MOL1        -0.2535
       2    H1      18.400746   21.123996   25.406859 H          1 MOL1         0.0845
       3    H2      17.174179   20.864031   24.032090 H          1 MOL1         0.0845
       4    C2      18.805671   19.514328   24.096664 C.2        1 MOL1        -0.1324
       5    H3      19.716613   19.217813   24.615813 H          1 MOL1         0.0833
       6    C3      18.430884   18.671490   22.896244 C.3        1 MOL1        -0.1813
       7    H4      17.362671   18.798447   22.674131 H          1 MOL1         0.0753
       8    H5      18.572093   17.607173   23.127186 H          1 MOL1         0.0753
       9    C4      19.245528   19.044306   21.637053 C.3        1 MOL1        -0.1855
      10    H6      18.832693   18.498791   20.777424 H          1 MOL1         0.0755
      11    H7      19.114983   20.113564   21.420759 H          1 MOL1         0.0755
      12    C5      20.751561   18.717750   21.776080 C.3        1 MOL1        -0.1855
      13    H8      20.881702   17.651337   22.006866 H          1 MOL1         0.0755
      14    H9      21.171629   19.278041   22.621723 H          1 MOL1         0.0755
      15    C6      21.557509   19.068932   20.498464 C.3        1 MOL1        -0.1958
      16    H10     21.410370   20.123567   20.235923 H          1 MOL1         0.0753
      17    H11     22.628302   18.936633   20.693032 H          1 MOL1         0.0753
      18    C7      21.205056   18.211077   19.286567 C.2        1 MOL1         0.6174
      19    O1      20.526526   18.706115   18.408168 O.co2      1 MOL1        -0.6695
      20    O2      21.628374   17.072446   19.248654 O.co2      1 MOL1        -0.6695
@<TRIPOS>BOND
    1     1     2    1
    2     1     3    1
    3     1     4    2
    4     4     5    1
    5     4     6    1
    6     6     7    1
    7     6     8    1
    8     6     9    1
    9     9    10    1
   10     9    11    1
   11     9    12    1
   12    12    13    1
   13    12    14    1
   14    12    15    1
   15    15    16    1
   16    15    17    1
   17    15    18    1
   18    18    19    1
   19    18    20    2
@<TRIPOS>SUBSTRUCTURE
       1 MOL1            1 RESIDUE      1      MOL     
@<SCITEGIC>MOL_PROPERTY
VConf Rank
SciTegic.value.IntegerValue
127

@<SCITEGIC>MOL_PROPERTY
Conf_Id
SciTegic.value.IntegerValue
27

@<SCITEGIC>MOL_PROPERTY
Delta U+W
SciTegic.value.DoubleValue
0.478

@<SCITEGIC>MOL_PROPERTY
U+W
SciTegic.value.DoubleValue
-51.267

@<SCITEGIC>MOL_PROPERTY
Grad RMS
SciTegic.value.DoubleValue
0.000000

@<SCITEGIC>MOL_PROPERTY
U
SciTegic.value.DoubleValue
9.192

@<SCITEGIC>MOL_PROPERTY
W
SciTegic.value.DoubleValue
-60.459

@<SCITEGIC>MOL_PROPERTY
W(PB)
SciTegic.value.DoubleValue
-62.649

@<SCITEGIC>MOL_PROPERTY
W(SA)
SciTegic.value.DoubleValue
2.190

@<SCITEGIC>MOL_PROPERTY
Valence
SciTegic.value.DoubleValue
9.572

@<SCITEGIC>MOL_PROPERTY
Coulomb
SciTegic.value.DoubleValue
-0.884

@<SCITEGIC>MOL_PROPERTY
VdW
SciTegic.value.DoubleValue
0.504

@<SCITEGIC>MOL_PROPERTY
VdW6
SciTegic.value.DoubleValue
-7.168

@<SCITEGIC>MOL_PROPERTY
VdW12
SciTegic.value.DoubleValue
7.672

@<SCITEGIC>MOL_PROPERTY
Bond
SciTegic.value.DoubleValue
0.127

@<SCITEGIC>MOL_PROPERTY
Angle
SciTegic.value.DoubleValue
2.504

@<SCITEGIC>MOL_PROPERTY
Pdih
SciTegic.value.DoubleValue
6.941

@<SCITEGIC>MOL_PROPERTY
Idih
SciTegic.value.DoubleValue
0.001

@<SCITEGIC>MOL_PROPERTY
Tether
SciTegic.value.DoubleValue
0.000

@<TRIPOS>MOLECULE
guest-s22_confgen4.mol2 : confsearch ligand conformer 128
          20          19           1
SMALL
USER_CHARGES
 
@<TRIPOS>ATOM
       1    C1      20.957578   16.002786   23.244334 C.2        1 MOL1        -0.2535
       2    H1      21.626704   15.580635   22.496293 H          1 MOL1         0.0845
       3    H2      20.472355   15.310595   23.930359 H          1 MOL1         0.0845
       4    C2      20.735459   17.317628   23.318692 C.2        1 MOL1        -0.1324
       5    H3      20.064260   17.719449   24.077193 H          1 MOL1         0.0833
       6    C3      21.378420   18.338780   22.404554 C.3        1 MOL1        -0.1813
       7    H4      22.273754   17.906183   21.937873 H          1 MOL1         0.0753
       8    H5      21.723652   19.200875   22.990786 H          1 MOL1         0.0753
       9    C4      20.420485   18.815948   21.289775 C.3        1 MOL1        -0.1855
      10    H6      20.981604   19.448064   20.588024 H          1 MOL1         0.0755
      11    H7      20.066274   17.947803   20.716918 H          1 MOL1         0.0755
      12    C5      19.212623   19.611989   21.835146 C.3        1 MOL1        -0.1855
      13    H8      19.568616   20.464940   22.429369 H          1 MOL1         0.0755
      14    H9      18.619426   18.978791   22.508837 H          1 MOL1         0.0755
      15    C6      18.301449   20.128198   20.694378 C.3        1 MOL1        -0.1958
      16    H10     18.871060   20.777032   20.018291 H          1 MOL1         0.0753
      17    H11     17.927851   19.286779   20.098520 H          1 MOL1         0.0753
      18    C7      17.101007   20.916040   21.206522 C.2        1 MOL1         0.6174
      19    O1      16.076628   20.308564   21.447936 O.co2      1 MOL1        -0.6695
      20    O2      17.227464   22.113903   21.367251 O.co2      1 MOL1        -0.6695
@<TRIPOS>BOND
    1     1     2    1
    2     1     3    1
    3     1     4    2
    4     4     5    1
    5     4     6    1
    6     6     7    1
    7     6     8    1
    8     6     9    1
    9     9    10    1
   10     9    11    1
   11     9    12    1
   12    12    13    1
   13    12    14    1
   14    12    15    1
   15    15    16    1
   16    15    17    1
   17    15    18    1
   18    18    19    1
   19    18    20    2
@<TRIPOS>SUBSTRUCTURE
       1 MOL1            1 RESIDUE      1      MOL     
@<SCITEGIC>MOL_PROPERTY
VConf Rank
SciTegic.value.IntegerValue
128

@<SCITEGIC>MOL_PROPERTY
Conf_Id
SciTegic.value.IntegerValue
41

@<SCITEGIC>MOL_PROPERTY
Delta U+W
SciTegic.value.DoubleValue
-0.634

@<SCITEGIC>MOL_PROPERTY
U+W
SciTegic.value.DoubleValue
-52.379

@<SCITEGIC>MOL_PROPERTY
Grad RMS
SciTegic.value.DoubleValue
0.000000

@<SCITEGIC>MOL_PROPERTY
U
SciTegic.value.DoubleValue
7.828

@<SCITEGIC>MOL_PROPERTY
W
SciTegic.value.DoubleValue
-60.207

@<SCITEGIC>MOL_PROPERTY
W(PB)
SciTegic.value.DoubleValue
-62.449

@<SCITEGIC>MOL_PROPERTY
W(SA)
SciTegic.value.DoubleValue
2.242

@<SCITEGIC>MOL_PROPERTY
Valence
SciTegic.value.DoubleValue
9.300

@<SCITEGIC>MOL_PROPERTY
Coulomb
SciTegic.value.DoubleValue
-2.080

@<SCITEGIC>MOL_PROPERTY
VdW
SciTegic.value.DoubleValue
0.608

@<SCITEGIC>MOL_PROPERTY
VdW6
SciTegic.value.DoubleValue
-6.341

@<SCITEGIC>MOL_PROPERTY
VdW12
SciTegic.value.DoubleValue
6.949

@<SCITEGIC>MOL_PROPERTY
Bond
SciTegic.value.DoubleValue
0.103

@<SCITEGIC>MOL_PROPERTY
Angle
SciTegic.value.DoubleValue
2.334

@<SCITEGIC>MOL_PROPERTY
Pdih
SciTegic.value.DoubleValue
6.862

@<SCITEGIC>MOL_PROPERTY
Idih
SciTegic.value.DoubleValue
0.001

@<SCITEGIC>MOL_PROPERTY
Tether
SciTegic.value.DoubleValue
0.000

@<TRIPOS>MOLECULE
guest-s22_confgen4.mol2 : confsearch ligand conformer 129
          20          19           1
SMALL
USER_CHARGES
 
@<TRIPOS>ATOM
       1    C1      22.941763   19.991386   20.713801 C.2        1 MOL1        -0.2535
       2    H1      23.462947   20.284069   19.803887 H          1 MOL1         0.0845
       3    H2      23.371794   20.309855   21.662064 H          1 MOL1         0.0845
       4    C2      21.817809   19.271674   20.664228 C.2        1 MOL1        -0.1324
       5    H3      21.403117   18.963278   19.704755 H          1 MOL1         0.0833
       6    C3      21.040487   18.827776   21.883376 C.3        1 MOL1        -0.1813
       7    H4      21.649849   18.951588   22.788761 H          1 MOL1         0.0753
       8    H5      20.813692   17.757401   21.794968 H          1 MOL1         0.0753
       9    C4      19.729879   19.632912   22.029113 C.3        1 MOL1        -0.1855
      10    H6      19.969111   20.705167   22.015126 H          1 MOL1         0.0755
      11    H7      19.087014   19.449094   21.157222 H          1 MOL1         0.0755
      12    C5      18.951997   19.318494   23.330739 C.3        1 MOL1        -0.1855
      13    H8      18.080737   19.985254   23.391765 H          1 MOL1         0.0755
      14    H9      19.583819   19.558300   24.196592 H          1 MOL1         0.0755
      15    C6      18.463892   17.848667   23.448148 C.3        1 MOL1        -0.1958
      16    H10     19.314798   17.158273   23.466033 H          1 MOL1         0.0753
      17    H11     17.937380   17.716257   24.400492 H          1 MOL1         0.0753
      18    C7      17.508964   17.418785   22.338171 C.2        1 MOL1         0.6174
      19    O1      16.379113   17.866789   22.349809 O.co2      1 MOL1        -0.6695
      20    O2      17.913040   16.634557   21.502310 O.co2      1 MOL1        -0.6695
@<TRIPOS>BOND
    1     1     2    1
    2     1     3    1
    3     1     4    2
    4     4     5    1
    5     4     6    1
    6     6     7    1
    7     6     8    1
    8     6     9    1
    9     9    10    1
   10     9    11    1
   11     9    12    1
   12    12    13    1
   13    12    14    1
   14    12    15    1
   15    15    16    1
   16    15    17    1
   17    15    18    1
   18    18    19    1
   19    18    20    2
@<TRIPOS>SUBSTRUCTURE
       1 MOL1            1 RESIDUE      1      MOL     
@<SCITEGIC>MOL_PROPERTY
VConf Rank
SciTegic.value.IntegerValue
129

@<SCITEGIC>MOL_PROPERTY
Conf_Id
SciTegic.value.IntegerValue
84

@<SCITEGIC>MOL_PROPERTY
Delta U+W
SciTegic.value.DoubleValue
0.942

@<SCITEGIC>MOL_PROPERTY
U+W
SciTegic.value.DoubleValue
-50.803

@<SCITEGIC>MOL_PROPERTY
Grad RMS
SciTegic.value.DoubleValue
0.000000

@<SCITEGIC>MOL_PROPERTY
U
SciTegic.value.DoubleValue
10.196

@<SCITEGIC>MOL_PROPERTY
W
SciTegic.value.DoubleValue
-60.999

@<SCITEGIC>MOL_PROPERTY
W(PB)
SciTegic.value.DoubleValue
-63.182

@<SCITEGIC>MOL_PROPERTY
W(SA)
SciTegic.value.DoubleValue
2.182

@<SCITEGIC>MOL_PROPERTY
Valence
SciTegic.value.DoubleValue
9.837

@<SCITEGIC>MOL_PROPERTY
Coulomb
SciTegic.value.DoubleValue
0.032

@<SCITEGIC>MOL_PROPERTY
VdW
SciTegic.value.DoubleValue
0.328

@<SCITEGIC>MOL_PROPERTY
VdW6
SciTegic.value.DoubleValue
-7.642

@<SCITEGIC>MOL_PROPERTY
VdW12
SciTegic.value.DoubleValue
7.969

@<SCITEGIC>MOL_PROPERTY
Bond
SciTegic.value.DoubleValue
0.151

@<SCITEGIC>MOL_PROPERTY
Angle
SciTegic.value.DoubleValue
2.748

@<SCITEGIC>MOL_PROPERTY
Pdih
SciTegic.value.DoubleValue
6.937

@<SCITEGIC>MOL_PROPERTY
Idih
SciTegic.value.DoubleValue
0.001

@<SCITEGIC>MOL_PROPERTY
Tether
SciTegic.value.DoubleValue
0.000

@<TRIPOS>MOLECULE
guest-s22_confgen4.mol2 : confsearch ligand conformer 130
          20          19           1
SMALL
USER_CHARGES
 
@<TRIPOS>ATOM
       1    C1      18.881998   17.613460   25.051716 C.2        1 MOL1        -0.2535
       2    H1      18.893969   16.667359   25.590242 H          1 MOL1         0.0845
       3    H2      19.248935   18.493707   25.577174 H          1 MOL1         0.0845
       4    C2      18.436170   17.686577   23.794913 C.2        1 MOL1        -0.1324
       5    H3      18.073876   16.793280   23.286581 H          1 MOL1         0.0833
       6    C3      18.388586   18.963191   22.985185 C.3        1 MOL1        -0.1813
       7    H4      18.521446   19.834571   23.640803 H          1 MOL1         0.0753
       8    H5      17.399357   19.065920   22.519400 H          1 MOL1         0.0753
       9    C4      19.478695   18.971493   21.893098 C.3        1 MOL1        -0.1855
      10    H6      20.464848   18.861981   22.365526 H          1 MOL1         0.0755
      11    H7      19.343991   18.102481   21.234522 H          1 MOL1         0.0755
      12    C5      19.441374   20.268684   21.053909 C.3        1 MOL1        -0.1855
      13    H8      19.589939   21.139378   21.707769 H          1 MOL1         0.0755
      14    H9      18.446477   20.379111   20.601630 H          1 MOL1         0.0755
      15    C6      20.509445   20.282661   19.929670 C.3        1 MOL1        -0.1958
      16    H10     20.391203   19.404279   19.283671 H          1 MOL1         0.0753
      17    H11     20.362722   21.165033   19.295739 H          1 MOL1         0.0753
      18    C7      21.946994   20.321833   20.440370 C.2        1 MOL1         0.6174
      19    O1      22.607573   19.303529   20.379851 O.co2      1 MOL1        -0.6695
      20    O2      22.371976   21.374886   20.873472 O.co2      1 MOL1        -0.6695
@<TRIPOS>BOND
    1     1     2    1
    2     1     3    1
    3     1     4    2
    4     4     5    1
    5     4     6    1
    6     6     7    1
    7     6     8    1
    8     6     9    1
    9     9    10    1
   10     9    11    1
   11     9    12    1
   12    12    13    1
   13    12    14    1
   14    12    15    1
   15    15    16    1
   16    15    17    1
   17    15    18    1
   18    18    19    1
   19    18    20    2
@<TRIPOS>SUBSTRUCTURE
       1 MOL1            1 RESIDUE      1      MOL     
@<SCITEGIC>MOL_PROPERTY
VConf Rank
SciTegic.value.IntegerValue
130

@<SCITEGIC>MOL_PROPERTY
Conf_Id
SciTegic.value.IntegerValue
81

@<SCITEGIC>MOL_PROPERTY
Delta U+W
SciTegic.value.DoubleValue
-0.051

@<SCITEGIC>MOL_PROPERTY
U+W
SciTegic.value.DoubleValue
-51.796

@<SCITEGIC>MOL_PROPERTY
Grad RMS
SciTegic.value.DoubleValue
0.000000

@<SCITEGIC>MOL_PROPERTY
U
SciTegic.value.DoubleValue
9.412

@<SCITEGIC>MOL_PROPERTY
W
SciTegic.value.DoubleValue
-61.209

@<SCITEGIC>MOL_PROPERTY
W(PB)
SciTegic.value.DoubleValue
-63.452

@<SCITEGIC>MOL_PROPERTY
W(SA)
SciTegic.value.DoubleValue
2.243

@<SCITEGIC>MOL_PROPERTY
Valence
SciTegic.value.DoubleValue
9.329

@<SCITEGIC>MOL_PROPERTY
Coulomb
SciTegic.value.DoubleValue
-0.323

@<SCITEGIC>MOL_PROPERTY
VdW
SciTegic.value.DoubleValue
0.406

@<SCITEGIC>MOL_PROPERTY
VdW6
SciTegic.value.DoubleValue
-6.640

@<SCITEGIC>MOL_PROPERTY
VdW12
SciTegic.value.DoubleValue
7.046

@<SCITEGIC>MOL_PROPERTY
Bond
SciTegic.value.DoubleValue
0.105

@<SCITEGIC>MOL_PROPERTY
Angle
SciTegic.value.DoubleValue
2.401

@<SCITEGIC>MOL_PROPERTY
Pdih
SciTegic.value.DoubleValue
6.823

@<SCITEGIC>MOL_PROPERTY
Idih
SciTegic.value.DoubleValue
0.000

@<SCITEGIC>MOL_PROPERTY
Tether
SciTegic.value.DoubleValue
0.000

@<TRIPOS>MOLECULE
guest-s22_confgen4.mol2 : confsearch ligand conformer 131
          20          19           1
SMALL
USER_CHARGES
 
@<TRIPOS>ATOM
       1    C1      22.365736   17.378429   21.585177 C.2        1 MOL1        -0.2535
       2    H1      23.025410   17.975828   20.957957 H          1 MOL1         0.0845
       3    H2      22.806412   16.537284   22.117554 H          1 MOL1         0.0845
       4    C2      21.066497   17.664836   21.701911 C.2        1 MOL1        -0.1324
       5    H3      20.422982   17.052728   22.333130 H          1 MOL1         0.0833
       6    C3      20.383652   18.812714   20.989434 C.3        1 MOL1        -0.1813
       7    H4      19.432347   18.475614   20.557793 H          1 MOL1         0.0753
       8    H5      20.998382   19.139295   20.139924 H          1 MOL1         0.0753
       9    C4      20.145295   20.027150   21.918432 C.3        1 MOL1        -0.1855
      10    H6      21.117275   20.400417   22.268803 H          1 MOL1         0.0755
      11    H7      19.700103   20.842231   21.331561 H          1 MOL1         0.0755
      12    C5      19.249222   19.735426   23.149709 C.3        1 MOL1        -0.1855
      13    H8      19.168535   20.651464   23.750995 H          1 MOL1         0.0755
      14    H9      19.740280   18.992919   23.792548 H          1 MOL1         0.0755
      15    C6      17.818676   19.241368   22.800949 C.3        1 MOL1        -0.1958
      16    H10     17.859881   18.286583   22.264546 H          1 MOL1         0.0753
      17    H11     17.263865   19.052885   23.727375 H          1 MOL1         0.0753
      18    C7      17.001875   20.231256   21.975417 C.2        1 MOL1         0.6174
      19    O1      16.784261   19.967570   20.809141 O.co2      1 MOL1        -0.6695
      20    O2      16.589544   21.233042   22.526660 O.co2      1 MOL1        -0.6695
@<TRIPOS>BOND
    1     1     2    1
    2     1     3    1
    3     1     4    2
    4     4     5    1
    5     4     6    1
    6     6     7    1
    7     6     8    1
    8     6     9    1
    9     9    10    1
   10     9    11    1
   11     9    12    1
   12    12    13    1
   13    12    14    1
   14    12    15    1
   15    15    16    1
   16    15    17    1
   17    15    18    1
   18    18    19    1
   19    18    20    2
@<TRIPOS>SUBSTRUCTURE
       1 MOL1            1 RESIDUE      1      MOL     
@<SCITEGIC>MOL_PROPERTY
VConf Rank
SciTegic.value.IntegerValue
131

@<SCITEGIC>MOL_PROPERTY
Conf_Id
SciTegic.value.IntegerValue
86

@<SCITEGIC>MOL_PROPERTY
Delta U+W
SciTegic.value.DoubleValue
1.248

@<SCITEGIC>MOL_PROPERTY
U+W
SciTegic.value.DoubleValue
-50.498

@<SCITEGIC>MOL_PROPERTY
Grad RMS
SciTegic.value.DoubleValue
0.000000

@<SCITEGIC>MOL_PROPERTY
U
SciTegic.value.DoubleValue
10.404

@<SCITEGIC>MOL_PROPERTY
W
SciTegic.value.DoubleValue
-60.901

@<SCITEGIC>MOL_PROPERTY
W(PB)
SciTegic.value.DoubleValue
-63.061

@<SCITEGIC>MOL_PROPERTY
W(SA)
SciTegic.value.DoubleValue
2.159

@<SCITEGIC>MOL_PROPERTY
Valence
SciTegic.value.DoubleValue
10.021

@<SCITEGIC>MOL_PROPERTY
Coulomb
SciTegic.value.DoubleValue
0.094

@<SCITEGIC>MOL_PROPERTY
VdW
SciTegic.value.DoubleValue
0.289

@<SCITEGIC>MOL_PROPERTY
VdW6
SciTegic.value.DoubleValue
-8.409

@<SCITEGIC>MOL_PROPERTY
VdW12
SciTegic.value.DoubleValue
8.698

@<SCITEGIC>MOL_PROPERTY
Bond
SciTegic.value.DoubleValue
0.179

@<SCITEGIC>MOL_PROPERTY
Angle
SciTegic.value.DoubleValue
2.939

@<SCITEGIC>MOL_PROPERTY
Pdih
SciTegic.value.DoubleValue
6.902

@<SCITEGIC>MOL_PROPERTY
Idih
SciTegic.value.DoubleValue
0.001

@<SCITEGIC>MOL_PROPERTY
Tether
SciTegic.value.DoubleValue
0.000

@<TRIPOS>MOLECULE
guest-s22_confgen4.mol2 : confsearch ligand conformer 132
          20          19           1
SMALL
USER_CHARGES
 
@<TRIPOS>ATOM
       1    C1      19.684218   17.761427   24.856022 C.2        1 MOL1        -0.2535
       2    H1      20.366760   17.489355   25.659276 H          1 MOL1         0.0845
       3    H2      18.873746   18.447130   25.097618 H          1 MOL1         0.0845
       4    C2      19.840520   17.273645   23.622465 C.2        1 MOL1        -0.1324
       5    H3      20.659818   16.590208   23.400983 H          1 MOL1         0.0833
       6    C3      18.933864   17.605884   22.456427 C.3        1 MOL1        -0.1813
       7    H4      18.031907   18.127741   22.803990 H          1 MOL1         0.0753
       8    H5      18.591315   16.672023   21.991255 H          1 MOL1         0.0753
       9    C4      19.645442   18.463651   21.385935 C.3        1 MOL1        -0.1855
      10    H6      20.549787   17.944203   21.040600 H          1 MOL1         0.0755
      11    H7      18.985285   18.556407   20.512665 H          1 MOL1         0.0755
      12    C5      20.016045   19.874610   21.901151 C.3        1 MOL1        -0.1855
      13    H8      20.681515   19.783481   22.770008 H          1 MOL1         0.0755
      14    H9      19.111841   20.392377   22.249982 H          1 MOL1         0.0755
      15    C6      20.719475   20.738054   20.821947 C.3        1 MOL1        -0.1958
      16    H10     21.067851   21.674875   21.272436 H          1 MOL1         0.0753
      17    H11     21.607547   20.219089   20.441445 H          1 MOL1         0.0753
      18    C7      19.825562   21.104612   19.640727 C.2        1 MOL1         0.6174
      19    O1      18.995469   21.977890   19.800288 O.co2      1 MOL1        -0.6695
      20    O2      19.989739   20.516495   18.589894 O.co2      1 MOL1        -0.6695
@<TRIPOS>BOND
    1     1     2    1
    2     1     3    1
    3     1     4    2
    4     4     5    1
    5     4     6    1
    6     6     7    1
    7     6     8    1
    8     6     9    1
    9     9    10    1
   10     9    11    1
   11     9    12    1
   12    12    13    1
   13    12    14    1
   14    12    15    1
   15    15    16    1
   16    15    17    1
   17    15    18    1
   18    18    19    1
   19    18    20    2
@<TRIPOS>SUBSTRUCTURE
       1 MOL1            1 RESIDUE      1      MOL     
@<SCITEGIC>MOL_PROPERTY
VConf Rank
SciTegic.value.IntegerValue
132

@<SCITEGIC>MOL_PROPERTY
Conf_Id
SciTegic.value.IntegerValue
28

@<SCITEGIC>MOL_PROPERTY
Delta U+W
SciTegic.value.DoubleValue
0.446

@<SCITEGIC>MOL_PROPERTY
U+W
SciTegic.value.DoubleValue
-51.299

@<SCITEGIC>MOL_PROPERTY
Grad RMS
SciTegic.value.DoubleValue
0.000000

@<SCITEGIC>MOL_PROPERTY
U
SciTegic.value.DoubleValue
9.295

@<SCITEGIC>MOL_PROPERTY
W
SciTegic.value.DoubleValue
-60.594

@<SCITEGIC>MOL_PROPERTY
W(PB)
SciTegic.value.DoubleValue
-62.806

@<SCITEGIC>MOL_PROPERTY
W(SA)
SciTegic.value.DoubleValue
2.212

@<SCITEGIC>MOL_PROPERTY
Valence
SciTegic.value.DoubleValue
9.495

@<SCITEGIC>MOL_PROPERTY
Coulomb
SciTegic.value.DoubleValue
-0.610

@<SCITEGIC>MOL_PROPERTY
VdW
SciTegic.value.DoubleValue
0.409

@<SCITEGIC>MOL_PROPERTY
VdW6
SciTegic.value.DoubleValue
-7.332

@<SCITEGIC>MOL_PROPERTY
VdW12
SciTegic.value.DoubleValue
7.741

@<SCITEGIC>MOL_PROPERTY
Bond
SciTegic.value.DoubleValue
0.126

@<SCITEGIC>MOL_PROPERTY
Angle
SciTegic.value.DoubleValue
2.497

@<SCITEGIC>MOL_PROPERTY
Pdih
SciTegic.value.DoubleValue
6.872

@<SCITEGIC>MOL_PROPERTY
Idih
SciTegic.value.DoubleValue
0.000

@<SCITEGIC>MOL_PROPERTY
Tether
SciTegic.value.DoubleValue
0.000

@<TRIPOS>MOLECULE
guest-s22_confgen4.mol2 : confsearch ligand conformer 133
          20          19           1
SMALL
USER_CHARGES
 
@<TRIPOS>ATOM
       1    C1      22.459191   20.858607   21.679112 C.2        1 MOL1        -0.2535
       2    H1      22.719583   19.803517   21.728889 H          1 MOL1         0.0845
       3    H2      23.248851   21.545951   21.380557 H          1 MOL1         0.0845
       4    C2      21.232118   21.309625   21.963454 C.2        1 MOL1        -0.1324
       5    H3      21.031128   22.378371   21.893275 H          1 MOL1         0.0833
       6    C3      20.034805   20.478115   22.392974 C.3        1 MOL1        -0.1813
       7    H4      19.245316   20.592953   21.639198 H          1 MOL1         0.0753
       8    H5      19.627540   20.902015   23.320443 H          1 MOL1         0.0753
       9    C4      20.329644   18.973828   22.613862 C.3        1 MOL1        -0.1855
      10    H6      20.653853   18.518468   21.667971 H          1 MOL1         0.0755
      11    H7      21.168878   18.873052   23.315448 H          1 MOL1         0.0755
      12    C5      19.124638   18.185693   23.184707 C.3        1 MOL1        -0.1855
      13    H8      18.837825   18.615134   24.154091 H          1 MOL1         0.0755
      14    H9      19.442387   17.153666   23.388094 H          1 MOL1         0.0755
      15    C6      17.880160   18.148952   22.255954 C.3        1 MOL1        -0.1958
      16    H10     17.079419   17.582395   22.745327 H          1 MOL1         0.0753
      17    H11     17.488810   19.159361   22.092194 H          1 MOL1         0.0753
      18    C7      18.132744   17.496366   20.899770 C.2        1 MOL1         0.6174
      19    O1      18.306268   16.293772   20.866455 O.co2      1 MOL1        -0.6695
      20    O2      18.128546   18.202903   19.911011 O.co2      1 MOL1        -0.6695
@<TRIPOS>BOND
    1     1     2    1
    2     1     3    1
    3     1     4    2
    4     4     5    1
    5     4     6    1
    6     6     7    1
    7     6     8    1
    8     6     9    1
    9     9    10    1
   10     9    11    1
   11     9    12    1
   12    12    13    1
   13    12    14    1
   14    12    15    1
   15    15    16    1
   16    15    17    1
   17    15    18    1
   18    18    19    1
   19    18    20    2
@<TRIPOS>SUBSTRUCTURE
       1 MOL1            1 RESIDUE      1      MOL     
@<SCITEGIC>MOL_PROPERTY
VConf Rank
SciTegic.value.IntegerValue
133

@<SCITEGIC>MOL_PROPERTY
Conf_Id
SciTegic.value.IntegerValue
53

@<SCITEGIC>MOL_PROPERTY
Delta U+W
SciTegic.value.DoubleValue
0.549

@<SCITEGIC>MOL_PROPERTY
U+W
SciTegic.value.DoubleValue
-51.197

@<SCITEGIC>MOL_PROPERTY
Grad RMS
SciTegic.value.DoubleValue
0.000000

@<SCITEGIC>MOL_PROPERTY
U
SciTegic.value.DoubleValue
10.870

@<SCITEGIC>MOL_PROPERTY
W
SciTegic.value.DoubleValue
-62.067

@<SCITEGIC>MOL_PROPERTY
W(PB)
SciTegic.value.DoubleValue
-64.228

@<SCITEGIC>MOL_PROPERTY
W(SA)
SciTegic.value.DoubleValue
2.161

@<SCITEGIC>MOL_PROPERTY
Valence
SciTegic.value.DoubleValue
8.803

@<SCITEGIC>MOL_PROPERTY
Coulomb
SciTegic.value.DoubleValue
1.020

@<SCITEGIC>MOL_PROPERTY
VdW
SciTegic.value.DoubleValue
1.048

@<SCITEGIC>MOL_PROPERTY
VdW6
SciTegic.value.DoubleValue
-8.312

@<SCITEGIC>MOL_PROPERTY
VdW12
SciTegic.value.DoubleValue
9.360

@<SCITEGIC>MOL_PROPERTY
Bond
SciTegic.value.DoubleValue
0.212

@<SCITEGIC>MOL_PROPERTY
Angle
SciTegic.value.DoubleValue
3.379

@<SCITEGIC>MOL_PROPERTY
Pdih
SciTegic.value.DoubleValue
5.211

@<SCITEGIC>MOL_PROPERTY
Idih
SciTegic.value.DoubleValue
0.001

@<SCITEGIC>MOL_PROPERTY
Tether
SciTegic.value.DoubleValue
0.000

@<TRIPOS>MOLECULE
guest-s22_confgen4.mol2 : confsearch ligand conformer 134
          20          19           1
SMALL
USER_CHARGES
 
@<TRIPOS>ATOM
       1    C1      19.514263   16.287048   20.986749 C.2        1 MOL1        -0.2535
       2    H1      18.548735   16.688138   20.686447 H          1 MOL1         0.0845
       3    H2      19.575007   15.211849   21.145434 H          1 MOL1         0.0845
       4    C2      20.588842   17.066040   21.151385 C.2        1 MOL1        -0.1324
       5    H3      21.533584   16.612920   21.450463 H          1 MOL1         0.0833
       6    C3      20.645922   18.574018   20.970735 C.3        1 MOL1        -0.1813
       7    H4      21.058064   18.793993   19.977181 H          1 MOL1         0.0753
       8    H5      21.377584   18.990562   21.674825 H          1 MOL1         0.0753
       9    C4      19.301583   19.328142   21.143437 C.3        1 MOL1        -0.1855
      10    H6      19.465156   20.390402   20.916090 H          1 MOL1         0.0755
      11    H7      18.584706   18.973146   20.391513 H          1 MOL1         0.0755
      12    C5      18.666232   19.209490   22.553793 C.3        1 MOL1        -0.1855
      13    H8      18.429603   18.158818   22.765100 H          1 MOL1         0.0755
      14    H9      17.706076   19.743455   22.552794 H          1 MOL1         0.0755
      15    C6      19.545003   19.769406   23.705563 C.3        1 MOL1        -0.1958
      16    H10     19.019557   19.638816   24.658673 H          1 MOL1         0.0753
      17    H11     20.479726   19.203228   23.787659 H          1 MOL1         0.0753
      18    C7      19.880137   21.251971   23.570985 C.2        1 MOL1         0.6174
      19    O1      21.020249   21.561695   23.285727 O.co2      1 MOL1        -0.6695
      20    O2      18.994537   22.059653   23.773155 O.co2      1 MOL1        -0.6695
@<TRIPOS>BOND
    1     1     2    1
    2     1     3    1
    3     1     4    2
    4     4     5    1
    5     4     6    1
    6     6     7    1
    7     6     8    1
    8     6     9    1
    9     9    10    1
   10     9    11    1
   11     9    12    1
   12    12    13    1
   13    12    14    1
   14    12    15    1
   15    15    16    1
   16    15    17    1
   17    15    18    1
   18    18    19    1
   19    18    20    2
@<TRIPOS>SUBSTRUCTURE
       1 MOL1            1 RESIDUE      1      MOL     
@<SCITEGIC>MOL_PROPERTY
VConf Rank
SciTegic.value.IntegerValue
134

@<SCITEGIC>MOL_PROPERTY
Conf_Id
SciTegic.value.IntegerValue
66

@<SCITEGIC>MOL_PROPERTY
Delta U+W
SciTegic.value.DoubleValue
1.737

@<SCITEGIC>MOL_PROPERTY
U+W
SciTegic.value.DoubleValue
-50.008

@<SCITEGIC>MOL_PROPERTY
Grad RMS
SciTegic.value.DoubleValue
0.000000

@<SCITEGIC>MOL_PROPERTY
U
SciTegic.value.DoubleValue
11.091

@<SCITEGIC>MOL_PROPERTY
W
SciTegic.value.DoubleValue
-61.099

@<SCITEGIC>MOL_PROPERTY
W(PB)
SciTegic.value.DoubleValue
-63.213

@<SCITEGIC>MOL_PROPERTY
W(SA)
SciTegic.value.DoubleValue
2.114

@<SCITEGIC>MOL_PROPERTY
Valence
SciTegic.value.DoubleValue
9.664

@<SCITEGIC>MOL_PROPERTY
Coulomb
SciTegic.value.DoubleValue
0.658

@<SCITEGIC>MOL_PROPERTY
VdW
SciTegic.value.DoubleValue
0.769

@<SCITEGIC>MOL_PROPERTY
VdW6
SciTegic.value.DoubleValue
-9.171

@<SCITEGIC>MOL_PROPERTY
VdW12
SciTegic.value.DoubleValue
9.940

@<SCITEGIC>MOL_PROPERTY
Bond
SciTegic.value.DoubleValue
0.244

@<SCITEGIC>MOL_PROPERTY
Angle
SciTegic.value.DoubleValue
3.658

@<SCITEGIC>MOL_PROPERTY
Pdih
SciTegic.value.DoubleValue
5.762

@<SCITEGIC>MOL_PROPERTY
Idih
SciTegic.value.DoubleValue
0.001

@<SCITEGIC>MOL_PROPERTY
Tether
SciTegic.value.DoubleValue
0.000

@<TRIPOS>MOLECULE
guest-s22_confgen4.mol2 : confsearch ligand conformer 135
          20          19           1
SMALL
USER_CHARGES
 
@<TRIPOS>ATOM
       1    C1      20.387219   21.631197   21.770490 C.2        1 MOL1        -0.2535
       2    H1      21.236187   21.168523   22.268857 H          1 MOL1         0.0845
       3    H2      20.604427   22.435279   21.069627 H          1 MOL1         0.0845
       4    C2      19.127582   21.245394   22.001468 C.2        1 MOL1        -0.1324
       5    H3      18.314333   21.745396   21.476145 H          1 MOL1         0.0833
       6    C3      18.678336   20.140050   22.943271 C.3        1 MOL1        -0.1813
       7    H4      17.794098   19.648986   22.518268 H          1 MOL1         0.0753
       8    H5      18.323535   20.597740   23.876127 H          1 MOL1         0.0753
       9    C4      19.741145   19.061036   23.278656 C.3        1 MOL1        -0.1855
      10    H6      20.606181   19.537977   23.757962 H          1 MOL1         0.0755
      11    H7      19.324218   18.378941   24.032013 H          1 MOL1         0.0755
      12    C5      20.221780   18.225650   22.064646 C.3        1 MOL1        -0.1855
      13    H8      21.027772   17.557138   22.397286 H          1 MOL1         0.0755
      14    H9      20.662244   18.881903   21.302465 H          1 MOL1         0.0755
      15    C6      19.101481   17.369708   21.418728 C.3        1 MOL1        -0.1958
      16    H10     18.616611   16.744412   22.177711 H          1 MOL1         0.0753
      17    H11     18.328819   18.013062   20.982918 H          1 MOL1         0.0753
      18    C7      19.620563   16.454848   20.315173 C.2        1 MOL1         0.6174
      19    O1      19.619037   16.872241   19.173887 O.co2      1 MOL1        -0.6695
      20    O2      20.026530   15.352900   20.627955 O.co2      1 MOL1        -0.6695
@<TRIPOS>BOND
    1     1     2    1
    2     1     3    1
    3     1     4    2
    4     4     5    1
    5     4     6    1
    6     6     7    1
    7     6     8    1
    8     6     9    1
    9     9    10    1
   10     9    11    1
   11     9    12    1
   12    12    13    1
   13    12    14    1
   14    12    15    1
   15    15    16    1
   16    15    17    1
   17    15    18    1
   18    18    19    1
   19    18    20    2
@<TRIPOS>SUBSTRUCTURE
       1 MOL1            1 RESIDUE      1      MOL     
@<SCITEGIC>MOL_PROPERTY
VConf Rank
SciTegic.value.IntegerValue
135

@<SCITEGIC>MOL_PROPERTY
Conf_Id
SciTegic.value.IntegerValue
64

@<SCITEGIC>MOL_PROPERTY
Delta U+W
SciTegic.value.DoubleValue
0.366

@<SCITEGIC>MOL_PROPERTY
U+W
SciTegic.value.DoubleValue
-51.379

@<SCITEGIC>MOL_PROPERTY
Grad RMS
SciTegic.value.DoubleValue
0.000000

@<SCITEGIC>MOL_PROPERTY
U
SciTegic.value.DoubleValue
10.000

@<SCITEGIC>MOL_PROPERTY
W
SciTegic.value.DoubleValue
-61.379

@<SCITEGIC>MOL_PROPERTY
W(PB)
SciTegic.value.DoubleValue
-63.541

@<SCITEGIC>MOL_PROPERTY
W(SA)
SciTegic.value.DoubleValue
2.162

@<SCITEGIC>MOL_PROPERTY
Valence
SciTegic.value.DoubleValue
9.398

@<SCITEGIC>MOL_PROPERTY
Coulomb
SciTegic.value.DoubleValue
-0.504

@<SCITEGIC>MOL_PROPERTY
VdW
SciTegic.value.DoubleValue
1.105

@<SCITEGIC>MOL_PROPERTY
VdW6
SciTegic.value.DoubleValue
-7.975

@<SCITEGIC>MOL_PROPERTY
VdW12
SciTegic.value.DoubleValue
9.080

@<SCITEGIC>MOL_PROPERTY
Bond
SciTegic.value.DoubleValue
0.216

@<SCITEGIC>MOL_PROPERTY
Angle
SciTegic.value.DoubleValue
3.417

@<SCITEGIC>MOL_PROPERTY
Pdih
SciTegic.value.DoubleValue
5.765

@<SCITEGIC>MOL_PROPERTY
Idih
SciTegic.value.DoubleValue
0.001

@<SCITEGIC>MOL_PROPERTY
Tether
SciTegic.value.DoubleValue
0.000

@<TRIPOS>MOLECULE
guest-s22_confgen4.mol2 : confsearch ligand conformer 136
          20          19           1
SMALL
USER_CHARGES
 
@<TRIPOS>ATOM
       1    C1      20.257318   19.259528   24.973220 C.2        1 MOL1        -0.2535
       2    H1      20.135986   18.178016   25.005286 H          1 MOL1         0.0845
       3    H2      19.779984   19.840941   25.760122 H          1 MOL1         0.0845
       4    C2      20.960256   19.853957   24.005468 C.2        1 MOL1        -0.1324
       5    H3      21.067498   20.938236   23.990279 H          1 MOL1         0.0833
       6    C3      21.650425   19.113539   22.879667 C.3        1 MOL1        -0.1813
       7    H4      21.666649   18.033581   23.079925 H          1 MOL1         0.0753
       8    H5      22.699272   19.434784   22.829005 H          1 MOL1         0.0753
       9    C4      20.982495   19.374409   21.510815 C.3        1 MOL1        -0.1855
      10    H6      20.965711   20.454617   21.310936 H          1 MOL1         0.0755
      11    H7      21.597804   18.918272   20.723276 H          1 MOL1         0.0755
      12    C5      19.547982   18.804281   21.428895 C.3        1 MOL1        -0.1855
      13    H8      18.914954   19.272757   22.195077 H          1 MOL1         0.0755
      14    H9      19.564896   17.727289   21.645896 H          1 MOL1         0.0755
      15    C6      18.914341   19.036229   20.035081 C.3        1 MOL1        -0.1958
      16    H10     18.879043   20.108795   19.809374 H          1 MOL1         0.0753
      17    H11     19.524262   18.560812   19.257610 H          1 MOL1         0.0753
      18    C7      17.497871   18.482575   19.929363 C.2        1 MOL1         0.6174
      19    O1      17.358631   17.325661   19.584526 O.co2      1 MOL1        -0.6695
      20    O2      16.571748   19.218334   20.208012 O.co2      1 MOL1        -0.6695
@<TRIPOS>BOND
    1     1     2    1
    2     1     3    1
    3     1     4    2
    4     4     5    1
    5     4     6    1
    6     6     7    1
    7     6     8    1
    8     6     9    1
    9     9    10    1
   10     9    11    1
   11     9    12    1
   12    12    13    1
   13    12    14    1
   14    12    15    1
   15    15    16    1
   16    15    17    1
   17    15    18    1
   18    18    19    1
   19    18    20    2
@<TRIPOS>SUBSTRUCTURE
       1 MOL1            1 RESIDUE      1      MOL     
@<SCITEGIC>MOL_PROPERTY
VConf Rank
SciTegic.value.IntegerValue
136

@<SCITEGIC>MOL_PROPERTY
Conf_Id
SciTegic.value.IntegerValue
42

@<SCITEGIC>MOL_PROPERTY
Delta U+W
SciTegic.value.DoubleValue
-0.601

@<SCITEGIC>MOL_PROPERTY
U+W
SciTegic.value.DoubleValue
-52.347

@<SCITEGIC>MOL_PROPERTY
Grad RMS
SciTegic.value.DoubleValue
0.000000

@<SCITEGIC>MOL_PROPERTY
U
SciTegic.value.DoubleValue
8.428

@<SCITEGIC>MOL_PROPERTY
W
SciTegic.value.DoubleValue
-60.774

@<SCITEGIC>MOL_PROPERTY
W(PB)
SciTegic.value.DoubleValue
-62.982

@<SCITEGIC>MOL_PROPERTY
W(SA)
SciTegic.value.DoubleValue
2.208

@<SCITEGIC>MOL_PROPERTY
Valence
SciTegic.value.DoubleValue
9.231

@<SCITEGIC>MOL_PROPERTY
Coulomb
SciTegic.value.DoubleValue
-1.304

@<SCITEGIC>MOL_PROPERTY
VdW
SciTegic.value.DoubleValue
0.501

@<SCITEGIC>MOL_PROPERTY
VdW6
SciTegic.value.DoubleValue
-6.515

@<SCITEGIC>MOL_PROPERTY
VdW12
SciTegic.value.DoubleValue
7.016

@<SCITEGIC>MOL_PROPERTY
Bond
SciTegic.value.DoubleValue
0.103

@<SCITEGIC>MOL_PROPERTY
Angle
SciTegic.value.DoubleValue
2.328

@<SCITEGIC>MOL_PROPERTY
Pdih
SciTegic.value.DoubleValue
6.799

@<SCITEGIC>MOL_PROPERTY
Idih
SciTegic.value.DoubleValue
0.000

@<SCITEGIC>MOL_PROPERTY
Tether
SciTegic.value.DoubleValue
0.000

@<TRIPOS>MOLECULE
guest-s22_confgen4.mol2 : confsearch ligand conformer 137
          20          19           1
SMALL
USER_CHARGES
 
@<TRIPOS>ATOM
       1    C1      17.828220   16.868913   21.772670 C.2        1 MOL1        -0.2535
       2    H1      17.325892   17.273484   20.895525 H          1 MOL1         0.0845
       3    H2      17.220449   16.319202   22.489280 H          1 MOL1         0.0845
       4    C2      19.138252   17.041585   21.967664 C.2        1 MOL1        -0.1324
       5    H3      19.621288   16.630923   22.853914 H          1 MOL1         0.0833
       6    C3      20.046415   17.793976   21.018426 C.3        1 MOL1        -0.1813
       7    H4      19.529833   18.000883   20.071355 H          1 MOL1         0.0753
       8    H5      20.908454   17.161071   20.769165 H          1 MOL1         0.0753
       9    C4      20.560236   19.118485   21.626390 C.3        1 MOL1        -0.1855
      10    H6      21.082431   18.908468   22.570077 H          1 MOL1         0.0755
      11    H7      21.304889   19.555948   20.947524 H          1 MOL1         0.0755
      12    C5      19.427106   20.143855   21.867014 C.3        1 MOL1        -0.1855
      13    H8      18.695688   19.735107   22.577863 H          1 MOL1         0.0755
      14    H9      18.888896   20.315828   20.925214 H          1 MOL1         0.0755
      15    C6      19.954729   21.500603   22.401496 C.3        1 MOL1        -0.1958
      16    H10     20.704595   21.912789   21.715544 H          1 MOL1         0.0753
      17    H11     19.131177   22.223126   22.442891 H          1 MOL1         0.0753
      18    C7      20.564167   21.421488   23.798327 C.2        1 MOL1         0.6174
      19    O1      21.775271   21.432767   23.899643 O.co2      1 MOL1        -0.6695
      20    O2      19.809982   21.369049   24.749931 O.co2      1 MOL1        -0.6695
@<TRIPOS>BOND
    1     1     2    1
    2     1     3    1
    3     1     4    2
    4     4     5    1
    5     4     6    1
    6     6     7    1
    7     6     8    1
    8     6     9    1
    9     9    10    1
   10     9    11    1
   11     9    12    1
   12    12    13    1
   13    12    14    1
   14    12    15    1
   15    15    16    1
   16    15    17    1
   17    15    18    1
   18    18    19    1
   19    18    20    2
@<TRIPOS>SUBSTRUCTURE
       1 MOL1            1 RESIDUE      1      MOL     
@<SCITEGIC>MOL_PROPERTY
VConf Rank
SciTegic.value.IntegerValue
137

@<SCITEGIC>MOL_PROPERTY
Conf_Id
SciTegic.value.IntegerValue
68

@<SCITEGIC>MOL_PROPERTY
Delta U+W
SciTegic.value.DoubleValue
0.492

@<SCITEGIC>MOL_PROPERTY
U+W
SciTegic.value.DoubleValue
-51.253

@<SCITEGIC>MOL_PROPERTY
Grad RMS
SciTegic.value.DoubleValue
0.000000

@<SCITEGIC>MOL_PROPERTY
U
SciTegic.value.DoubleValue
10.179

@<SCITEGIC>MOL_PROPERTY
W
SciTegic.value.DoubleValue
-61.432

@<SCITEGIC>MOL_PROPERTY
W(PB)
SciTegic.value.DoubleValue
-63.627

@<SCITEGIC>MOL_PROPERTY
W(SA)
SciTegic.value.DoubleValue
2.195

@<SCITEGIC>MOL_PROPERTY
Valence
SciTegic.value.DoubleValue
9.483

@<SCITEGIC>MOL_PROPERTY
Coulomb
SciTegic.value.DoubleValue
0.361

@<SCITEGIC>MOL_PROPERTY
VdW
SciTegic.value.DoubleValue
0.335

@<SCITEGIC>MOL_PROPERTY
VdW6
SciTegic.value.DoubleValue
-7.385

@<SCITEGIC>MOL_PROPERTY
VdW12
SciTegic.value.DoubleValue
7.720

@<SCITEGIC>MOL_PROPERTY
Bond
SciTegic.value.DoubleValue
0.125

@<SCITEGIC>MOL_PROPERTY
Angle
SciTegic.value.DoubleValue
2.487

@<SCITEGIC>MOL_PROPERTY
Pdih
SciTegic.value.DoubleValue
6.870

@<SCITEGIC>MOL_PROPERTY
Idih
SciTegic.value.DoubleValue
0.001

@<SCITEGIC>MOL_PROPERTY
Tether
SciTegic.value.DoubleValue
0.000

@<TRIPOS>MOLECULE
guest-s22_confgen4.mol2 : confsearch ligand conformer 138
          20          19           1
SMALL
USER_CHARGES
 
@<TRIPOS>ATOM
       1    C1      22.717540   19.031647   23.002178 C.2        1 MOL1        -0.2535
       2    H1      23.006256   20.074955   23.118978 H          1 MOL1         0.0845
       3    H2      23.486730   18.331878   22.679924 H          1 MOL1         0.0845
       4    C2      21.468653   18.622769   23.240495 C.2        1 MOL1        -0.1324
       5    H3      21.201736   17.573258   23.119972 H          1 MOL1         0.0833
       6    C3      20.350299   19.535754   23.696042 C.3        1 MOL1        -0.1813
       7    H4      20.773076   20.458644   24.115629 H          1 MOL1         0.0753
       8    H5      19.785896   19.059184   24.508647 H          1 MOL1         0.0753
       9    C4      19.390678   19.910076   22.544004 C.3        1 MOL1        -0.1855
      10    H6      18.684754   20.670859   22.904040 H          1 MOL1         0.0755
      11    H7      19.964060   20.375609   21.730302 H          1 MOL1         0.0755
      12    C5      18.597250   18.696657   22.003804 C.3        1 MOL1        -0.1855
      13    H8      18.068106   18.210703   22.834566 H          1 MOL1         0.0755
      14    H9      19.287811   17.950269   21.588057 H          1 MOL1         0.0755
      15    C6      17.566805   19.096329   20.916008 C.3        1 MOL1        -0.1958
      16    H10     16.955243   18.225199   20.653078 H          1 MOL1         0.0753
      17    H11     16.881677   19.859513   21.304485 H          1 MOL1         0.0753
      18    C7      18.196675   19.618118   19.627661 C.2        1 MOL1         0.6174
      19    O1      18.669838   18.809388   18.853595 O.co2      1 MOL1        -0.6695
      20    O2      18.180393   20.815980   19.422757 O.co2      1 MOL1        -0.6695
@<TRIPOS>BOND
    1     1     2    1
    2     1     3    1
    3     1     4    2
    4     4     5    1
    5     4     6    1
    6     6     7    1
    7     6     8    1
    8     6     9    1
    9     9    10    1
   10     9    11    1
   11     9    12    1
   12    12    13    1
   13    12    14    1
   14    12    15    1
   15    15    16    1
   16    15    17    1
   17    15    18    1
   18    18    19    1
   19    18    20    2
@<TRIPOS>SUBSTRUCTURE
       1 MOL1            1 RESIDUE      1      MOL     
@<SCITEGIC>MOL_PROPERTY
VConf Rank
SciTegic.value.IntegerValue
138

@<SCITEGIC>MOL_PROPERTY
Conf_Id
SciTegic.value.IntegerValue
87

@<SCITEGIC>MOL_PROPERTY
Delta U+W
SciTegic.value.DoubleValue
0.339

@<SCITEGIC>MOL_PROPERTY
U+W
SciTegic.value.DoubleValue
-51.407

@<SCITEGIC>MOL_PROPERTY
Grad RMS
SciTegic.value.DoubleValue
0.000000

@<SCITEGIC>MOL_PROPERTY
U
SciTegic.value.DoubleValue
10.461

@<SCITEGIC>MOL_PROPERTY
W
SciTegic.value.DoubleValue
-61.867

@<SCITEGIC>MOL_PROPERTY
W(PB)
SciTegic.value.DoubleValue
-64.045

@<SCITEGIC>MOL_PROPERTY
W(SA)
SciTegic.value.DoubleValue
2.178

@<SCITEGIC>MOL_PROPERTY
Valence
SciTegic.value.DoubleValue
9.555

@<SCITEGIC>MOL_PROPERTY
Coulomb
SciTegic.value.DoubleValue
0.483

@<SCITEGIC>MOL_PROPERTY
VdW
SciTegic.value.DoubleValue
0.423

@<SCITEGIC>MOL_PROPERTY
VdW6
SciTegic.value.DoubleValue
-7.223

@<SCITEGIC>MOL_PROPERTY
VdW12
SciTegic.value.DoubleValue
7.646

@<SCITEGIC>MOL_PROPERTY
Bond
SciTegic.value.DoubleValue
0.126

@<SCITEGIC>MOL_PROPERTY
Angle
SciTegic.value.DoubleValue
2.492

@<SCITEGIC>MOL_PROPERTY
Pdih
SciTegic.value.DoubleValue
6.936

@<SCITEGIC>MOL_PROPERTY
Idih
SciTegic.value.DoubleValue
0.001

@<SCITEGIC>MOL_PROPERTY
Tether
SciTegic.value.DoubleValue
0.000

@<TRIPOS>MOLECULE
guest-s22_confgen4.mol2 : confsearch ligand conformer 139
          20          19           1
SMALL
USER_CHARGES
 
@<TRIPOS>ATOM
       1    C1      22.087190   17.668099   22.369256 C.2        1 MOL1        -0.2535
       2    H1      22.278840   17.842392   23.426757 H          1 MOL1         0.0845
       3    H2      22.416296   16.719414   21.948892 H          1 MOL1         0.0845
       4    C2      21.469769   18.581099   21.614978 C.2        1 MOL1        -0.1324
       5    H3      21.295039   18.392023   20.556438 H          1 MOL1         0.0833
       6    C3      20.997498   19.924153   22.129539 C.3        1 MOL1        -0.1813
       7    H4      20.847978   20.620602   21.293753 H          1 MOL1         0.0753
       8    H5      21.796551   20.362152   22.742792 H          1 MOL1         0.0753
       9    C4      19.710407   19.841157   22.987255 C.3        1 MOL1        -0.1855
      10    H6      19.790427   19.013988   23.705810 H          1 MOL1         0.0755
      11    H7      19.646974   20.757787   23.589334 H          1 MOL1         0.0755
      12    C5      18.394271   19.718288   22.178683 C.3        1 MOL1        -0.1855
      13    H8      18.324407   20.539109   21.451763 H          1 MOL1         0.0755
      14    H9      17.551176   19.848692   22.871269 H          1 MOL1         0.0755
      15    C6      18.219759   18.362282   21.447891 C.3        1 MOL1        -0.1958
      16    H10     18.955715   18.260796   20.644058 H          1 MOL1         0.0753
      17    H11     18.379930   17.531587   22.145470 H          1 MOL1         0.0753
      18    C7      16.837050   18.200520   20.826941 C.2        1 MOL1         0.6174
      19    O1      16.664344   18.609121   19.695523 O.co2      1 MOL1        -0.6695
      20    O2      15.962734   17.689049   21.498394 O.co2      1 MOL1        -0.6695
@<TRIPOS>BOND
    1     1     2    1
    2     1     3    1
    3     1     4    2
    4     4     5    1
    5     4     6    1
    6     6     7    1
    7     6     8    1
    8     6     9    1
    9     9    10    1
   10     9    11    1
   11     9    12    1
   12    12    13    1
   13    12    14    1
   14    12    15    1
   15    15    16    1
   16    15    17    1
   17    15    18    1
   18    18    19    1
   19    18    20    2
@<TRIPOS>SUBSTRUCTURE
       1 MOL1            1 RESIDUE      1      MOL     
@<SCITEGIC>MOL_PROPERTY
VConf Rank
SciTegic.value.IntegerValue
139

@<SCITEGIC>MOL_PROPERTY
Conf_Id
SciTegic.value.IntegerValue
51

@<SCITEGIC>MOL_PROPERTY
Delta U+W
SciTegic.value.DoubleValue
1.709

@<SCITEGIC>MOL_PROPERTY
U+W
SciTegic.value.DoubleValue
-50.036

@<SCITEGIC>MOL_PROPERTY
Grad RMS
SciTegic.value.DoubleValue
0.000000

@<SCITEGIC>MOL_PROPERTY
U
SciTegic.value.DoubleValue
10.643

@<SCITEGIC>MOL_PROPERTY
W
SciTegic.value.DoubleValue
-60.679

@<SCITEGIC>MOL_PROPERTY
W(PB)
SciTegic.value.DoubleValue
-62.882

@<SCITEGIC>MOL_PROPERTY
W(SA)
SciTegic.value.DoubleValue
2.203

@<SCITEGIC>MOL_PROPERTY
Valence
SciTegic.value.DoubleValue
11.231

@<SCITEGIC>MOL_PROPERTY
Coulomb
SciTegic.value.DoubleValue
-1.077

@<SCITEGIC>MOL_PROPERTY
VdW
SciTegic.value.DoubleValue
0.489

@<SCITEGIC>MOL_PROPERTY
VdW6
SciTegic.value.DoubleValue
-7.546

@<SCITEGIC>MOL_PROPERTY
VdW12
SciTegic.value.DoubleValue
8.035

@<SCITEGIC>MOL_PROPERTY
Bond
SciTegic.value.DoubleValue
0.159

@<SCITEGIC>MOL_PROPERTY
Angle
SciTegic.value.DoubleValue
3.005

@<SCITEGIC>MOL_PROPERTY
Pdih
SciTegic.value.DoubleValue
8.065

@<SCITEGIC>MOL_PROPERTY
Idih
SciTegic.value.DoubleValue
0.002

@<SCITEGIC>MOL_PROPERTY
Tether
SciTegic.value.DoubleValue
0.000

@<TRIPOS>MOLECULE
guest-s22_confgen4.mol2 : confsearch ligand conformer 140
          20          19           1
SMALL
USER_CHARGES
 
@<TRIPOS>ATOM
       1    C1      21.858087   17.415997   21.634436 C.2        1 MOL1        -0.2535
       2    H1      22.029595   17.437702   20.559480 H          1 MOL1         0.0845
       3    H2      22.045538   16.477998   22.154091 H          1 MOL1         0.0845
       4    C2      21.431363   18.497150   22.292257 C.2        1 MOL1        -0.1324
       5    H3      21.274114   18.458237   23.369547 H          1 MOL1         0.0833
       6    C3      21.163103   19.835032   21.636734 C.3        1 MOL1        -0.1813
       7    H4      21.996182   20.063123   20.958235 H          1 MOL1         0.0753
       8    H5      21.164753   20.634616   22.389461 H          1 MOL1         0.0753
       9    C4      19.844510   19.873860   20.824961 C.3        1 MOL1        -0.1855
      10    H6      19.905722   20.716481   20.122837 H          1 MOL1         0.0755
      11    H7      19.758283   18.971058   20.204926 H          1 MOL1         0.0755
      12    C5      18.561364   20.061484   21.673159 C.3        1 MOL1        -0.1855
      13    H8      17.722226   20.253778   20.990254 H          1 MOL1         0.0755
      14    H9      18.656960   20.957183   22.302144 H          1 MOL1         0.0755
      15    C6      18.199378   18.841967   22.559171 C.3        1 MOL1        -0.1958
      16    H10     18.192588   17.924751   21.958345 H          1 MOL1         0.0753
      17    H11     18.942231   18.708131   23.351850 H          1 MOL1         0.0753
      18    C7      16.836216   18.981873   23.226882 C.2        1 MOL1         0.6174
      19    O1      16.780266   19.534740   24.307667 O.co2      1 MOL1        -0.6695
      20    O2      15.862764   18.552616   22.639504 O.co2      1 MOL1        -0.6695
@<TRIPOS>BOND
    1     1     2    1
    2     1     3    1
    3     1     4    2
    4     4     5    1
    5     4     6    1
    6     6     7    1
    7     6     8    1
    8     6     9    1
    9     9    10    1
   10     9    11    1
   11     9    12    1
   12    12    13    1
   13    12    14    1
   14    12    15    1
   15    15    16    1
   16    15    17    1
   17    15    18    1
   18    18    19    1
   19    18    20    2
@<TRIPOS>SUBSTRUCTURE
       1 MOL1            1 RESIDUE      1      MOL     
@<SCITEGIC>MOL_PROPERTY
VConf Rank
SciTegic.value.IntegerValue
140

@<SCITEGIC>MOL_PROPERTY
Conf_Id
SciTegic.value.IntegerValue
91

@<SCITEGIC>MOL_PROPERTY
Delta U+W
SciTegic.value.DoubleValue
1.604

@<SCITEGIC>MOL_PROPERTY
U+W
SciTegic.value.DoubleValue
-50.141

@<SCITEGIC>MOL_PROPERTY
Grad RMS
SciTegic.value.DoubleValue
0.000000

@<SCITEGIC>MOL_PROPERTY
U
SciTegic.value.DoubleValue
10.644

@<SCITEGIC>MOL_PROPERTY
W
SciTegic.value.DoubleValue
-60.786

@<SCITEGIC>MOL_PROPERTY
W(PB)
SciTegic.value.DoubleValue
-62.965

@<SCITEGIC>MOL_PROPERTY
W(SA)
SciTegic.value.DoubleValue
2.179

@<SCITEGIC>MOL_PROPERTY
Valence
SciTegic.value.DoubleValue
11.230

@<SCITEGIC>MOL_PROPERTY
Coulomb
SciTegic.value.DoubleValue
-1.075

@<SCITEGIC>MOL_PROPERTY
VdW
SciTegic.value.DoubleValue
0.489

@<SCITEGIC>MOL_PROPERTY
VdW6
SciTegic.value.DoubleValue
-7.547

@<SCITEGIC>MOL_PROPERTY
VdW12
SciTegic.value.DoubleValue
8.036

@<SCITEGIC>MOL_PROPERTY
Bond
SciTegic.value.DoubleValue
0.159

@<SCITEGIC>MOL_PROPERTY
Angle
SciTegic.value.DoubleValue
3.006

@<SCITEGIC>MOL_PROPERTY
Pdih
SciTegic.value.DoubleValue
8.064

@<SCITEGIC>MOL_PROPERTY
Idih
SciTegic.value.DoubleValue
0.002

@<SCITEGIC>MOL_PROPERTY
Tether
SciTegic.value.DoubleValue
0.000

@<TRIPOS>MOLECULE
guest-s22_confgen4.mol2 : confsearch ligand conformer 141
          20          19           1
SMALL
USER_CHARGES
 
@<TRIPOS>ATOM
       1    C1      20.427308   20.561236   25.174169 C.2        1 MOL1        -0.2535
       2    H1      21.049486   19.702999   25.422992 H          1 MOL1         0.0845
       3    H2      20.043955   21.158247   25.999939 H          1 MOL1         0.0845
       4    C2      20.141048   20.871499   23.907108 C.2        1 MOL1        -0.1324
       5    H3      19.515661   21.734503   23.679569 H          1 MOL1         0.0833
       6    C3      20.637388   20.091076   22.710351 C.3        1 MOL1        -0.1813
       7    H4      21.452608   19.417215   23.007222 H          1 MOL1         0.0753
       8    H5      21.054901   20.783744   21.967358 H          1 MOL1         0.0753
       9    C4      19.499080   19.269521   22.069902 C.3        1 MOL1        -0.1855
      10    H6      19.082231   18.581406   22.818314 H          1 MOL1         0.0755
      11    H7      18.685971   19.944411   21.769006 H          1 MOL1         0.0755
      12    C5      19.988283   18.468135   20.843699 C.3        1 MOL1        -0.1855
      13    H8      20.801249   17.792513   21.143973 H          1 MOL1         0.0755
      14    H9      20.406425   19.155657   20.095371 H          1 MOL1         0.0755
      15    C6      18.843286   17.641435   20.200310 C.3        1 MOL1        -0.1958
      16    H10     18.425563   16.948426   20.940012 H          1 MOL1         0.0753
      17    H11     18.030992   18.310191   19.892330 H          1 MOL1         0.0753
      18    C7      19.242920   16.815667   18.976498 C.2        1 MOL1         0.6174
      19    O1      18.372403   16.155910   18.444465 O.co2      1 MOL1        -0.6695
      20    O2      20.392318   16.842147   18.580480 O.co2      1 MOL1        -0.6695
@<TRIPOS>BOND
    1     1     2    1
    2     1     3    1
    3     1     4    2
    4     4     5    1
    5     4     6    1
    6     6     7    1
    7     6     8    1
    8     6     9    1
    9     9    10    1
   10     9    11    1
   11     9    12    1
   12    12    13    1
   13    12    14    1
   14    12    15    1
   15    15    16    1
   16    15    17    1
   17    15    18    1
   18    18    19    1
   19    18    20    2
@<TRIPOS>SUBSTRUCTURE
       1 MOL1            1 RESIDUE      1      MOL     
@<SCITEGIC>MOL_PROPERTY
VConf Rank
SciTegic.value.IntegerValue
141

@<SCITEGIC>MOL_PROPERTY
Conf_Id
SciTegic.value.IntegerValue
33

@<SCITEGIC>MOL_PROPERTY
Delta U+W
SciTegic.value.DoubleValue
0.000

@<SCITEGIC>MOL_PROPERTY
U+W
SciTegic.value.DoubleValue
-51.745

@<SCITEGIC>MOL_PROPERTY
Grad RMS
SciTegic.value.DoubleValue
0.000000

@<SCITEGIC>MOL_PROPERTY
U
SciTegic.value.DoubleValue
7.593

@<SCITEGIC>MOL_PROPERTY
W
SciTegic.value.DoubleValue
-59.338

@<SCITEGIC>MOL_PROPERTY
W(PB)
SciTegic.value.DoubleValue
-61.574

@<SCITEGIC>MOL_PROPERTY
W(SA)
SciTegic.value.DoubleValue
2.236

@<SCITEGIC>MOL_PROPERTY
Valence
SciTegic.value.DoubleValue
9.570

@<SCITEGIC>MOL_PROPERTY
Coulomb
SciTegic.value.DoubleValue
-3.091

@<SCITEGIC>MOL_PROPERTY
VdW
SciTegic.value.DoubleValue
1.114

@<SCITEGIC>MOL_PROPERTY
VdW6
SciTegic.value.DoubleValue
-6.064

@<SCITEGIC>MOL_PROPERTY
VdW12
SciTegic.value.DoubleValue
7.178

@<SCITEGIC>MOL_PROPERTY
Bond
SciTegic.value.DoubleValue
0.117

@<SCITEGIC>MOL_PROPERTY
Angle
SciTegic.value.DoubleValue
2.692

@<SCITEGIC>MOL_PROPERTY
Pdih
SciTegic.value.DoubleValue
6.761

@<SCITEGIC>MOL_PROPERTY
Idih
SciTegic.value.DoubleValue
0.000

@<SCITEGIC>MOL_PROPERTY
Tether
SciTegic.value.DoubleValue
0.000

@<TRIPOS>MOLECULE
guest-s22_confgen4.mol2 : confsearch ligand conformer 142
          20          19           1
SMALL
USER_CHARGES
 
@<TRIPOS>ATOM
       1    C1      23.166542   18.010904   21.678917 C.2        1 MOL1        -0.2535
       2    H1      23.037238   17.829385   20.613127 H          1 MOL1         0.0845
       3    H2      24.093921   17.670157   22.136213 H          1 MOL1         0.0845
       4    C2      22.225812   18.624905   22.401208 C.2        1 MOL1        -0.1324
       5    H3      22.374567   18.796173   23.467120 H          1 MOL1         0.0833
       6    C3      20.915221   19.125796   21.836244 C.3        1 MOL1        -0.1813
       7    H4      20.958324   19.147130   20.738845 H          1 MOL1         0.0753
       8    H5      20.751937   20.159013   22.167681 H          1 MOL1         0.0753
       9    C4      19.738633   18.231548   22.287653 C.3        1 MOL1        -0.1855
      10    H6      19.963558   17.189824   22.020145 H          1 MOL1         0.0755
      11    H7      19.652556   18.258808   23.382569 H          1 MOL1         0.0755
      12    C5      18.384918   18.623656   21.648993 C.3        1 MOL1        -0.1855
      13    H8      17.632119   17.874699   21.931573 H          1 MOL1         0.0755
      14    H9      18.465629   18.583973   20.553866 H          1 MOL1         0.0755
      15    C6      17.879680   20.024877   22.080608 C.3        1 MOL1        -0.1958
      16    H10     17.835570   20.091108   23.174249 H          1 MOL1         0.0753
      17    H11     18.564979   20.806628   21.734236 H          1 MOL1         0.0753
      18    C7      16.494478   20.346460   21.531273 C.2        1 MOL1         0.6174
      19    O1      16.418815   20.880950   20.442556 O.co2      1 MOL1        -0.6695
      20    O2      15.526867   20.036053   22.197690 O.co2      1 MOL1        -0.6695
@<TRIPOS>BOND
    1     1     2    1
    2     1     3    1
    3     1     4    2
    4     4     5    1
    5     4     6    1
    6     6     7    1
    7     6     8    1
    8     6     9    1
    9     9    10    1
   10     9    11    1
   11     9    12    1
   12    12    13    1
   13    12    14    1
   14    12    15    1
   15    15    16    1
   16    15    17    1
   17    15    18    1
   18    18    19    1
   19    18    20    2
@<TRIPOS>SUBSTRUCTURE
       1 MOL1            1 RESIDUE      1      MOL     
@<SCITEGIC>MOL_PROPERTY
VConf Rank
SciTegic.value.IntegerValue
142

@<SCITEGIC>MOL_PROPERTY
Conf_Id
SciTegic.value.IntegerValue
37

@<SCITEGIC>MOL_PROPERTY
Delta U+W
SciTegic.value.DoubleValue
-0.384

@<SCITEGIC>MOL_PROPERTY
U+W
SciTegic.value.DoubleValue
-52.130

@<SCITEGIC>MOL_PROPERTY
Grad RMS
SciTegic.value.DoubleValue
0.000000

@<SCITEGIC>MOL_PROPERTY
U
SciTegic.value.DoubleValue
7.491

@<SCITEGIC>MOL_PROPERTY
W
SciTegic.value.DoubleValue
-59.621

@<SCITEGIC>MOL_PROPERTY
W(PB)
SciTegic.value.DoubleValue
-61.853

@<SCITEGIC>MOL_PROPERTY
W(SA)
SciTegic.value.DoubleValue
2.232

@<SCITEGIC>MOL_PROPERTY
Valence
SciTegic.value.DoubleValue
9.604

@<SCITEGIC>MOL_PROPERTY
Coulomb
SciTegic.value.DoubleValue
-2.799

@<SCITEGIC>MOL_PROPERTY
VdW
SciTegic.value.DoubleValue
0.686

@<SCITEGIC>MOL_PROPERTY
VdW6
SciTegic.value.DoubleValue
-6.435

@<SCITEGIC>MOL_PROPERTY
VdW12
SciTegic.value.DoubleValue
7.121

@<SCITEGIC>MOL_PROPERTY
Bond
SciTegic.value.DoubleValue
0.124

@<SCITEGIC>MOL_PROPERTY
Angle
SciTegic.value.DoubleValue
2.493

@<SCITEGIC>MOL_PROPERTY
Pdih
SciTegic.value.DoubleValue
6.986

@<SCITEGIC>MOL_PROPERTY
Idih
SciTegic.value.DoubleValue
0.001

@<SCITEGIC>MOL_PROPERTY
Tether
SciTegic.value.DoubleValue
0.000

@<TRIPOS>MOLECULE
guest-s22_confgen4.mol2 : confsearch ligand conformer 143
          20          19           1
SMALL
USER_CHARGES
 
@<TRIPOS>ATOM
       1    C1      21.093563   19.599501   24.928283 C.2        1 MOL1        -0.2535
       2    H1      21.535366   19.788678   25.905121 H          1 MOL1         0.0845
       3    H2      20.007194   19.570417   24.878263 H          1 MOL1         0.0845
       4    C2      21.867411   19.414083   23.852786 C.2        1 MOL1        -0.1324
       5    H3      22.950539   19.454720   23.965963 H          1 MOL1         0.0833
       6    C3      21.399498   19.142142   22.432884 C.3        1 MOL1        -0.1813
       7    H4      21.841303   18.196671   22.090792 H          1 MOL1         0.0753
       8    H5      21.809925   19.917030   21.771648 H          1 MOL1         0.0753
       9    C4      19.864977   19.080248   22.250133 C.3        1 MOL1        -0.1855
      10    H6      19.450231   18.292366   22.893806 H          1 MOL1         0.0755
      11    H7      19.418509   20.031382   22.571225 H          1 MOL1         0.0755
      12    C5      19.474262   18.800858   20.782378 C.3        1 MOL1        -0.1855
      13    H8      19.918056   17.850348   20.454987 H          1 MOL1         0.0755
      14    H9      19.886406   19.585806   20.133073 H          1 MOL1         0.0755
      15    C6      17.938119   18.738417   20.596768 C.3        1 MOL1        -0.1958
      16    H10     17.511958   17.949946   21.228673 H          1 MOL1         0.0753
      17    H11     17.480307   19.685444   20.906848 H          1 MOL1         0.0753
      18    C7      17.526877   18.463524   19.154790 C.2        1 MOL1         0.6174
      19    O1      17.401187   17.306645   18.804818 O.co2      1 MOL1        -0.6695
      20    O2      17.362374   19.412916   18.414356 O.co2      1 MOL1        -0.6695
@<TRIPOS>BOND
    1     1     2    1
    2     1     3    1
    3     1     4    2
    4     4     5    1
    5     4     6    1
    6     6     7    1
    7     6     8    1
    8     6     9    1
    9     9    10    1
   10     9    11    1
   11     9    12    1
   12    12    13    1
   13    12    14    1
   14    12    15    1
   15    15    16    1
   16    15    17    1
   17    15    18    1
   18    18    19    1
   19    18    20    2
@<TRIPOS>SUBSTRUCTURE
       1 MOL1            1 RESIDUE      1      MOL     
@<SCITEGIC>MOL_PROPERTY
VConf Rank
SciTegic.value.IntegerValue
143

@<SCITEGIC>MOL_PROPERTY
Conf_Id
SciTegic.value.IntegerValue
44

@<SCITEGIC>MOL_PROPERTY
Delta U+W
SciTegic.value.DoubleValue
-1.440

@<SCITEGIC>MOL_PROPERTY
U+W
SciTegic.value.DoubleValue
-53.185

@<SCITEGIC>MOL_PROPERTY
Grad RMS
SciTegic.value.DoubleValue
0.000000

@<SCITEGIC>MOL_PROPERTY
U
SciTegic.value.DoubleValue
6.572

@<SCITEGIC>MOL_PROPERTY
W
SciTegic.value.DoubleValue
-59.757

@<SCITEGIC>MOL_PROPERTY
W(PB)
SciTegic.value.DoubleValue
-62.007

@<SCITEGIC>MOL_PROPERTY
W(SA)
SciTegic.value.DoubleValue
2.249

@<SCITEGIC>MOL_PROPERTY
Valence
SciTegic.value.DoubleValue
7.989

@<SCITEGIC>MOL_PROPERTY
Coulomb
SciTegic.value.DoubleValue
-2.697

@<SCITEGIC>MOL_PROPERTY
VdW
SciTegic.value.DoubleValue
1.281

@<SCITEGIC>MOL_PROPERTY
VdW6
SciTegic.value.DoubleValue
-6.467

@<SCITEGIC>MOL_PROPERTY
VdW12
SciTegic.value.DoubleValue
7.748

@<SCITEGIC>MOL_PROPERTY
Bond
SciTegic.value.DoubleValue
0.136

@<SCITEGIC>MOL_PROPERTY
Angle
SciTegic.value.DoubleValue
2.854

@<SCITEGIC>MOL_PROPERTY
Pdih
SciTegic.value.DoubleValue
4.997

@<SCITEGIC>MOL_PROPERTY
Idih
SciTegic.value.DoubleValue
0.001

@<SCITEGIC>MOL_PROPERTY
Tether
SciTegic.value.DoubleValue
0.000

@<TRIPOS>MOLECULE
guest-s22_confgen4.mol2 : confsearch ligand conformer 144
          20          19           1
SMALL
USER_CHARGES
 
@<TRIPOS>ATOM
       1    C1      21.943194   21.391030   20.537625 C.2        1 MOL1        -0.2535
       2    H1      22.078116   20.581486   19.822074 H          1 MOL1         0.0845
       3    H2      22.660654   22.209384   20.509299 H          1 MOL1         0.0845
       4    C2      20.939827   21.383109   21.419050 C.2        1 MOL1        -0.1324
       5    H3      20.822979   22.203148   22.127230 H          1 MOL1         0.0833
       6    C3      19.905825   20.283484   21.516831 C.3        1 MOL1        -0.1813
       7    H4      19.937998   19.660295   20.613947 H          1 MOL1         0.0753
       8    H5      18.902142   20.726902   21.560808 H          1 MOL1         0.0753
       9    C4      20.141721   19.409533   22.769238 C.3        1 MOL1        -0.1855
      10    H6      21.124251   18.922939   22.698147 H          1 MOL1         0.0755
      11    H7      20.181272   20.059613   23.654064 H          1 MOL1         0.0755
      12    C5      19.045481   18.340406   22.991830 C.3        1 MOL1        -0.1855
      13    H8      18.063365   18.826474   23.072818 H          1 MOL1         0.0755
      14    H9      19.226904   17.845724   23.956131 H          1 MOL1         0.0755
      15    C6      18.998885   17.260552   21.879714 C.3        1 MOL1        -0.1958
      16    H10     18.729179   17.708429   20.916715 H          1 MOL1         0.0753
      17    H11     19.985974   16.798456   21.759219 H          1 MOL1         0.0753
      18    C7      17.991896   16.154618   22.174358 C.2        1 MOL1         0.6174
      19    O1      18.373331   15.181973   22.795006 O.co2      1 MOL1        -0.6695
      20    O2      16.847791   16.303791   21.792933 O.co2      1 MOL1        -0.6695
@<TRIPOS>BOND
    1     1     2    1
    2     1     3    1
    3     1     4    2
    4     4     5    1
    5     4     6    1
    6     6     7    1
    7     6     8    1
    8     6     9    1
    9     9    10    1
   10     9    11    1
   11     9    12    1
   12    12    13    1
   13    12    14    1
   14    12    15    1
   15    15    16    1
   16    15    17    1
   17    15    18    1
   18    18    19    1
   19    18    20    2
@<TRIPOS>SUBSTRUCTURE
       1 MOL1            1 RESIDUE      1      MOL     
@<SCITEGIC>MOL_PROPERTY
VConf Rank
SciTegic.value.IntegerValue
144

@<SCITEGIC>MOL_PROPERTY
Conf_Id
SciTegic.value.IntegerValue
38

@<SCITEGIC>MOL_PROPERTY
Delta U+W
SciTegic.value.DoubleValue
-0.381

@<SCITEGIC>MOL_PROPERTY
U+W
SciTegic.value.DoubleValue
-52.126

@<SCITEGIC>MOL_PROPERTY
Grad RMS
SciTegic.value.DoubleValue
0.000000

@<SCITEGIC>MOL_PROPERTY
U
SciTegic.value.DoubleValue
7.601

@<SCITEGIC>MOL_PROPERTY
W
SciTegic.value.DoubleValue
-59.727

@<SCITEGIC>MOL_PROPERTY
W(PB)
SciTegic.value.DoubleValue
-61.964

@<SCITEGIC>MOL_PROPERTY
W(SA)
SciTegic.value.DoubleValue
2.236

@<SCITEGIC>MOL_PROPERTY
Valence
SciTegic.value.DoubleValue
9.602

@<SCITEGIC>MOL_PROPERTY
Coulomb
SciTegic.value.DoubleValue
-2.686

@<SCITEGIC>MOL_PROPERTY
VdW
SciTegic.value.DoubleValue
0.685

@<SCITEGIC>MOL_PROPERTY
VdW6
SciTegic.value.DoubleValue
-6.453

@<SCITEGIC>MOL_PROPERTY
VdW12
SciTegic.value.DoubleValue
7.139

@<SCITEGIC>MOL_PROPERTY
Bond
SciTegic.value.DoubleValue
0.125

@<SCITEGIC>MOL_PROPERTY
Angle
SciTegic.value.DoubleValue
2.485

@<SCITEGIC>MOL_PROPERTY
Pdih
SciTegic.value.DoubleValue
6.991

@<SCITEGIC>MOL_PROPERTY
Idih
SciTegic.value.DoubleValue
0.001

@<SCITEGIC>MOL_PROPERTY
Tether
SciTegic.value.DoubleValue
0.000

@<TRIPOS>MOLECULE
guest-s22_confgen4.mol2 : confsearch ligand conformer 145
          20          19           1
SMALL
USER_CHARGES
 
@<TRIPOS>ATOM
       1    C1      17.531031   19.654906   19.252895 C.2        1 MOL1        -0.2535
       2    H1      17.385769   20.714764   19.455818 H          1 MOL1         0.0845
       3    H2      17.331599   19.306723   18.240836 H          1 MOL1         0.0845
       4    C2      17.939983   18.811957   20.204662 C.2        1 MOL1        -0.1324
       5    H3      18.080161   17.754726   19.980446 H          1 MOL1         0.0833
       6    C3      18.235431   19.221720   21.630304 C.3        1 MOL1        -0.1813
       7    H4      17.731994   18.533300   22.322225 H          1 MOL1         0.0753
       8    H5      17.830278   20.223105   21.829857 H          1 MOL1         0.0753
       9    C4      19.753190   19.215971   21.908485 C.3        1 MOL1        -0.1855
      10    H6      20.155471   18.212791   21.710416 H          1 MOL1         0.0755
      11    H7      20.253815   19.902007   21.211348 H          1 MOL1         0.0755
      12    C5      20.072513   19.629806   23.362825 C.3        1 MOL1        -0.1855
      13    H8      19.581809   18.939185   24.062788 H          1 MOL1         0.0755
      14    H9      19.653327   20.626557   23.556097 H          1 MOL1         0.0755
      15    C6      21.595495   19.659494   23.653581 C.3        1 MOL1        -0.1958
      16    H10     22.103822   20.323882   22.944320 H          1 MOL1         0.0753
      17    H11     21.769550   20.070993   24.654756 H          1 MOL1         0.0753
      18    C7      22.263539   18.288415   23.601370 C.2        1 MOL1         0.6174
      19    O1      22.948665   18.017978   22.634708 O.co2      1 MOL1        -0.6695
      20    O2      22.089270   17.530952   24.535703 O.co2      1 MOL1        -0.6695
@<TRIPOS>BOND
    1     1     2    1
    2     1     3    1
    3     1     4    2
    4     4     5    1
    5     4     6    1
    6     6     7    1
    7     6     8    1
    8     6     9    1
    9     9    10    1
   10     9    11    1
   11     9    12    1
   12    12    13    1
   13    12    14    1
   14    12    15    1
   15    15    16    1
   16    15    17    1
   17    15    18    1
   18    18    19    1
   19    18    20    2
@<TRIPOS>SUBSTRUCTURE
       1 MOL1            1 RESIDUE      1      MOL     
@<SCITEGIC>MOL_PROPERTY
VConf Rank
SciTegic.value.IntegerValue
145

@<SCITEGIC>MOL_PROPERTY
Conf_Id
SciTegic.value.IntegerValue
58

@<SCITEGIC>MOL_PROPERTY
Delta U+W
SciTegic.value.DoubleValue
0.019

@<SCITEGIC>MOL_PROPERTY
U+W
SciTegic.value.DoubleValue
-51.727

@<SCITEGIC>MOL_PROPERTY
Grad RMS
SciTegic.value.DoubleValue
0.000000

@<SCITEGIC>MOL_PROPERTY
U
SciTegic.value.DoubleValue
8.963

@<SCITEGIC>MOL_PROPERTY
W
SciTegic.value.DoubleValue
-60.690

@<SCITEGIC>MOL_PROPERTY
W(PB)
SciTegic.value.DoubleValue
-62.934

@<SCITEGIC>MOL_PROPERTY
W(SA)
SciTegic.value.DoubleValue
2.244

@<SCITEGIC>MOL_PROPERTY
Valence
SciTegic.value.DoubleValue
9.327

@<SCITEGIC>MOL_PROPERTY
Coulomb
SciTegic.value.DoubleValue
-0.780

@<SCITEGIC>MOL_PROPERTY
VdW
SciTegic.value.DoubleValue
0.417

@<SCITEGIC>MOL_PROPERTY
VdW6
SciTegic.value.DoubleValue
-6.635

@<SCITEGIC>MOL_PROPERTY
VdW12
SciTegic.value.DoubleValue
7.052

@<SCITEGIC>MOL_PROPERTY
Bond
SciTegic.value.DoubleValue
0.105

@<SCITEGIC>MOL_PROPERTY
Angle
SciTegic.value.DoubleValue
2.399

@<SCITEGIC>MOL_PROPERTY
Pdih
SciTegic.value.DoubleValue
6.822

@<SCITEGIC>MOL_PROPERTY
Idih
SciTegic.value.DoubleValue
0.000

@<SCITEGIC>MOL_PROPERTY
Tether
SciTegic.value.DoubleValue
0.000

@<TRIPOS>MOLECULE
guest-s22_confgen4.mol2 : confsearch ligand conformer 146
          20          19           1
SMALL
USER_CHARGES
 
@<TRIPOS>ATOM
       1    C1      19.719243   15.804010   21.080669 C.2        1 MOL1        -0.2535
       2    H1      20.230446   15.487042   21.988292 H          1 MOL1         0.0845
       3    H2      19.769391   15.139792   20.219526 H          1 MOL1         0.0845
       4    C2      19.057644   16.962623   21.020930 C.2        1 MOL1        -0.1324
       5    H3      18.553356   17.261781   20.102312 H          1 MOL1         0.0833
       6    C3      18.944145   17.934554   22.174234 C.3        1 MOL1        -0.1813
       7    H4      19.250009   17.449917   23.111418 H          1 MOL1         0.0753
       8    H5      17.895009   18.233635   22.300690 H          1 MOL1         0.0753
       9    C4      19.813395   19.186841   21.935084 C.3        1 MOL1        -0.1855
      10    H6      20.861258   18.883264   21.804337 H          1 MOL1         0.0755
      11    H7      19.503951   19.670934   20.998425 H          1 MOL1         0.0755
      12    C5      19.706462   20.192402   23.103733 C.3        1 MOL1        -0.1855
      13    H8      20.002597   19.695363   24.037456 H          1 MOL1         0.0755
      14    H9      18.660944   20.506329   23.230375 H          1 MOL1         0.0755
      15    C6      20.597106   21.444813   22.896095 C.3        1 MOL1        -0.1958
      16    H10     20.575733   22.063829   23.800716 H          1 MOL1         0.0753
      17    H11     21.640798   21.146000   22.740285 H          1 MOL1         0.0753
      18    C7      20.163607   22.327350   21.729016 C.2        1 MOL1         0.6174
      19    O1      19.186242   23.034166   21.878226 O.co2      1 MOL1        -0.6695
      20    O2      20.819751   22.293553   20.706616 O.co2      1 MOL1        -0.6695
@<TRIPOS>BOND
    1     1     2    1
    2     1     3    1
    3     1     4    2
    4     4     5    1
    5     4     6    1
    6     6     7    1
    7     6     8    1
    8     6     9    1
    9     9    10    1
   10     9    11    1
   11     9    12    1
   12    12    13    1
   13    12    14    1
   14    12    15    1
   15    15    16    1
   16    15    17    1
   17    15    18    1
   18    18    19    1
   19    18    20    2
@<TRIPOS>SUBSTRUCTURE
       1 MOL1            1 RESIDUE      1      MOL     
@<SCITEGIC>MOL_PROPERTY
VConf Rank
SciTegic.value.IntegerValue
146

@<SCITEGIC>MOL_PROPERTY
Conf_Id
SciTegic.value.IntegerValue
54

@<SCITEGIC>MOL_PROPERTY
Delta U+W
SciTegic.value.DoubleValue
-0.048

@<SCITEGIC>MOL_PROPERTY
U+W
SciTegic.value.DoubleValue
-51.793

@<SCITEGIC>MOL_PROPERTY
Grad RMS
SciTegic.value.DoubleValue
0.000000

@<SCITEGIC>MOL_PROPERTY
U
SciTegic.value.DoubleValue
8.964

@<SCITEGIC>MOL_PROPERTY
W
SciTegic.value.DoubleValue
-60.756

@<SCITEGIC>MOL_PROPERTY
W(PB)
SciTegic.value.DoubleValue
-63.007

@<SCITEGIC>MOL_PROPERTY
W(SA)
SciTegic.value.DoubleValue
2.251

@<SCITEGIC>MOL_PROPERTY
Valence
SciTegic.value.DoubleValue
9.327

@<SCITEGIC>MOL_PROPERTY
Coulomb
SciTegic.value.DoubleValue
-0.780

@<SCITEGIC>MOL_PROPERTY
VdW
SciTegic.value.DoubleValue
0.417

@<SCITEGIC>MOL_PROPERTY
VdW6
SciTegic.value.DoubleValue
-6.635

@<SCITEGIC>MOL_PROPERTY
VdW12
SciTegic.value.DoubleValue
7.052

@<SCITEGIC>MOL_PROPERTY
Bond
SciTegic.value.DoubleValue
0.105

@<SCITEGIC>MOL_PROPERTY
Angle
SciTegic.value.DoubleValue
2.399

@<SCITEGIC>MOL_PROPERTY
Pdih
SciTegic.value.DoubleValue
6.822

@<SCITEGIC>MOL_PROPERTY
Idih
SciTegic.value.DoubleValue
0.000

@<SCITEGIC>MOL_PROPERTY
Tether
SciTegic.value.DoubleValue
0.000

@<TRIPOS>MOLECULE
guest-s22_confgen4.mol2 : confsearch ligand conformer 147
          20          19           1
SMALL
USER_CHARGES
 
@<TRIPOS>ATOM
       1    C1      23.143777   18.992803   21.767014 C.2        1 MOL1        -0.2535
       2    H1      23.875514   19.618909   21.259331 H          1 MOL1         0.0845
       3    H2      23.415626   18.595421   22.743586 H          1 MOL1         0.0845
       4    C2      21.958638   18.727336   21.211457 C.2        1 MOL1        -0.1324
       5    H3      21.708124   19.132412   20.231453 H          1 MOL1         0.0833
       6    C3      20.896463   17.860977   21.854149 C.3        1 MOL1        -0.1813
       7    H4      21.354229   17.223475   22.622636 H          1 MOL1         0.0753
       8    H5      20.465853   17.180583   21.107366 H          1 MOL1         0.0753
       9    C4      19.772404   18.695219   22.508927 C.3        1 MOL1        -0.1855
      10    H6      19.114764   18.018300   23.071308 H          1 MOL1         0.0755
      11    H7      20.210217   19.386455   23.242173 H          1 MOL1         0.0755
      12    C5      18.932493   19.487086   21.478588 C.3        1 MOL1        -0.1855
      13    H8      18.506468   18.797590   20.736607 H          1 MOL1         0.0755
      14    H9      19.583781   20.179783   20.929508 H          1 MOL1         0.0755
      15    C6      17.789403   20.299673   22.140577 C.3        1 MOL1        -0.1958
      16    H10     18.196128   20.969073   22.908243 H          1 MOL1         0.0753
      17    H11     17.308327   20.935153   21.387791 H          1 MOL1         0.0753
      18    C7      16.700281   19.437691   22.772744 C.2        1 MOL1         0.6174
      19    O1      16.675132   19.337823   23.983712 O.co2      1 MOL1        -0.6695
      20    O2      15.898579   18.897201   22.036361 O.co2      1 MOL1        -0.6695
@<TRIPOS>BOND
    1     1     2    1
    2     1     3    1
    3     1     4    2
    4     4     5    1
    5     4     6    1
    6     6     7    1
    7     6     8    1
    8     6     9    1
    9     9    10    1
   10     9    11    1
   11     9    12    1
   12    12    13    1
   13    12    14    1
   14    12    15    1
   15    15    16    1
   16    15    17    1
   17    15    18    1
   18    18    19    1
   19    18    20    2
@<TRIPOS>SUBSTRUCTURE
       1 MOL1            1 RESIDUE      1      MOL     
@<SCITEGIC>MOL_PROPERTY
VConf Rank
SciTegic.value.IntegerValue
147

@<SCITEGIC>MOL_PROPERTY
Conf_Id
SciTegic.value.IntegerValue
27

@<SCITEGIC>MOL_PROPERTY
Delta U+W
SciTegic.value.DoubleValue
0.478

@<SCITEGIC>MOL_PROPERTY
U+W
SciTegic.value.DoubleValue
-51.267

@<SCITEGIC>MOL_PROPERTY
Grad RMS
SciTegic.value.DoubleValue
0.000000

@<SCITEGIC>MOL_PROPERTY
U
SciTegic.value.DoubleValue
9.192

@<SCITEGIC>MOL_PROPERTY
W
SciTegic.value.DoubleValue
-60.459

@<SCITEGIC>MOL_PROPERTY
W(PB)
SciTegic.value.DoubleValue
-62.649

@<SCITEGIC>MOL_PROPERTY
W(SA)
SciTegic.value.DoubleValue
2.190

@<SCITEGIC>MOL_PROPERTY
Valence
SciTegic.value.DoubleValue
9.572

@<SCITEGIC>MOL_PROPERTY
Coulomb
SciTegic.value.DoubleValue
-0.884

@<SCITEGIC>MOL_PROPERTY
VdW
SciTegic.value.DoubleValue
0.504

@<SCITEGIC>MOL_PROPERTY
VdW6
SciTegic.value.DoubleValue
-7.168

@<SCITEGIC>MOL_PROPERTY
VdW12
SciTegic.value.DoubleValue
7.672

@<SCITEGIC>MOL_PROPERTY
Bond
SciTegic.value.DoubleValue
0.127

@<SCITEGIC>MOL_PROPERTY
Angle
SciTegic.value.DoubleValue
2.504

@<SCITEGIC>MOL_PROPERTY
Pdih
SciTegic.value.DoubleValue
6.941

@<SCITEGIC>MOL_PROPERTY
Idih
SciTegic.value.DoubleValue
0.001

@<SCITEGIC>MOL_PROPERTY
Tether
SciTegic.value.DoubleValue
0.000

@<TRIPOS>MOLECULE
guest-s22_confgen4.mol2 : confsearch ligand conformer 148
          20          19           1
SMALL
USER_CHARGES
 
@<TRIPOS>ATOM
       1    C1      21.777601   20.291836   24.082734 C.2        1 MOL1        -0.2535
       2    H1      21.167462   20.698148   24.887810 H          1 MOL1         0.0845
       3    H2      22.710946   20.803495   23.854105 H          1 MOL1         0.0845
       4    C2      21.397855   19.210049   23.397748 C.2        1 MOL1        -0.1324
       5    H3      22.025195   18.818093   22.597680 H          1 MOL1         0.0833
       6    C3      20.119129   18.444464   23.663337 C.3        1 MOL1        -0.1813
       7    H4      19.751255   18.676651   24.671956 H          1 MOL1         0.0753
       8    H5      20.319911   17.364842   23.650559 H          1 MOL1         0.0753
       9    C4      19.009310   18.780772   22.641936 C.3        1 MOL1        -0.1855
      10    H6      18.075289   18.300126   22.963593 H          1 MOL1         0.0755
      11    H7      18.824010   19.863792   22.648014 H          1 MOL1         0.0755
      12    C5      19.351324   18.315806   21.207755 C.3        1 MOL1        -0.1855
      13    H8      19.561723   17.237340   21.207994 H          1 MOL1         0.0755
      14    H9      20.262898   18.818972   20.857698 H          1 MOL1         0.0755
      15    C6      18.198715   18.611779   20.216819 C.3        1 MOL1        -0.1958
      16    H10     17.281677   18.104280   20.539346 H          1 MOL1         0.0753
      17    H11     17.984430   19.687074   20.196075 H          1 MOL1         0.0753
      18    C7      18.512079   18.163569   18.793809 C.2        1 MOL1         0.6174
      19    O1      19.056348   18.955156   18.049617 O.co2      1 MOL1        -0.6695
      20    O2      18.219511   17.028739   18.472464 O.co2      1 MOL1        -0.6695
@<TRIPOS>BOND
    1     1     2    1
    2     1     3    1
    3     1     4    2
    4     4     5    1
    5     4     6    1
    6     6     7    1
    7     6     8    1
    8     6     9    1
    9     9    10    1
   10     9    11    1
   11     9    12    1
   12    12    13    1
   13    12    14    1
   14    12    15    1
   15    15    16    1
   16    15    17    1
   17    15    18    1
   18    18    19    1
   19    18    20    2
@<TRIPOS>SUBSTRUCTURE
       1 MOL1            1 RESIDUE      1      MOL     
@<SCITEGIC>MOL_PROPERTY
VConf Rank
SciTegic.value.IntegerValue
148

@<SCITEGIC>MOL_PROPERTY
Conf_Id
SciTegic.value.IntegerValue
41

@<SCITEGIC>MOL_PROPERTY
Delta U+W
SciTegic.value.DoubleValue
-0.634

@<SCITEGIC>MOL_PROPERTY
U+W
SciTegic.value.DoubleValue
-52.379

@<SCITEGIC>MOL_PROPERTY
Grad RMS
SciTegic.value.DoubleValue
0.000000

@<SCITEGIC>MOL_PROPERTY
U
SciTegic.value.DoubleValue
7.828

@<SCITEGIC>MOL_PROPERTY
W
SciTegic.value.DoubleValue
-60.207

@<SCITEGIC>MOL_PROPERTY
W(PB)
SciTegic.value.DoubleValue
-62.449

@<SCITEGIC>MOL_PROPERTY
W(SA)
SciTegic.value.DoubleValue
2.242

@<SCITEGIC>MOL_PROPERTY
Valence
SciTegic.value.DoubleValue
9.300

@<SCITEGIC>MOL_PROPERTY
Coulomb
SciTegic.value.DoubleValue
-2.080

@<SCITEGIC>MOL_PROPERTY
VdW
SciTegic.value.DoubleValue
0.608

@<SCITEGIC>MOL_PROPERTY
VdW6
SciTegic.value.DoubleValue
-6.341

@<SCITEGIC>MOL_PROPERTY
VdW12
SciTegic.value.DoubleValue
6.949

@<SCITEGIC>MOL_PROPERTY
Bond
SciTegic.value.DoubleValue
0.103

@<SCITEGIC>MOL_PROPERTY
Angle
SciTegic.value.DoubleValue
2.334

@<SCITEGIC>MOL_PROPERTY
Pdih
SciTegic.value.DoubleValue
6.862

@<SCITEGIC>MOL_PROPERTY
Idih
SciTegic.value.DoubleValue
0.001

@<SCITEGIC>MOL_PROPERTY
Tether
SciTegic.value.DoubleValue
0.000

@<TRIPOS>MOLECULE
guest-s22_confgen4.mol2 : confsearch ligand conformer 149
          20          19           1
SMALL
USER_CHARGES
 
@<TRIPOS>ATOM
       1    C1      20.909231   21.400873   24.332922 C.2        1 MOL1        -0.2535
       2    H1      21.661160   22.140091   24.603845 H          1 MOL1         0.0845
       3    H2      19.907276   21.533692   24.737888 H          1 MOL1         0.0845
       4    C2      21.207832   20.373955   23.532927 C.2        1 MOL1        -0.1324
       5    H3      22.216790   20.259177   23.137334 H          1 MOL1         0.0833
       6    C3      20.218472   19.309201   23.114519 C.3        1 MOL1        -0.1813
       7    H4      19.322721   19.352135   23.748680 H          1 MOL1         0.0753
       8    H5      20.669655   18.319987   23.265662 H          1 MOL1         0.0753
       9    C4      19.811525   19.481117   21.633973 C.3        1 MOL1        -0.1855
      10    H6      19.455824   20.509364   21.481184 H          1 MOL1         0.0755
      11    H7      20.696548   19.362737   20.993677 H          1 MOL1         0.0755
      12    C5      18.700288   18.502696   21.180062 C.3        1 MOL1        -0.1855
      13    H8      18.418334   18.743213   20.145635 H          1 MOL1         0.0755
      14    H9      17.801787   18.667779   21.789858 H          1 MOL1         0.0755
      15    C6      19.096342   17.002600   21.252686 C.3        1 MOL1        -0.1958
      16    H10     19.312371   16.708673   22.286099 H          1 MOL1         0.0753
      17    H11     18.249616   16.387648   20.926197 H          1 MOL1         0.0753
      18    C7      20.290844   16.630619   20.378882 C.2        1 MOL1         0.6174
      19    O1      20.131503   16.600650   19.174258 O.co2      1 MOL1        -0.6695
      20    O2      21.343082   16.363369   20.925073 O.co2      1 MOL1        -0.6695
@<TRIPOS>BOND
    1     1     2    1
    2     1     3    1
    3     1     4    2
    4     4     5    1
    5     4     6    1
    6     6     7    1
    7     6     8    1
    8     6     9    1
    9     9    10    1
   10     9    11    1
   11     9    12    1
   12    12    13    1
   13    12    14    1
   14    12    15    1
   15    15    16    1
   16    15    17    1
   17    15    18    1
   18    18    19    1
   19    18    20    2
@<TRIPOS>SUBSTRUCTURE
       1 MOL1            1 RESIDUE      1      MOL     
@<SCITEGIC>MOL_PROPERTY
VConf Rank
SciTegic.value.IntegerValue
149

@<SCITEGIC>MOL_PROPERTY
Conf_Id
SciTegic.value.IntegerValue
84

@<SCITEGIC>MOL_PROPERTY
Delta U+W
SciTegic.value.DoubleValue
0.942

@<SCITEGIC>MOL_PROPERTY
U+W
SciTegic.value.DoubleValue
-50.803

@<SCITEGIC>MOL_PROPERTY
Grad RMS
SciTegic.value.DoubleValue
0.000000

@<SCITEGIC>MOL_PROPERTY
U
SciTegic.value.DoubleValue
10.196

@<SCITEGIC>MOL_PROPERTY
W
SciTegic.value.DoubleValue
-60.999

@<SCITEGIC>MOL_PROPERTY
W(PB)
SciTegic.value.DoubleValue
-63.182

@<SCITEGIC>MOL_PROPERTY
W(SA)
SciTegic.value.DoubleValue
2.182

@<SCITEGIC>MOL_PROPERTY
Valence
SciTegic.value.DoubleValue
9.837

@<SCITEGIC>MOL_PROPERTY
Coulomb
SciTegic.value.DoubleValue
0.032

@<SCITEGIC>MOL_PROPERTY
VdW
SciTegic.value.DoubleValue
0.328

@<SCITEGIC>MOL_PROPERTY
VdW6
SciTegic.value.DoubleValue
-7.642

@<SCITEGIC>MOL_PROPERTY
VdW12
SciTegic.value.DoubleValue
7.969

@<SCITEGIC>MOL_PROPERTY
Bond
SciTegic.value.DoubleValue
0.151

@<SCITEGIC>MOL_PROPERTY
Angle
SciTegic.value.DoubleValue
2.748

@<SCITEGIC>MOL_PROPERTY
Pdih
SciTegic.value.DoubleValue
6.937

@<SCITEGIC>MOL_PROPERTY
Idih
SciTegic.value.DoubleValue
0.001

@<SCITEGIC>MOL_PROPERTY
Tether
SciTegic.value.DoubleValue
0.000

@<TRIPOS>MOLECULE
guest-s22_confgen4.mol2 : confsearch ligand conformer 150
          20          19           1
SMALL
USER_CHARGES
 
@<TRIPOS>ATOM
       1    C1      17.200677   20.867580   23.931481 C.2        1 MOL1        -0.2535
       2    H1      16.192224   21.277804   23.930337 H          1 MOL1         0.0845
       3    H2      17.488297   20.247390   24.778962 H          1 MOL1         0.0845
       4    C2      18.047821   21.115794   22.929284 C.2        1 MOL1        -0.1324
       5    H3      17.739796   21.738558   22.089688 H          1 MOL1         0.0833
       6    C3      19.461544   20.582331   22.862420 C.3        1 MOL1        -0.1813
       7    H4      19.768226   20.193862   23.843148 H          1 MOL1         0.0753
       8    H5      20.151544   21.400613   22.616662 H          1 MOL1         0.0753
       9    C4      19.586161   19.464741   21.805763 C.3        1 MOL1        -0.1855
      10    H6      18.888779   18.652591   22.054256 H          1 MOL1         0.0755
      11    H7      19.283493   19.853678   20.823841 H          1 MOL1         0.0755
      12    C5      21.026503   18.910838   21.722457 C.3        1 MOL1        -0.1855
      13    H8      21.327473   18.508050   22.699641 H          1 MOL1         0.0755
      14    H9      21.718047   19.732774   21.492763 H          1 MOL1         0.0755
      15    C6      21.179853   17.807881   20.643173 C.3        1 MOL1        -0.1958
      16    H10     20.857346   18.186659   19.665744 H          1 MOL1         0.0753
      17    H11     22.237330   17.535701   20.545010 H          1 MOL1         0.0753
      18    C7      20.406098   16.528648   20.949378 C.2        1 MOL1         0.6174
      19    O1      19.386578   16.308974   20.325443 O.co2      1 MOL1        -0.6695
      20    O2      20.851786   15.778944   21.795790 O.co2      1 MOL1        -0.6695
@<TRIPOS>BOND
    1     1     2    1
    2     1     3    1
    3     1     4    2
    4     4     5    1
    5     4     6    1
    6     6     7    1
    7     6     8    1
    8     6     9    1
    9     9    10    1
   10     9    11    1
   11     9    12    1
   12    12    13    1
   13    12    14    1
   14    12    15    1
   15    15    16    1
   16    15    17    1
   17    15    18    1
   18    18    19    1
   19    18    20    2
@<TRIPOS>SUBSTRUCTURE
       1 MOL1            1 RESIDUE      1      MOL     
@<SCITEGIC>MOL_PROPERTY
VConf Rank
SciTegic.value.IntegerValue
150

@<SCITEGIC>MOL_PROPERTY
Conf_Id
SciTegic.value.IntegerValue
81

@<SCITEGIC>MOL_PROPERTY
Delta U+W
SciTegic.value.DoubleValue
-0.051

@<SCITEGIC>MOL_PROPERTY
U+W
SciTegic.value.DoubleValue
-51.796

@<SCITEGIC>MOL_PROPERTY
Grad RMS
SciTegic.value.DoubleValue
0.000000

@<SCITEGIC>MOL_PROPERTY
U
SciTegic.value.DoubleValue
9.412

@<SCITEGIC>MOL_PROPERTY
W
SciTegic.value.DoubleValue
-61.209

@<SCITEGIC>MOL_PROPERTY
W(PB)
SciTegic.value.DoubleValue
-63.452

@<SCITEGIC>MOL_PROPERTY
W(SA)
SciTegic.value.DoubleValue
2.243

@<SCITEGIC>MOL_PROPERTY
Valence
SciTegic.value.DoubleValue
9.329

@<SCITEGIC>MOL_PROPERTY
Coulomb
SciTegic.value.DoubleValue
-0.323

@<SCITEGIC>MOL_PROPERTY
VdW
SciTegic.value.DoubleValue
0.406

@<SCITEGIC>MOL_PROPERTY
VdW6
SciTegic.value.DoubleValue
-6.640

@<SCITEGIC>MOL_PROPERTY
VdW12
SciTegic.value.DoubleValue
7.046

@<SCITEGIC>MOL_PROPERTY
Bond
SciTegic.value.DoubleValue
0.105

@<SCITEGIC>MOL_PROPERTY
Angle
SciTegic.value.DoubleValue
2.401

@<SCITEGIC>MOL_PROPERTY
Pdih
SciTegic.value.DoubleValue
6.823

@<SCITEGIC>MOL_PROPERTY
Idih
SciTegic.value.DoubleValue
0.000

@<SCITEGIC>MOL_PROPERTY
Tether
SciTegic.value.DoubleValue
0.000

@<TRIPOS>MOLECULE
guest-s22_confgen4.mol2 : confsearch ligand conformer 151
          20          19           1
SMALL
USER_CHARGES
 
@<TRIPOS>ATOM
       1    C1      18.853239   22.197298   21.599965 C.2        1 MOL1        -0.2535
       2    H1      17.777833   22.239304   21.435046 H          1 MOL1         0.0845
       3    H2      19.359810   23.129700   21.843184 H          1 MOL1         0.0845
       4    C2      19.527928   21.048129   21.511174 C.2        1 MOL1        -0.1324
       5    H3      20.604554   21.028249   21.677622 H          1 MOL1         0.0833
       6    C3      18.893493   19.716082   21.172545 C.3        1 MOL1        -0.1813
       7    H4      19.505364   19.184858   20.432039 H          1 MOL1         0.0753
       8    H5      17.919587   19.881290   20.692516 H          1 MOL1         0.0753
       9    C4      18.680626   18.828050   22.421862 C.3        1 MOL1        -0.1855
      10    H6      17.996078   19.343311   23.109419 H          1 MOL1         0.0755
      11    H7      18.169019   17.904232   22.118892 H          1 MOL1         0.0755
      12    C5      19.978777   18.465526   23.188329 C.3        1 MOL1        -0.1855
      13    H8      19.711908   17.860444   24.065733 H          1 MOL1         0.0755
      14    H9      20.440581   19.381293   23.580507 H          1 MOL1         0.0755
      15    C6      21.026027   17.686625   22.346444 C.3        1 MOL1        -0.1958
      16    H10     21.371509   18.293743   21.501996 H          1 MOL1         0.0753
      17    H11     21.908800   17.482835   22.963525 H          1 MOL1         0.0753
      18    C7      20.525129   16.347412   21.813384 C.2        1 MOL1         0.6174
      19    O1      20.303592   16.247514   20.622574 O.co2      1 MOL1        -0.6695
      20    O2      20.386374   15.433147   22.602261 O.co2      1 MOL1        -0.6695
@<TRIPOS>BOND
    1     1     2    1
    2     1     3    1
    3     1     4    2
    4     4     5    1
    5     4     6    1
    6     6     7    1
    7     6     8    1
    8     6     9    1
    9     9    10    1
   10     9    11    1
   11     9    12    1
   12    12    13    1
   13    12    14    1
   14    12    15    1
   15    15    16    1
   16    15    17    1
   17    15    18    1
   18    18    19    1
   19    18    20    2
@<TRIPOS>SUBSTRUCTURE
       1 MOL1            1 RESIDUE      1      MOL     
@<SCITEGIC>MOL_PROPERTY
VConf Rank
SciTegic.value.IntegerValue
151

@<SCITEGIC>MOL_PROPERTY
Conf_Id
SciTegic.value.IntegerValue
86

@<SCITEGIC>MOL_PROPERTY
Delta U+W
SciTegic.value.DoubleValue
1.248

@<SCITEGIC>MOL_PROPERTY
U+W
SciTegic.value.DoubleValue
-50.498

@<SCITEGIC>MOL_PROPERTY
Grad RMS
SciTegic.value.DoubleValue
0.000000

@<SCITEGIC>MOL_PROPERTY
U
SciTegic.value.DoubleValue
10.404

@<SCITEGIC>MOL_PROPERTY
W
SciTegic.value.DoubleValue
-60.901

@<SCITEGIC>MOL_PROPERTY
W(PB)
SciTegic.value.DoubleValue
-63.061

@<SCITEGIC>MOL_PROPERTY
W(SA)
SciTegic.value.DoubleValue
2.159

@<SCITEGIC>MOL_PROPERTY
Valence
SciTegic.value.DoubleValue
10.021

@<SCITEGIC>MOL_PROPERTY
Coulomb
SciTegic.value.DoubleValue
0.094

@<SCITEGIC>MOL_PROPERTY
VdW
SciTegic.value.DoubleValue
0.289

@<SCITEGIC>MOL_PROPERTY
VdW6
SciTegic.value.DoubleValue
-8.409

@<SCITEGIC>MOL_PROPERTY
VdW12
SciTegic.value.DoubleValue
8.698

@<SCITEGIC>MOL_PROPERTY
Bond
SciTegic.value.DoubleValue
0.179

@<SCITEGIC>MOL_PROPERTY
Angle
SciTegic.value.DoubleValue
2.939

@<SCITEGIC>MOL_PROPERTY
Pdih
SciTegic.value.DoubleValue
6.902

@<SCITEGIC>MOL_PROPERTY
Idih
SciTegic.value.DoubleValue
0.001

@<SCITEGIC>MOL_PROPERTY
Tether
SciTegic.value.DoubleValue
0.000

@<TRIPOS>MOLECULE
guest-s22_confgen4.mol2 : confsearch ligand conformer 152
          20          19           1
SMALL
USER_CHARGES
 
@<TRIPOS>ATOM
       1    C1      21.330848   18.973701   24.744624 C.2        1 MOL1        -0.2535
       2    H1      22.307381   19.243512   25.142982 H          1 MOL1         0.0845
       3    H2      20.457158   19.428655   25.208419 H          1 MOL1         0.0845
       4    C2      21.213502   18.120069   23.724052 C.2        1 MOL1        -0.1324
       5    H3      22.100906   17.677395   23.272453 H          1 MOL1         0.0833
       6    C3      19.892256   17.698196   23.117104 C.3        1 MOL1        -0.1813
       7    H4      19.054687   18.023349   23.749096 H          1 MOL1         0.0753
       8    H5      19.847122   16.601542   23.083436 H          1 MOL1         0.0753
       9    C4      19.701919   18.248602   21.685711 C.3        1 MOL1        -0.1855
      10    H6      20.541219   17.927115   21.053933 H          1 MOL1         0.0755
      11    H7      18.796091   17.801508   21.253748 H          1 MOL1         0.0755
      12    C5      19.580026   19.790514   21.650379 C.3        1 MOL1        -0.1855
      13    H8      20.487853   20.238905   22.075660 H          1 MOL1         0.0755
      14    H9      18.742876   20.111910   22.285389 H          1 MOL1         0.0755
      15    C6      19.377295   20.340163   20.214476 C.3        1 MOL1        -0.1958
      16    H10     19.420448   21.435500   20.232250 H          1 MOL1         0.0753
      17    H11     20.189983   20.000852   19.560883 H          1 MOL1         0.0753
      18    C7      18.045834   19.946279   19.581394 C.2        1 MOL1         0.6174
      19    O1      17.043562   20.528338   19.947160 O.co2      1 MOL1        -0.6695
      20    O2      18.046742   19.077051   18.731965 O.co2      1 MOL1        -0.6695
@<TRIPOS>BOND
    1     1     2    1
    2     1     3    1
    3     1     4    2
    4     4     5    1
    5     4     6    1
    6     6     7    1
    7     6     8    1
    8     6     9    1
    9     9    10    1
   10     9    11    1
   11     9    12    1
   12    12    13    1
   13    12    14    1
   14    12    15    1
   15    15    16    1
   16    15    17    1
   17    15    18    1
   18    18    19    1
   19    18    20    2
@<TRIPOS>SUBSTRUCTURE
       1 MOL1            1 RESIDUE      1      MOL     
@<SCITEGIC>MOL_PROPERTY
VConf Rank
SciTegic.value.IntegerValue
152

@<SCITEGIC>MOL_PROPERTY
Conf_Id
SciTegic.value.IntegerValue
28

@<SCITEGIC>MOL_PROPERTY
Delta U+W
SciTegic.value.DoubleValue
0.446

@<SCITEGIC>MOL_PROPERTY
U+W
SciTegic.value.DoubleValue
-51.299

@<SCITEGIC>MOL_PROPERTY
Grad RMS
SciTegic.value.DoubleValue
0.000000

@<SCITEGIC>MOL_PROPERTY
U
SciTegic.value.DoubleValue
9.295

@<SCITEGIC>MOL_PROPERTY
W
SciTegic.value.DoubleValue
-60.594

@<SCITEGIC>MOL_PROPERTY
W(PB)
SciTegic.value.DoubleValue
-62.806

@<SCITEGIC>MOL_PROPERTY
W(SA)
SciTegic.value.DoubleValue
2.212

@<SCITEGIC>MOL_PROPERTY
Valence
SciTegic.value.DoubleValue
9.495

@<SCITEGIC>MOL_PROPERTY
Coulomb
SciTegic.value.DoubleValue
-0.610

@<SCITEGIC>MOL_PROPERTY
VdW
SciTegic.value.DoubleValue
0.409

@<SCITEGIC>MOL_PROPERTY
VdW6
SciTegic.value.DoubleValue
-7.332

@<SCITEGIC>MOL_PROPERTY
VdW12
SciTegic.value.DoubleValue
7.741

@<SCITEGIC>MOL_PROPERTY
Bond
SciTegic.value.DoubleValue
0.126

@<SCITEGIC>MOL_PROPERTY
Angle
SciTegic.value.DoubleValue
2.497

@<SCITEGIC>MOL_PROPERTY
Pdih
SciTegic.value.DoubleValue
6.872

@<SCITEGIC>MOL_PROPERTY
Idih
SciTegic.value.DoubleValue
0.000

@<SCITEGIC>MOL_PROPERTY
Tether
SciTegic.value.DoubleValue
0.000

@<TRIPOS>MOLECULE
guest-s22_confgen4.mol2 : confsearch ligand conformer 153
          20          19           1
SMALL
USER_CHARGES
 
@<TRIPOS>ATOM
       1    C1      21.430182   16.947911   23.526432 C.2        1 MOL1        -0.2535
       2    H1      22.128414   17.751932   23.303906 H          1 MOL1         0.0845
       3    H2      21.806171   16.123787   24.130247 H          1 MOL1         0.0845
       4    C2      20.164938   16.954677   23.091590 C.2        1 MOL1        -0.1324
       5    H3      19.511800   16.121273   23.349251 H          1 MOL1         0.0833
       6    C3      19.500587   18.027082   22.244218 C.3        1 MOL1        -0.1813
       7    H4      18.668547   18.455337   22.817775 H          1 MOL1         0.0753
       8    H5      19.045051   17.549107   21.366847 H          1 MOL1         0.0753
       9    C4      20.442890   19.160112   21.767870 C.3        1 MOL1        -0.1855
      10    H6      20.836036   19.703537   22.638100 H          1 MOL1         0.0755
      11    H7      21.308006   18.715112   21.257730 H          1 MOL1         0.0755
      12    C5      19.766992   20.156821   20.793810 C.3        1 MOL1        -0.1855
      13    H8      19.420962   19.614515   19.903554 H          1 MOL1         0.0755
      14    H9      20.521940   20.873736   20.442391 H          1 MOL1         0.0755
      15    C6      18.576635   20.946914   21.403286 C.3        1 MOL1        -0.1958
      16    H10     18.157284   21.614800   20.641885 H          1 MOL1         0.0753
      17    H11     17.769311   20.266354   21.696483 H          1 MOL1         0.0753
      18    C7      18.950407   21.809283   22.605583 C.2        1 MOL1         0.6174
      19    O1      19.626952   22.800231   22.411263 O.co2      1 MOL1        -0.6695
      20    O2      18.538598   21.480223   23.700568 O.co2      1 MOL1        -0.6695
@<TRIPOS>BOND
    1     1     2    1
    2     1     3    1
    3     1     4    2
    4     4     5    1
    5     4     6    1
    6     6     7    1
    7     6     8    1
    8     6     9    1
    9     9    10    1
   10     9    11    1
   11     9    12    1
   12    12    13    1
   13    12    14    1
   14    12    15    1
   15    15    16    1
   16    15    17    1
   17    15    18    1
   18    18    19    1
   19    18    20    2
@<TRIPOS>SUBSTRUCTURE
       1 MOL1            1 RESIDUE      1      MOL     
@<SCITEGIC>MOL_PROPERTY
VConf Rank
SciTegic.value.IntegerValue
153

@<SCITEGIC>MOL_PROPERTY
Conf_Id
SciTegic.value.IntegerValue
53

@<SCITEGIC>MOL_PROPERTY
Delta U+W
SciTegic.value.DoubleValue
0.549

@<SCITEGIC>MOL_PROPERTY
U+W
SciTegic.value.DoubleValue
-51.197

@<SCITEGIC>MOL_PROPERTY
Grad RMS
SciTegic.value.DoubleValue
0.000000

@<SCITEGIC>MOL_PROPERTY
U
SciTegic.value.DoubleValue
10.870

@<SCITEGIC>MOL_PROPERTY
W
SciTegic.value.DoubleValue
-62.067

@<SCITEGIC>MOL_PROPERTY
W(PB)
SciTegic.value.DoubleValue
-64.228

@<SCITEGIC>MOL_PROPERTY
W(SA)
SciTegic.value.DoubleValue
2.161

@<SCITEGIC>MOL_PROPERTY
Valence
SciTegic.value.DoubleValue
8.803

@<SCITEGIC>MOL_PROPERTY
Coulomb
SciTegic.value.DoubleValue
1.020

@<SCITEGIC>MOL_PROPERTY
VdW
SciTegic.value.DoubleValue
1.048

@<SCITEGIC>MOL_PROPERTY
VdW6
SciTegic.value.DoubleValue
-8.312

@<SCITEGIC>MOL_PROPERTY
VdW12
SciTegic.value.DoubleValue
9.360

@<SCITEGIC>MOL_PROPERTY
Bond
SciTegic.value.DoubleValue
0.212

@<SCITEGIC>MOL_PROPERTY
Angle
SciTegic.value.DoubleValue
3.379

@<SCITEGIC>MOL_PROPERTY
Pdih
SciTegic.value.DoubleValue
5.211

@<SCITEGIC>MOL_PROPERTY
Idih
SciTegic.value.DoubleValue
0.001

@<SCITEGIC>MOL_PROPERTY
Tether
SciTegic.value.DoubleValue
0.000

@<TRIPOS>MOLECULE
guest-s22_confgen4.mol2 : confsearch ligand conformer 154
          20          19           1
SMALL
USER_CHARGES
 
@<TRIPOS>ATOM
       1    C1      17.181075   17.976264   21.195426 C.2        1 MOL1        -0.2535
       2    H1      17.779971   17.089462   20.999966 H          1 MOL1         0.0845
       3    H2      16.307215   18.131207   20.565120 H          1 MOL1         0.0845
       4    C2      17.488035   18.842883   22.166715 C.2        1 MOL1        -0.1324
       5    H3      16.852668   19.714284   22.322509 H          1 MOL1         0.0833
       6    C3      18.674498   18.754635   23.112447 C.3        1 MOL1        -0.1813
       7    H4      18.334184   18.327650   24.064955 H          1 MOL1         0.0753
       8    H5      19.006486   19.769925   23.364541 H          1 MOL1         0.0753
       9    C4      19.892685   17.944675   22.596929 C.3        1 MOL1        -0.1855
      10    H6      20.643994   17.896392   23.396955 H          1 MOL1         0.0755
      11    H7      19.589350   16.905374   22.414816 H          1 MOL1         0.0755
      12    C5      20.558822   18.516030   21.317605 C.3        1 MOL1        -0.1855
      13    H8      19.839438   18.501993   20.488844 H          1 MOL1         0.0755
      14    H9      21.378890   17.848187   21.020129 H          1 MOL1         0.0755
      15    C6      21.121368   19.955482   21.472005 C.3        1 MOL1        -0.1958
      16    H10     21.565822   20.274715   20.522207 H          1 MOL1         0.0753
      17    H11     20.313867   20.663867   21.689110 H          1 MOL1         0.0753
      18    C7      22.196585   20.093692   22.545892 C.2        1 MOL1         0.6174
      19    O1      21.914864   20.682049   23.571381 O.co2      1 MOL1        -0.6695
      20    O2      23.294749   19.624023   22.320159 O.co2      1 MOL1        -0.6695
@<TRIPOS>BOND
    1     1     2    1
    2     1     3    1
    3     1     4    2
    4     4     5    1
    5     4     6    1
    6     6     7    1
    7     6     8    1
    8     6     9    1
    9     9    10    1
   10     9    11    1
   11     9    12    1
   12    12    13    1
   13    12    14    1
   14    12    15    1
   15    15    16    1
   16    15    17    1
   17    15    18    1
   18    18    19    1
   19    18    20    2
@<TRIPOS>SUBSTRUCTURE
       1 MOL1            1 RESIDUE      1      MOL     
@<SCITEGIC>MOL_PROPERTY
VConf Rank
SciTegic.value.IntegerValue
154

@<SCITEGIC>MOL_PROPERTY
Conf_Id
SciTegic.value.IntegerValue
66

@<SCITEGIC>MOL_PROPERTY
Delta U+W
SciTegic.value.DoubleValue
1.737

@<SCITEGIC>MOL_PROPERTY
U+W
SciTegic.value.DoubleValue
-50.008

@<SCITEGIC>MOL_PROPERTY
Grad RMS
SciTegic.value.DoubleValue
0.000000

@<SCITEGIC>MOL_PROPERTY
U
SciTegic.value.DoubleValue
11.091

@<SCITEGIC>MOL_PROPERTY
W
SciTegic.value.DoubleValue
-61.099

@<SCITEGIC>MOL_PROPERTY
W(PB)
SciTegic.value.DoubleValue
-63.213

@<SCITEGIC>MOL_PROPERTY
W(SA)
SciTegic.value.DoubleValue
2.114

@<SCITEGIC>MOL_PROPERTY
Valence
SciTegic.value.DoubleValue
9.664

@<SCITEGIC>MOL_PROPERTY
Coulomb
SciTegic.value.DoubleValue
0.658

@<SCITEGIC>MOL_PROPERTY
VdW
SciTegic.value.DoubleValue
0.769

@<SCITEGIC>MOL_PROPERTY
VdW6
SciTegic.value.DoubleValue
-9.171

@<SCITEGIC>MOL_PROPERTY
VdW12
SciTegic.value.DoubleValue
9.940

@<SCITEGIC>MOL_PROPERTY
Bond
SciTegic.value.DoubleValue
0.244

@<SCITEGIC>MOL_PROPERTY
Angle
SciTegic.value.DoubleValue
3.658

@<SCITEGIC>MOL_PROPERTY
Pdih
SciTegic.value.DoubleValue
5.762

@<SCITEGIC>MOL_PROPERTY
Idih
SciTegic.value.DoubleValue
0.001

@<SCITEGIC>MOL_PROPERTY
Tether
SciTegic.value.DoubleValue
0.000

@<TRIPOS>MOLECULE
guest-s22_confgen4.mol2 : confsearch ligand conformer 155
          20          19           1
SMALL
USER_CHARGES
 
@<TRIPOS>ATOM
       1    C1      20.224499   16.551135   21.155653 C.2        1 MOL1        -0.2535
       2    H1      21.032274   16.775846   21.848609 H          1 MOL1         0.0845
       3    H2      19.882414   15.518558   21.114450 H          1 MOL1         0.0845
       4    C2      19.670052   17.488002   20.378640 C.2        1 MOL1        -0.1324
       5    H3      18.865015   17.206925   19.700221 H          1 MOL1         0.0833
       6    C3      20.040079   18.961678   20.334382 C.3        1 MOL1        -0.1813
       7    H4      19.134695   19.549388   20.138100 H          1 MOL1         0.0753
       8    H5      20.681864   19.135328   19.460574 H          1 MOL1         0.0753
       9    C4      20.740686   19.523418   21.599259 C.3        1 MOL1        -0.1855
      10    H6      21.678288   18.977979   21.769234 H          1 MOL1         0.0755
      11    H7      21.034607   20.563972   21.405641 H          1 MOL1         0.0755
      12    C5      19.880910   19.482228   22.888364 C.3        1 MOL1        -0.1855
      13    H8      20.498580   19.820765   23.731606 H          1 MOL1         0.0755
      14    H9      19.588821   18.448843   23.117265 H          1 MOL1         0.0755
      15    C6      18.611195   20.369573   22.815149 C.3        1 MOL1        -0.1958
      16    H10     18.880873   21.395394   22.537453 H          1 MOL1         0.0753
      17    H11     17.923021   19.993847   22.049585 H          1 MOL1         0.0753
      18    C7      17.851949   20.422579   24.136126 C.2        1 MOL1         0.6174
      19    O1      16.970841   19.607543   24.326172 O.co2      1 MOL1        -0.6695
      20    O2      18.171434   21.269378   24.947171 O.co2      1 MOL1        -0.6695
@<TRIPOS>BOND
    1     1     2    1
    2     1     3    1
    3     1     4    2
    4     4     5    1
    5     4     6    1
    6     6     7    1
    7     6     8    1
    8     6     9    1
    9     9    10    1
   10     9    11    1
   11     9    12    1
   12    12    13    1
   13    12    14    1
   14    12    15    1
   15    15    16    1
   16    15    17    1
   17    15    18    1
   18    18    19    1
   19    18    20    2
@<TRIPOS>SUBSTRUCTURE
       1 MOL1            1 RESIDUE      1      MOL     
@<SCITEGIC>MOL_PROPERTY
VConf Rank
SciTegic.value.IntegerValue
155

@<SCITEGIC>MOL_PROPERTY
Conf_Id
SciTegic.value.IntegerValue
64

@<SCITEGIC>MOL_PROPERTY
Delta U+W
SciTegic.value.DoubleValue
0.366

@<SCITEGIC>MOL_PROPERTY
U+W
SciTegic.value.DoubleValue
-51.379

@<SCITEGIC>MOL_PROPERTY
Grad RMS
SciTegic.value.DoubleValue
0.000000

@<SCITEGIC>MOL_PROPERTY
U
SciTegic.value.DoubleValue
10.000

@<SCITEGIC>MOL_PROPERTY
W
SciTegic.value.DoubleValue
-61.379

@<SCITEGIC>MOL_PROPERTY
W(PB)
SciTegic.value.DoubleValue
-63.541

@<SCITEGIC>MOL_PROPERTY
W(SA)
SciTegic.value.DoubleValue
2.162

@<SCITEGIC>MOL_PROPERTY
Valence
SciTegic.value.DoubleValue
9.398

@<SCITEGIC>MOL_PROPERTY
Coulomb
SciTegic.value.DoubleValue
-0.504

@<SCITEGIC>MOL_PROPERTY
VdW
SciTegic.value.DoubleValue
1.105

@<SCITEGIC>MOL_PROPERTY
VdW6
SciTegic.value.DoubleValue
-7.975

@<SCITEGIC>MOL_PROPERTY
VdW12
SciTegic.value.DoubleValue
9.080

@<SCITEGIC>MOL_PROPERTY
Bond
SciTegic.value.DoubleValue
0.216

@<SCITEGIC>MOL_PROPERTY
Angle
SciTegic.value.DoubleValue
3.417

@<SCITEGIC>MOL_PROPERTY
Pdih
SciTegic.value.DoubleValue
5.765

@<SCITEGIC>MOL_PROPERTY
Idih
SciTegic.value.DoubleValue
0.001

@<SCITEGIC>MOL_PROPERTY
Tether
SciTegic.value.DoubleValue
0.000

@<TRIPOS>MOLECULE
guest-s22_confgen4.mol2 : confsearch ligand conformer 156
          20          19           1
SMALL
USER_CHARGES
 
@<TRIPOS>ATOM
       1    C1      17.659990   17.902158   23.544886 C.2        1 MOL1        -0.2535
       2    H1      17.053654   18.750280   23.231097 H          1 MOL1         0.0845
       3    H2      17.537633   17.549690   24.567578 H          1 MOL1         0.0845
       4    C2      18.524417   17.316756   22.711770 C.2        1 MOL1        -0.1324
       5    H3      19.123747   16.470497   23.046499 H          1 MOL1         0.0833
       6    C3      18.749553   17.750429   21.278864 C.3        1 MOL1        -0.1813
       7    H4      17.974216   18.461987   20.963883 H          1 MOL1         0.0753
       8    H5      18.653896   16.876829   20.620444 H          1 MOL1         0.0753
       9    C4      20.144527   18.381626   21.070110 C.3        1 MOL1        -0.1855
      10    H6      20.919889   17.670127   21.385810 H          1 MOL1         0.0755
      11    H7      20.297198   18.557408   19.996483 H          1 MOL1         0.0755
      12    C5      20.315792   19.715336   21.832652 C.3        1 MOL1        -0.1855
      13    H8      20.191830   19.547994   22.911475 H          1 MOL1         0.0755
      14    H9      19.529182   20.419405   21.527987 H          1 MOL1         0.0755
      15    C6      21.702848   20.353306   21.573632 C.3        1 MOL1        -0.1958
      16    H10     22.499135   19.666496   21.884767 H          1 MOL1         0.0753
      17    H11     21.838449   20.543437   20.502208 H          1 MOL1         0.0753
      18    C7      21.896203   21.670805   22.315861 C.2        1 MOL1         0.6174
      19    O1      21.539402   22.695252   21.768183 O.co2      1 MOL1        -0.6695
      20    O2      22.385567   21.636795   23.427642 O.co2      1 MOL1        -0.6695
@<TRIPOS>BOND
    1     1     2    1
    2     1     3    1
    3     1     4    2
    4     4     5    1
    5     4     6    1
    6     6     7    1
    7     6     8    1
    8     6     9    1
    9     9    10    1
   10     9    11    1
   11     9    12    1
   12    12    13    1
   13    12    14    1
   14    12    15    1
   15    15    16    1
   16    15    17    1
   17    15    18    1
   18    18    19    1
   19    18    20    2
@<TRIPOS>SUBSTRUCTURE
       1 MOL1            1 RESIDUE      1      MOL     
@<SCITEGIC>MOL_PROPERTY
VConf Rank
SciTegic.value.IntegerValue
156

@<SCITEGIC>MOL_PROPERTY
Conf_Id
SciTegic.value.IntegerValue
42

@<SCITEGIC>MOL_PROPERTY
Delta U+W
SciTegic.value.DoubleValue
-0.601

@<SCITEGIC>MOL_PROPERTY
U+W
SciTegic.value.DoubleValue
-52.347

@<SCITEGIC>MOL_PROPERTY
Grad RMS
SciTegic.value.DoubleValue
0.000000

@<SCITEGIC>MOL_PROPERTY
U
SciTegic.value.DoubleValue
8.428

@<SCITEGIC>MOL_PROPERTY
W
SciTegic.value.DoubleValue
-60.774

@<SCITEGIC>MOL_PROPERTY
W(PB)
SciTegic.value.DoubleValue
-62.982

@<SCITEGIC>MOL_PROPERTY
W(SA)
SciTegic.value.DoubleValue
2.208

@<SCITEGIC>MOL_PROPERTY
Valence
SciTegic.value.DoubleValue
9.231

@<SCITEGIC>MOL_PROPERTY
Coulomb
SciTegic.value.DoubleValue
-1.304

@<SCITEGIC>MOL_PROPERTY
VdW
SciTegic.value.DoubleValue
0.501

@<SCITEGIC>MOL_PROPERTY
VdW6
SciTegic.value.DoubleValue
-6.515

@<SCITEGIC>MOL_PROPERTY
VdW12
SciTegic.value.DoubleValue
7.016

@<SCITEGIC>MOL_PROPERTY
Bond
SciTegic.value.DoubleValue
0.103

@<SCITEGIC>MOL_PROPERTY
Angle
SciTegic.value.DoubleValue
2.328

@<SCITEGIC>MOL_PROPERTY
Pdih
SciTegic.value.DoubleValue
6.799

@<SCITEGIC>MOL_PROPERTY
Idih
SciTegic.value.DoubleValue
0.000

@<SCITEGIC>MOL_PROPERTY
Tether
SciTegic.value.DoubleValue
0.000

@<TRIPOS>MOLECULE
guest-s22_confgen4.mol2 : confsearch ligand conformer 157
          20          19           1
SMALL
USER_CHARGES
 
@<TRIPOS>ATOM
       1    C1      19.746414   21.765612   23.712388 C.2        1 MOL1        -0.2535
       2    H1      18.662391   21.848526   23.770832 H          1 MOL1         0.0845
       3    H2      20.315079   22.688659   23.613902 H          1 MOL1         0.0845
       4    C2      20.358381   20.579160   23.755419 C.2        1 MOL1        -0.1324
       5    H3      21.444513   20.517862   23.692448 H          1 MOL1         0.0833
       6    C3      19.636296   19.255321   23.889390 C.3        1 MOL1        -0.1813
       7    H4      18.579185   19.415140   24.141548 H          1 MOL1         0.0753
       8    H5      20.072215   18.691718   24.724936 H          1 MOL1         0.0753
       9    C4      19.737455   18.400917   22.605754 C.3        1 MOL1        -0.1855
      10    H6      20.795550   18.236620   22.359218 H          1 MOL1         0.0755
      11    H7      19.304826   17.410608   22.802885 H          1 MOL1         0.0755
      12    C5      19.008662   19.043734   21.402044 C.3        1 MOL1        -0.1855
      13    H8      19.459308   20.017912   21.166995 H          1 MOL1         0.0755
      14    H9      17.962555   19.238057   21.674311 H          1 MOL1         0.0755
      15    C6      19.042524   18.147438   20.137003 C.3        1 MOL1        -0.1958
      16    H10     18.617682   17.161150   20.359422 H          1 MOL1         0.0753
      17    H11     18.416716   18.593670   19.355189 H          1 MOL1         0.0753
      18    C7      20.438424   17.955214   19.551063 C.2        1 MOL1         0.6174
      19    O1      21.007659   16.900619   19.753461 O.co2      1 MOL1        -0.6695
      20    O2      20.912135   18.859616   18.891707 O.co2      1 MOL1        -0.6695
@<TRIPOS>BOND
    1     1     2    1
    2     1     3    1
    3     1     4    2
    4     4     5    1
    5     4     6    1
    6     6     7    1
    7     6     8    1
    8     6     9    1
    9     9    10    1
   10     9    11    1
   11     9    12    1
   12    12    13    1
   13    12    14    1
   14    12    15    1
   15    15    16    1
   16    15    17    1
   17    15    18    1
   18    18    19    1
   19    18    20    2
@<TRIPOS>SUBSTRUCTURE
       1 MOL1            1 RESIDUE      1      MOL     
@<SCITEGIC>MOL_PROPERTY
VConf Rank
SciTegic.value.IntegerValue
157

@<SCITEGIC>MOL_PROPERTY
Conf_Id
SciTegic.value.IntegerValue
68

@<SCITEGIC>MOL_PROPERTY
Delta U+W
SciTegic.value.DoubleValue
0.492

@<SCITEGIC>MOL_PROPERTY
U+W
SciTegic.value.DoubleValue
-51.253

@<SCITEGIC>MOL_PROPERTY
Grad RMS
SciTegic.value.DoubleValue
0.000000

@<SCITEGIC>MOL_PROPERTY
U
SciTegic.value.DoubleValue
10.179

@<SCITEGIC>MOL_PROPERTY
W
SciTegic.value.DoubleValue
-61.432

@<SCITEGIC>MOL_PROPERTY
W(PB)
SciTegic.value.DoubleValue
-63.627

@<SCITEGIC>MOL_PROPERTY
W(SA)
SciTegic.value.DoubleValue
2.195

@<SCITEGIC>MOL_PROPERTY
Valence
SciTegic.value.DoubleValue
9.483

@<SCITEGIC>MOL_PROPERTY
Coulomb
SciTegic.value.DoubleValue
0.361

@<SCITEGIC>MOL_PROPERTY
VdW
SciTegic.value.DoubleValue
0.335

@<SCITEGIC>MOL_PROPERTY
VdW6
SciTegic.value.DoubleValue
-7.385

@<SCITEGIC>MOL_PROPERTY
VdW12
SciTegic.value.DoubleValue
7.720

@<SCITEGIC>MOL_PROPERTY
Bond
SciTegic.value.DoubleValue
0.125

@<SCITEGIC>MOL_PROPERTY
Angle
SciTegic.value.DoubleValue
2.487

@<SCITEGIC>MOL_PROPERTY
Pdih
SciTegic.value.DoubleValue
6.870

@<SCITEGIC>MOL_PROPERTY
Idih
SciTegic.value.DoubleValue
0.001

@<SCITEGIC>MOL_PROPERTY
Tether
SciTegic.value.DoubleValue
0.000

@<TRIPOS>MOLECULE
guest-s22_confgen4.mol2 : confsearch ligand conformer 158
          20          19           1
SMALL
USER_CHARGES
 
@<TRIPOS>ATOM
       1    C1      21.139048   21.643725   20.583064 C.2        1 MOL1        -0.2535
       2    H1      21.738238   21.123654   19.837418 H          1 MOL1         0.0845
       3    H2      21.537027   22.573375   20.986227 H          1 MOL1         0.0845
       4    C2      19.962797   21.161549   20.992496 C.2        1 MOL1        -0.1324
       5    H3      19.377901   21.699596   21.737913 H          1 MOL1         0.0833
       6    C3      19.344738   19.880826   20.473331 C.3        1 MOL1        -0.1813
       7    H4      19.808201   19.607371   19.515759 H          1 MOL1         0.0753
       8    H5      18.278095   20.038020   20.264621 H          1 MOL1         0.0753
       9    C4      19.515351   18.703572   21.459813 C.3        1 MOL1        -0.1855
      10    H6      19.166465   17.781679   20.974903 H          1 MOL1         0.0755
      11    H7      20.583825   18.559900   21.672702 H          1 MOL1         0.0755
      12    C5      18.736562   18.908180   22.780931 C.3        1 MOL1        -0.1855
      13    H8      17.679468   19.099762   22.552543 H          1 MOL1         0.0755
      14    H9      19.113315   19.796374   23.306273 H          1 MOL1         0.0755
      15    C6      18.833172   17.681285   23.724460 C.3        1 MOL1        -0.1958
      16    H10     18.173716   17.830143   24.587574 H          1 MOL1         0.0753
      17    H11     18.483314   16.778282   23.209728 H          1 MOL1         0.0753
      18    C7      20.237724   17.421928   24.261866 C.2        1 MOL1         0.6174
      19    O1      20.642890   18.124494   25.167045 O.co2      1 MOL1        -0.6695
      20    O2      20.881626   16.513076   23.775553 O.co2      1 MOL1        -0.6695
@<TRIPOS>BOND
    1     1     2    1
    2     1     3    1
    3     1     4    2
    4     4     5    1
    5     4     6    1
    6     6     7    1
    7     6     8    1
    8     6     9    1
    9     9    10    1
   10     9    11    1
   11     9    12    1
   12    12    13    1
   13    12    14    1
   14    12    15    1
   15    15    16    1
   16    15    17    1
   17    15    18    1
   18    18    19    1
   19    18    20    2
@<TRIPOS>SUBSTRUCTURE
       1 MOL1            1 RESIDUE      1      MOL     
@<SCITEGIC>MOL_PROPERTY
VConf Rank
SciTegic.value.IntegerValue
158

@<SCITEGIC>MOL_PROPERTY
Conf_Id
SciTegic.value.IntegerValue
87

@<SCITEGIC>MOL_PROPERTY
Delta U+W
SciTegic.value.DoubleValue
0.339

@<SCITEGIC>MOL_PROPERTY
U+W
SciTegic.value.DoubleValue
-51.407

@<SCITEGIC>MOL_PROPERTY
Grad RMS
SciTegic.value.DoubleValue
0.000000

@<SCITEGIC>MOL_PROPERTY
U
SciTegic.value.DoubleValue
10.461

@<SCITEGIC>MOL_PROPERTY
W
SciTegic.value.DoubleValue
-61.867

@<SCITEGIC>MOL_PROPERTY
W(PB)
SciTegic.value.DoubleValue
-64.045

@<SCITEGIC>MOL_PROPERTY
W(SA)
SciTegic.value.DoubleValue
2.178

@<SCITEGIC>MOL_PROPERTY
Valence
SciTegic.value.DoubleValue
9.555

@<SCITEGIC>MOL_PROPERTY
Coulomb
SciTegic.value.DoubleValue
0.483

@<SCITEGIC>MOL_PROPERTY
VdW
SciTegic.value.DoubleValue
0.423

@<SCITEGIC>MOL_PROPERTY
VdW6
SciTegic.value.DoubleValue
-7.223

@<SCITEGIC>MOL_PROPERTY
VdW12
SciTegic.value.DoubleValue
7.646

@<SCITEGIC>MOL_PROPERTY
Bond
SciTegic.value.DoubleValue
0.126

@<SCITEGIC>MOL_PROPERTY
Angle
SciTegic.value.DoubleValue
2.492

@<SCITEGIC>MOL_PROPERTY
Pdih
SciTegic.value.DoubleValue
6.936

@<SCITEGIC>MOL_PROPERTY
Idih
SciTegic.value.DoubleValue
0.001

@<SCITEGIC>MOL_PROPERTY
Tether
SciTegic.value.DoubleValue
0.000

@<TRIPOS>MOLECULE
guest-s22_confgen4.mol2 : confsearch ligand conformer 159
          20          19           1
SMALL
USER_CHARGES
 
@<TRIPOS>ATOM
       1    C1      19.745351   20.940520   19.972617 C.2        1 MOL1        -0.2535
       2    H1      19.829020   20.370872   19.048540 H          1 MOL1         0.0845
       3    H2      19.177999   21.869017   19.940612 H          1 MOL1         0.0845
       4    C2      20.314312   20.516979   21.104257 C.2        1 MOL1        -0.1324
       5    H3      20.227017   21.105587   22.016786 H          1 MOL1         0.0833
       6    C3      21.126582   19.244618   21.217924 C.3        1 MOL1        -0.1813
       7    H4      21.765633   19.279668   22.110293 H          1 MOL1         0.0753
       8    H5      21.812962   19.192585   20.362014 H          1 MOL1         0.0753
       9    C4      20.263876   17.958285   21.233809 C.3        1 MOL1        -0.1855
      10    H6      19.496722   18.010674   20.449167 H          1 MOL1         0.0755
      11    H7      20.912849   17.113920   20.964334 H          1 MOL1         0.0755
      12    C5      19.607737   17.629501   22.598537 C.3        1 MOL1        -0.1855
      13    H8      20.376031   17.591674   23.382968 H          1 MOL1         0.0755
      14    H9      19.178580   16.619612   22.539900 H          1 MOL1         0.0755
      15    C6      18.485324   18.612643   23.019114 C.3        1 MOL1        -0.1958
      16    H10     18.900879   19.602415   23.232995 H          1 MOL1         0.0753
      17    H11     17.759588   18.730857   22.205692 H          1 MOL1         0.0753
      18    C7      17.733420   18.152363   24.262662 C.2        1 MOL1         0.6174
      19    O1      18.162844   18.485758   25.349553 O.co2      1 MOL1        -0.6695
      20    O2      16.749629   17.454764   24.113021 O.co2      1 MOL1        -0.6695
@<TRIPOS>BOND
    1     1     2    1
    2     1     3    1
    3     1     4    2
    4     4     5    1
    5     4     6    1
    6     6     7    1
    7     6     8    1
    8     6     9    1
    9     9    10    1
   10     9    11    1
   11     9    12    1
   12    12    13    1
   13    12    14    1
   14    12    15    1
   15    15    16    1
   16    15    17    1
   17    15    18    1
   18    18    19    1
   19    18    20    2
@<TRIPOS>SUBSTRUCTURE
       1 MOL1            1 RESIDUE      1      MOL     
@<SCITEGIC>MOL_PROPERTY
VConf Rank
SciTegic.value.IntegerValue
159

@<SCITEGIC>MOL_PROPERTY
Conf_Id
SciTegic.value.IntegerValue
51

@<SCITEGIC>MOL_PROPERTY
Delta U+W
SciTegic.value.DoubleValue
1.709

@<SCITEGIC>MOL_PROPERTY
U+W
SciTegic.value.DoubleValue
-50.036

@<SCITEGIC>MOL_PROPERTY
Grad RMS
SciTegic.value.DoubleValue
0.000000

@<SCITEGIC>MOL_PROPERTY
U
SciTegic.value.DoubleValue
10.643

@<SCITEGIC>MOL_PROPERTY
W
SciTegic.value.DoubleValue
-60.679

@<SCITEGIC>MOL_PROPERTY
W(PB)
SciTegic.value.DoubleValue
-62.882

@<SCITEGIC>MOL_PROPERTY
W(SA)
SciTegic.value.DoubleValue
2.203

@<SCITEGIC>MOL_PROPERTY
Valence
SciTegic.value.DoubleValue
11.231

@<SCITEGIC>MOL_PROPERTY
Coulomb
SciTegic.value.DoubleValue
-1.077

@<SCITEGIC>MOL_PROPERTY
VdW
SciTegic.value.DoubleValue
0.489

@<SCITEGIC>MOL_PROPERTY
VdW6
SciTegic.value.DoubleValue
-7.546

@<SCITEGIC>MOL_PROPERTY
VdW12
SciTegic.value.DoubleValue
8.035

@<SCITEGIC>MOL_PROPERTY
Bond
SciTegic.value.DoubleValue
0.159

@<SCITEGIC>MOL_PROPERTY
Angle
SciTegic.value.DoubleValue
3.005

@<SCITEGIC>MOL_PROPERTY
Pdih
SciTegic.value.DoubleValue
8.065

@<SCITEGIC>MOL_PROPERTY
Idih
SciTegic.value.DoubleValue
0.002

@<SCITEGIC>MOL_PROPERTY
Tether
SciTegic.value.DoubleValue
0.000

@<TRIPOS>MOLECULE
guest-s22_confgen4.mol2 : confsearch ligand conformer 160
          20          19           1
SMALL
USER_CHARGES
 
@<TRIPOS>ATOM
       1    C1      17.318973   19.636875   23.535692 C.2        1 MOL1        -0.2535
       2    H1      17.522799   19.090897   24.455355 H          1 MOL1         0.0845
       3    H2      16.286875   19.673348   23.191507 H          1 MOL1         0.0845
       4    C2      18.296865   20.237595   22.852627 C.2        1 MOL1        -0.1324
       5    H3      18.071686   20.786827   21.939154 H          1 MOL1         0.0833
       6    C3      19.749444   20.238165   23.278790 C.3        1 MOL1        -0.1813
       7    H4      19.796451   20.459514   24.353594 H          1 MOL1         0.0753
       8    H5      20.291103   21.054553   22.782756 H          1 MOL1         0.0753
       9    C4      20.470555   18.891361   23.023271 C.3        1 MOL1        -0.1855
      10    H6      21.365509   18.862249   23.659624 H          1 MOL1         0.0755
      11    H7      19.837566   18.057257   23.355723 H          1 MOL1         0.0755
      12    C5      20.926894   18.662843   21.560178 C.3        1 MOL1        -0.1855
      13    H8      21.574572   17.775475   21.536096 H          1 MOL1         0.0755
      14    H9      21.547902   19.505520   21.226590 H          1 MOL1         0.0755
      15    C6      19.765092   18.445907   20.556971 C.3        1 MOL1        -0.1958
      16    H10     19.084719   17.669251   20.926051 H          1 MOL1         0.0753
      17    H11     19.180747   19.364079   20.440418 H          1 MOL1         0.0753
      18    C7      20.250720   18.032407   19.172484 C.2        1 MOL1         0.6174
      19    O1      20.516938   18.907473   18.372312 O.co2      1 MOL1        -0.6695
      20    O2      20.369832   16.846184   18.936750 O.co2      1 MOL1        -0.6695
@<TRIPOS>BOND
    1     1     2    1
    2     1     3    1
    3     1     4    2
    4     4     5    1
    5     4     6    1
    6     6     7    1
    7     6     8    1
    8     6     9    1
    9     9    10    1
   10     9    11    1
   11     9    12    1
   12    12    13    1
   13    12    14    1
   14    12    15    1
   15    15    16    1
   16    15    17    1
   17    15    18    1
   18    18    19    1
   19    18    20    2
@<TRIPOS>SUBSTRUCTURE
       1 MOL1            1 RESIDUE      1      MOL     
@<SCITEGIC>MOL_PROPERTY
VConf Rank
SciTegic.value.IntegerValue
160

@<SCITEGIC>MOL_PROPERTY
Conf_Id
SciTegic.value.IntegerValue
91

@<SCITEGIC>MOL_PROPERTY
Delta U+W
SciTegic.value.DoubleValue
1.604

@<SCITEGIC>MOL_PROPERTY
U+W
SciTegic.value.DoubleValue
-50.141

@<SCITEGIC>MOL_PROPERTY
Grad RMS
SciTegic.value.DoubleValue
0.000000

@<SCITEGIC>MOL_PROPERTY
U
SciTegic.value.DoubleValue
10.644

@<SCITEGIC>MOL_PROPERTY
W
SciTegic.value.DoubleValue
-60.786

@<SCITEGIC>MOL_PROPERTY
W(PB)
SciTegic.value.DoubleValue
-62.965

@<SCITEGIC>MOL_PROPERTY
W(SA)
SciTegic.value.DoubleValue
2.179

@<SCITEGIC>MOL_PROPERTY
Valence
SciTegic.value.DoubleValue
11.230

@<SCITEGIC>MOL_PROPERTY
Coulomb
SciTegic.value.DoubleValue
-1.075

@<SCITEGIC>MOL_PROPERTY
VdW
SciTegic.value.DoubleValue
0.489

@<SCITEGIC>MOL_PROPERTY
VdW6
SciTegic.value.DoubleValue
-7.547

@<SCITEGIC>MOL_PROPERTY
VdW12
SciTegic.value.DoubleValue
8.036

@<SCITEGIC>MOL_PROPERTY
Bond
SciTegic.value.DoubleValue
0.159

@<SCITEGIC>MOL_PROPERTY
Angle
SciTegic.value.DoubleValue
3.006

@<SCITEGIC>MOL_PROPERTY
Pdih
SciTegic.value.DoubleValue
8.064

@<SCITEGIC>MOL_PROPERTY
Idih
SciTegic.value.DoubleValue
0.002

@<SCITEGIC>MOL_PROPERTY
Tether
SciTegic.value.DoubleValue
0.000

@<TRIPOS>MOLECULE
guest-s22_confgen4.mol2 : confsearch ligand conformer 161
          20          19           1
SMALL
USER_CHARGES
 
@<TRIPOS>ATOM
       1    C1      21.251277   19.103042   25.276756 C.2        1 MOL1        -0.2535
       2    H1      20.416153   19.732664   25.579633 H          1 MOL1         0.0845
       3    H2      22.144887   19.123050   25.898317 H          1 MOL1         0.0845
       4    C2      21.187124   18.336664   24.184877 C.2        1 MOL1        -0.1324
       5    H3      22.034671   17.714212   23.898740 H          1 MOL1         0.0833
       6    C3      19.981457   18.256406   23.275169 C.3        1 MOL1        -0.1813
       7    H4      19.103593   18.696648   23.767457 H          1 MOL1         0.0753
       8    H5      19.738609   17.203481   23.078910 H          1 MOL1         0.0753
       9    C4      20.241332   18.985203   21.940181 C.3        1 MOL1        -0.1855
      10    H6      20.487853   20.036741   22.142366 H          1 MOL1         0.0755
      11    H7      21.116630   18.541546   21.446030 H          1 MOL1         0.0755
      12    C5      19.020388   18.910475   20.997405 C.3        1 MOL1        -0.1855
      13    H8      18.144616   19.354484   21.490785 H          1 MOL1         0.0755
      14    H9      18.772578   17.859059   20.795814 H          1 MOL1         0.0755
      15    C6      19.281921   19.644204   19.655153 C.3        1 MOL1        -0.1958
      16    H10     19.523605   20.695916   19.848555 H          1 MOL1         0.0753
      17    H11     20.150996   19.201983   19.154097 H          1 MOL1         0.0753
      18    C7      18.120260   19.618705   18.660562 C.2        1 MOL1         0.6174
      19    O1      18.288292   20.181927   17.597225 O.co2      1 MOL1        -0.6695
      20    O2      17.086832   19.049531   18.955038 O.co2      1 MOL1        -0.6695
@<TRIPOS>BOND
    1     1     2    1
    2     1     3    1
    3     1     4    2
    4     4     5    1
    5     4     6    1
    6     6     7    1
    7     6     8    1
    8     6     9    1
    9     9    10    1
   10     9    11    1
   11     9    12    1
   12    12    13    1
   13    12    14    1
   14    12    15    1
   15    15    16    1
   16    15    17    1
   17    15    18    1
   18    18    19    1
   19    18    20    2
@<TRIPOS>SUBSTRUCTURE
       1 MOL1            1 RESIDUE      1      MOL     
@<SCITEGIC>MOL_PROPERTY
VConf Rank
SciTegic.value.IntegerValue
161

@<SCITEGIC>MOL_PROPERTY
Conf_Id
SciTegic.value.IntegerValue
33

@<SCITEGIC>MOL_PROPERTY
Delta U+W
SciTegic.value.DoubleValue
0.000

@<SCITEGIC>MOL_PROPERTY
U+W
SciTegic.value.DoubleValue
-51.745

@<SCITEGIC>MOL_PROPERTY
Grad RMS
SciTegic.value.DoubleValue
0.000000

@<SCITEGIC>MOL_PROPERTY
U
SciTegic.value.DoubleValue
7.593

@<SCITEGIC>MOL_PROPERTY
W
SciTegic.value.DoubleValue
-59.338

@<SCITEGIC>MOL_PROPERTY
W(PB)
SciTegic.value.DoubleValue
-61.574

@<SCITEGIC>MOL_PROPERTY
W(SA)
SciTegic.value.DoubleValue
2.236

@<SCITEGIC>MOL_PROPERTY
Valence
SciTegic.value.DoubleValue
9.570

@<SCITEGIC>MOL_PROPERTY
Coulomb
SciTegic.value.DoubleValue
-3.091

@<SCITEGIC>MOL_PROPERTY
VdW
SciTegic.value.DoubleValue
1.114

@<SCITEGIC>MOL_PROPERTY
VdW6
SciTegic.value.DoubleValue
-6.064

@<SCITEGIC>MOL_PROPERTY
VdW12
SciTegic.value.DoubleValue
7.178

@<SCITEGIC>MOL_PROPERTY
Bond
SciTegic.value.DoubleValue
0.117

@<SCITEGIC>MOL_PROPERTY
Angle
SciTegic.value.DoubleValue
2.692

@<SCITEGIC>MOL_PROPERTY
Pdih
SciTegic.value.DoubleValue
6.761

@<SCITEGIC>MOL_PROPERTY
Idih
SciTegic.value.DoubleValue
0.000

@<SCITEGIC>MOL_PROPERTY
Tether
SciTegic.value.DoubleValue
0.000

@<TRIPOS>MOLECULE
guest-s22_confgen4.mol2 : confsearch ligand conformer 162
          20          19           1
SMALL
USER_CHARGES
 
@<TRIPOS>ATOM
       1    C1      17.390430   16.628783   20.487822 C.2        1 MOL1        -0.2535
       2    H1      16.591023   17.362631   20.577230 H          1 MOL1         0.0845
       3    H2      17.108311   15.609823   20.228230 H          1 MOL1         0.0845
       4    C2      18.668100   16.960805   20.690296 C.2        1 MOL1        -0.1324
       5    H3      19.453194   16.210809   20.596672 H          1 MOL1         0.0833
       6    C3      19.135225   18.353107   21.052254 C.3        1 MOL1        -0.1813
       7    H4      18.332439   19.081278   20.873652 H          1 MOL1         0.0753
       8    H5      19.970032   18.634064   20.397876 H          1 MOL1         0.0753
       9    C4      19.574084   18.423780   22.532192 C.3        1 MOL1        -0.1855
      10    H6      18.751839   18.057832   23.162537 H          1 MOL1         0.0755
      11    H7      20.419893   17.742970   22.699820 H          1 MOL1         0.0755
      12    C5      19.954019   19.850242   22.995911 C.3        1 MOL1        -0.1855
      13    H8      20.141741   19.830347   24.078435 H          1 MOL1         0.0755
      14    H9      19.104392   20.529645   22.841191 H          1 MOL1         0.0755
      15    C6      21.208467   20.419148   22.283395 C.3        1 MOL1        -0.1958
      16    H10     22.052879   19.728507   22.394605 H          1 MOL1         0.0753
      17    H11     21.023240   20.537096   21.209839 H          1 MOL1         0.0753
      18    C7      21.632622   21.776679   22.832186 C.2        1 MOL1         0.6174
      19    O1      21.149730   22.773782   22.332878 O.co2      1 MOL1        -0.6695
      20    O2      22.419704   21.800727   23.757745 O.co2      1 MOL1        -0.6695
@<TRIPOS>BOND
    1     1     2    1
    2     1     3    1
    3     1     4    2
    4     4     5    1
    5     4     6    1
    6     6     7    1
    7     6     8    1
    8     6     9    1
    9     9    10    1
   10     9    11    1
   11     9    12    1
   12    12    13    1
   13    12    14    1
   14    12    15    1
   15    15    16    1
   16    15    17    1
   17    15    18    1
   18    18    19    1
   19    18    20    2
@<TRIPOS>SUBSTRUCTURE
       1 MOL1            1 RESIDUE      1      MOL     
@<SCITEGIC>MOL_PROPERTY
VConf Rank
SciTegic.value.IntegerValue
162

@<SCITEGIC>MOL_PROPERTY
Conf_Id
SciTegic.value.IntegerValue
37

@<SCITEGIC>MOL_PROPERTY
Delta U+W
SciTegic.value.DoubleValue
-0.384

@<SCITEGIC>MOL_PROPERTY
U+W
SciTegic.value.DoubleValue
-52.130

@<SCITEGIC>MOL_PROPERTY
Grad RMS
SciTegic.value.DoubleValue
0.000000

@<SCITEGIC>MOL_PROPERTY
U
SciTegic.value.DoubleValue
7.491

@<SCITEGIC>MOL_PROPERTY
W
SciTegic.value.DoubleValue
-59.621

@<SCITEGIC>MOL_PROPERTY
W(PB)
SciTegic.value.DoubleValue
-61.853

@<SCITEGIC>MOL_PROPERTY
W(SA)
SciTegic.value.DoubleValue
2.232

@<SCITEGIC>MOL_PROPERTY
Valence
SciTegic.value.DoubleValue
9.604

@<SCITEGIC>MOL_PROPERTY
Coulomb
SciTegic.value.DoubleValue
-2.799

@<SCITEGIC>MOL_PROPERTY
VdW
SciTegic.value.DoubleValue
0.686

@<SCITEGIC>MOL_PROPERTY
VdW6
SciTegic.value.DoubleValue
-6.435

@<SCITEGIC>MOL_PROPERTY
VdW12
SciTegic.value.DoubleValue
7.121

@<SCITEGIC>MOL_PROPERTY
Bond
SciTegic.value.DoubleValue
0.124

@<SCITEGIC>MOL_PROPERTY
Angle
SciTegic.value.DoubleValue
2.493

@<SCITEGIC>MOL_PROPERTY
Pdih
SciTegic.value.DoubleValue
6.986

@<SCITEGIC>MOL_PROPERTY
Idih
SciTegic.value.DoubleValue
0.001

@<SCITEGIC>MOL_PROPERTY
Tether
SciTegic.value.DoubleValue
0.000

@<TRIPOS>MOLECULE
guest-s22_confgen4.mol2 : confsearch ligand conformer 163
          20          19           1
SMALL
USER_CHARGES
 
@<TRIPOS>ATOM
       1    C1      17.251686   18.611547   19.750081 C.2        1 MOL1        -0.2535
       2    H1      16.418060   18.493927   19.059847 H          1 MOL1         0.0845
       3    H2      18.114875   17.968726   19.591230 H          1 MOL1         0.0845
       4    C2      17.197386   19.509691   20.740183 C.2        1 MOL1        -0.1324
       5    H3      16.304803   20.125446   20.848672 H          1 MOL1         0.0833
       6    C3      18.274653   19.786877   21.775402 C.3        1 MOL1        -0.1813
       7    H4      17.847193   19.642696   22.776713 H          1 MOL1         0.0753
       8    H5      18.550946   20.848430   21.721532 H          1 MOL1         0.0753
       9    C4      19.550475   18.923283   21.639505 C.3        1 MOL1        -0.1855
      10    H6      19.283560   17.860096   21.713509 H          1 MOL1         0.0755
      11    H7      19.994934   19.078892   20.646868 H          1 MOL1         0.0755
      12    C5      20.592345   19.266530   22.726570 C.3        1 MOL1        -0.1855
      13    H8      20.153661   19.112923   23.722346 H          1 MOL1         0.0755
      14    H9      20.863571   20.329226   22.657884 H          1 MOL1         0.0755
      15    C6      21.870864   18.403088   22.592625 C.3        1 MOL1        -0.1958
      16    H10     21.619216   17.338713   22.672514 H          1 MOL1         0.0753
      17    H11     22.329088   18.554994   21.607965 H          1 MOL1         0.0753
      18    C7      22.915589   18.723656   23.655533 C.2        1 MOL1         0.6174
      19    O1      22.871690   18.113286   24.705375 O.co2      1 MOL1        -0.6695
      20    O2      23.733465   19.589115   23.413239 O.co2      1 MOL1        -0.6695
@<TRIPOS>BOND
    1     1     2    1
    2     1     3    1
    3     1     4    2
    4     4     5    1
    5     4     6    1
    6     6     7    1
    7     6     8    1
    8     6     9    1
    9     9    10    1
   10     9    11    1
   11     9    12    1
   12    12    13    1
   13    12    14    1
   14    12    15    1
   15    15    16    1
   16    15    17    1
   17    15    18    1
   18    18    19    1
   19    18    20    2
@<TRIPOS>SUBSTRUCTURE
       1 MOL1            1 RESIDUE      1      MOL     
@<SCITEGIC>MOL_PROPERTY
VConf Rank
SciTegic.value.IntegerValue
163

@<SCITEGIC>MOL_PROPERTY
Conf_Id
SciTegic.value.IntegerValue
44

@<SCITEGIC>MOL_PROPERTY
Delta U+W
SciTegic.value.DoubleValue
-1.440

@<SCITEGIC>MOL_PROPERTY
U+W
SciTegic.value.DoubleValue
-53.185

@<SCITEGIC>MOL_PROPERTY
Grad RMS
SciTegic.value.DoubleValue
0.000000

@<SCITEGIC>MOL_PROPERTY
U
SciTegic.value.DoubleValue
6.572

@<SCITEGIC>MOL_PROPERTY
W
SciTegic.value.DoubleValue
-59.757

@<SCITEGIC>MOL_PROPERTY
W(PB)
SciTegic.value.DoubleValue
-62.007

@<SCITEGIC>MOL_PROPERTY
W(SA)
SciTegic.value.DoubleValue
2.249

@<SCITEGIC>MOL_PROPERTY
Valence
SciTegic.value.DoubleValue
7.989

@<SCITEGIC>MOL_PROPERTY
Coulomb
SciTegic.value.DoubleValue
-2.697

@<SCITEGIC>MOL_PROPERTY
VdW
SciTegic.value.DoubleValue
1.281

@<SCITEGIC>MOL_PROPERTY
VdW6
SciTegic.value.DoubleValue
-6.467

@<SCITEGIC>MOL_PROPERTY
VdW12
SciTegic.value.DoubleValue
7.748

@<SCITEGIC>MOL_PROPERTY
Bond
SciTegic.value.DoubleValue
0.136

@<SCITEGIC>MOL_PROPERTY
Angle
SciTegic.value.DoubleValue
2.854

@<SCITEGIC>MOL_PROPERTY
Pdih
SciTegic.value.DoubleValue
4.997

@<SCITEGIC>MOL_PROPERTY
Idih
SciTegic.value.DoubleValue
0.001

@<SCITEGIC>MOL_PROPERTY
Tether
SciTegic.value.DoubleValue
0.000

@<TRIPOS>MOLECULE
guest-s22_confgen4.mol2 : confsearch ligand conformer 164
          20          19           1
SMALL
USER_CHARGES
 
@<TRIPOS>ATOM
       1    C1      21.609133   16.702958   23.692363 C.2        1 MOL1        -0.2535
       2    H1      20.750612   16.092049   23.417937 H          1 MOL1         0.0845
       3    H2      22.278837   16.311479   24.456232 H          1 MOL1         0.0845
       4    C2      21.834116   17.887928   23.118826 C.2        1 MOL1        -0.1324
       5    H3      22.699211   18.484071   23.408416 H          1 MOL1         0.0833
       6    C3      20.950365   18.494911   22.051844 C.3        1 MOL1        -0.1813
       7    H4      20.283362   17.727159   21.639213 H          1 MOL1         0.0753
       8    H5      21.572475   18.854462   21.221402 H          1 MOL1         0.0753
       9    C4      20.117902   19.665974   22.620683 C.3        1 MOL1        -0.1855
      10    H6      19.455820   19.294539   23.414960 H          1 MOL1         0.0755
      11    H7      20.797121   20.387216   23.095611 H          1 MOL1         0.0755
      12    C5      19.282363   20.407278   21.549859 C.3        1 MOL1        -0.1855
      13    H8      19.944395   20.787734   20.759707 H          1 MOL1         0.0755
      14    H9      18.816354   21.287468   22.014190 H          1 MOL1         0.0755
      15    C6      18.170193   19.531396   20.916640 C.3        1 MOL1        -0.1958
      16    H10     18.606567   18.690849   20.365496 H          1 MOL1         0.0753
      17    H11     17.528609   19.109823   21.699611 H          1 MOL1         0.0753
      18    C7      17.286070   20.310340   19.949425 C.2        1 MOL1         0.6174
      19    O1      16.295374   20.857708   20.391742 O.co2      1 MOL1        -0.6695
      20    O2      17.621906   20.366006   18.782879 O.co2      1 MOL1        -0.6695
@<TRIPOS>BOND
    1     1     2    1
    2     1     3    1
    3     1     4    2
    4     4     5    1
    5     4     6    1
    6     6     7    1
    7     6     8    1
    8     6     9    1
    9     9    10    1
   10     9    11    1
   11     9    12    1
   12    12    13    1
   13    12    14    1
   14    12    15    1
   15    15    16    1
   16    15    17    1
   17    15    18    1
   18    18    19    1
   19    18    20    2
@<TRIPOS>SUBSTRUCTURE
       1 MOL1            1 RESIDUE      1      MOL     
@<SCITEGIC>MOL_PROPERTY
VConf Rank
SciTegic.value.IntegerValue
164

@<SCITEGIC>MOL_PROPERTY
Conf_Id
SciTegic.value.IntegerValue
38

@<SCITEGIC>MOL_PROPERTY
Delta U+W
SciTegic.value.DoubleValue
-0.381

@<SCITEGIC>MOL_PROPERTY
U+W
SciTegic.value.DoubleValue
-52.126

@<SCITEGIC>MOL_PROPERTY
Grad RMS
SciTegic.value.DoubleValue
0.000000

@<SCITEGIC>MOL_PROPERTY
U
SciTegic.value.DoubleValue
7.601

@<SCITEGIC>MOL_PROPERTY
W
SciTegic.value.DoubleValue
-59.727

@<SCITEGIC>MOL_PROPERTY
W(PB)
SciTegic.value.DoubleValue
-61.964

@<SCITEGIC>MOL_PROPERTY
W(SA)
SciTegic.value.DoubleValue
2.236

@<SCITEGIC>MOL_PROPERTY
Valence
SciTegic.value.DoubleValue
9.602

@<SCITEGIC>MOL_PROPERTY
Coulomb
SciTegic.value.DoubleValue
-2.686

@<SCITEGIC>MOL_PROPERTY
VdW
SciTegic.value.DoubleValue
0.685

@<SCITEGIC>MOL_PROPERTY
VdW6
SciTegic.value.DoubleValue
-6.453

@<SCITEGIC>MOL_PROPERTY
VdW12
SciTegic.value.DoubleValue
7.139

@<SCITEGIC>MOL_PROPERTY
Bond
SciTegic.value.DoubleValue
0.125

@<SCITEGIC>MOL_PROPERTY
Angle
SciTegic.value.DoubleValue
2.485

@<SCITEGIC>MOL_PROPERTY
Pdih
SciTegic.value.DoubleValue
6.991

@<SCITEGIC>MOL_PROPERTY
Idih
SciTegic.value.DoubleValue
0.001

@<SCITEGIC>MOL_PROPERTY
Tether
SciTegic.value.DoubleValue
0.000

@<TRIPOS>MOLECULE
guest-s22_confgen4.mol2 : confsearch ligand conformer 165
          20          19           1
SMALL
USER_CHARGES
 
@<TRIPOS>ATOM
       1    C1      22.734086   21.029898   21.437988 C.2        1 MOL1        -0.2535
       2    H1      22.491559   21.199077   20.390068 H          1 MOL1         0.0845
       3    H2      23.454381   21.702679   21.900383 H          1 MOL1         0.0845
       4    C2      22.170625   20.038568   22.133288 C.2        1 MOL1        -0.1324
       5    H3      22.426492   19.886939   23.181716 H          1 MOL1         0.0833
       6    C3      21.164474   19.065863   21.559570 C.3        1 MOL1        -0.1813
       7    H4      21.456804   18.039451   21.818699 H          1 MOL1         0.0753
       8    H5      21.160082   19.126091   20.462714 H          1 MOL1         0.0753
       9    C4      19.745967   19.350374   22.096136 C.3        1 MOL1        -0.1855
      10    H6      19.752596   19.287205   23.193131 H          1 MOL1         0.0755
      11    H7      19.459023   20.379416   21.839218 H          1 MOL1         0.0755
      12    C5      18.705363   18.362749   21.521617 C.3        1 MOL1        -0.1855
      13    H8      18.983753   17.333008   21.785868 H          1 MOL1         0.0755
      14    H9      18.716985   18.421798   20.424822 H          1 MOL1         0.0755
      15    C6      17.267523   18.651427   22.025777 C.3        1 MOL1        -0.1958
      16    H10     16.985127   19.685525   21.793933 H          1 MOL1         0.0753
      17    H11     16.557435   18.002774   21.499468 H          1 MOL1         0.0753
      18    C7      17.076444   18.417942   23.521719 C.2        1 MOL1         0.6174
      19    O1      17.002149   19.387216   24.251073 O.co2      1 MOL1        -0.6695
      20    O2      16.995845   17.271231   23.916252 O.co2      1 MOL1        -0.6695
@<TRIPOS>BOND
    1     1     2    1
    2     1     3    1
    3     1     4    2
    4     4     5    1
    5     4     6    1
    6     6     7    1
    7     6     8    1
    8     6     9    1
    9     9    10    1
   10     9    11    1
   11     9    12    1
   12    12    13    1
   13    12    14    1
   14    12    15    1
   15    15    16    1
   16    15    17    1
   17    15    18    1
   18    18    19    1
   19    18    20    2
@<TRIPOS>SUBSTRUCTURE
       1 MOL1            1 RESIDUE      1      MOL     
@<SCITEGIC>MOL_PROPERTY
VConf Rank
SciTegic.value.IntegerValue
165

@<SCITEGIC>MOL_PROPERTY
Conf_Id
SciTegic.value.IntegerValue
58

@<SCITEGIC>MOL_PROPERTY
Delta U+W
SciTegic.value.DoubleValue
0.019

@<SCITEGIC>MOL_PROPERTY
U+W
SciTegic.value.DoubleValue
-51.727

@<SCITEGIC>MOL_PROPERTY
Grad RMS
SciTegic.value.DoubleValue
0.000000

@<SCITEGIC>MOL_PROPERTY
U
SciTegic.value.DoubleValue
8.963

@<SCITEGIC>MOL_PROPERTY
W
SciTegic.value.DoubleValue
-60.690

@<SCITEGIC>MOL_PROPERTY
W(PB)
SciTegic.value.DoubleValue
-62.934

@<SCITEGIC>MOL_PROPERTY
W(SA)
SciTegic.value.DoubleValue
2.244

@<SCITEGIC>MOL_PROPERTY
Valence
SciTegic.value.DoubleValue
9.327

@<SCITEGIC>MOL_PROPERTY
Coulomb
SciTegic.value.DoubleValue
-0.780

@<SCITEGIC>MOL_PROPERTY
VdW
SciTegic.value.DoubleValue
0.417

@<SCITEGIC>MOL_PROPERTY
VdW6
SciTegic.value.DoubleValue
-6.635

@<SCITEGIC>MOL_PROPERTY
VdW12
SciTegic.value.DoubleValue
7.052

@<SCITEGIC>MOL_PROPERTY
Bond
SciTegic.value.DoubleValue
0.105

@<SCITEGIC>MOL_PROPERTY
Angle
SciTegic.value.DoubleValue
2.399

@<SCITEGIC>MOL_PROPERTY
Pdih
SciTegic.value.DoubleValue
6.822

@<SCITEGIC>MOL_PROPERTY
Idih
SciTegic.value.DoubleValue
0.000

@<SCITEGIC>MOL_PROPERTY
Tether
SciTegic.value.DoubleValue
0.000

@<TRIPOS>MOLECULE
guest-s22_confgen4.mol2 : confsearch ligand conformer 166
          20          19           1
SMALL
USER_CHARGES
 
@<TRIPOS>ATOM
       1    C1      16.756855   18.084626   20.482496 C.2        1 MOL1        -0.2535
       2    H1      16.141640   18.830629   20.983062 H          1 MOL1         0.0845
       3    H2      16.257076   17.193259   20.107058 H          1 MOL1         0.0845
       4    C2      18.073720   18.251275   20.334984 C.2        1 MOL1        -0.1324
       5    H3      18.671669   17.491868   19.831576 H          1 MOL1         0.0833
       6    C3      18.835785   19.460875   20.828712 C.3        1 MOL1        -0.1813
       7    H4      18.139206   20.271177   21.083522 H          1 MOL1         0.0753
       8    H5      19.482353   19.840421   20.026202 H          1 MOL1         0.0753
       9    C4      19.693996   19.113029   22.063009 C.3        1 MOL1        -0.1855
      10    H6      19.044419   18.729308   22.861808 H          1 MOL1         0.0755
      11    H7      20.391334   18.304011   21.804858 H          1 MOL1         0.0755
      12    C5      20.482149   20.338238   22.578769 C.3        1 MOL1        -0.1855
      13    H8      19.778350   21.146572   22.819281 H          1 MOL1         0.0755
      14    H9      21.140937   20.718109   21.785427 H          1 MOL1         0.0755
      15    C6      21.327833   20.016189   23.838132 C.3        1 MOL1        -0.1958
      16    H10     21.769046   20.940378   24.229519 H          1 MOL1         0.0753
      17    H11     20.687882   19.609361   24.630479 H          1 MOL1         0.0753
      18    C7      22.470480   19.037098   23.583958 C.2        1 MOL1         0.6174
      19    O1      23.460389   19.448957   23.011640 O.co2      1 MOL1        -0.6695
      20    O2      22.345968   17.892819   23.973945 O.co2      1 MOL1        -0.6695
@<TRIPOS>BOND
    1     1     2    1
    2     1     3    1
    3     1     4    2
    4     4     5    1
    5     4     6    1
    6     6     7    1
    7     6     8    1
    8     6     9    1
    9     9    10    1
   10     9    11    1
   11     9    12    1
   12    12    13    1
   13    12    14    1
   14    12    15    1
   15    15    16    1
   16    15    17    1
   17    15    18    1
   18    18    19    1
   19    18    20    2
@<TRIPOS>SUBSTRUCTURE
       1 MOL1            1 RESIDUE      1      MOL     
@<SCITEGIC>MOL_PROPERTY
VConf Rank
SciTegic.value.IntegerValue
166

@<SCITEGIC>MOL_PROPERTY
Conf_Id
SciTegic.value.IntegerValue
54

@<SCITEGIC>MOL_PROPERTY
Delta U+W
SciTegic.value.DoubleValue
-0.048

@<SCITEGIC>MOL_PROPERTY
U+W
SciTegic.value.DoubleValue
-51.793

@<SCITEGIC>MOL_PROPERTY
Grad RMS
SciTegic.value.DoubleValue
0.000000

@<SCITEGIC>MOL_PROPERTY
U
SciTegic.value.DoubleValue
8.964

@<SCITEGIC>MOL_PROPERTY
W
SciTegic.value.DoubleValue
-60.756

@<SCITEGIC>MOL_PROPERTY
W(PB)
SciTegic.value.DoubleValue
-63.007

@<SCITEGIC>MOL_PROPERTY
W(SA)
SciTegic.value.DoubleValue
2.251

@<SCITEGIC>MOL_PROPERTY
Valence
SciTegic.value.DoubleValue
9.327

@<SCITEGIC>MOL_PROPERTY
Coulomb
SciTegic.value.DoubleValue
-0.780

@<SCITEGIC>MOL_PROPERTY
VdW
SciTegic.value.DoubleValue
0.417

@<SCITEGIC>MOL_PROPERTY
VdW6
SciTegic.value.DoubleValue
-6.635

@<SCITEGIC>MOL_PROPERTY
VdW12
SciTegic.value.DoubleValue
7.052

@<SCITEGIC>MOL_PROPERTY
Bond
SciTegic.value.DoubleValue
0.105

@<SCITEGIC>MOL_PROPERTY
Angle
SciTegic.value.DoubleValue
2.399

@<SCITEGIC>MOL_PROPERTY
Pdih
SciTegic.value.DoubleValue
6.822

@<SCITEGIC>MOL_PROPERTY
Idih
SciTegic.value.DoubleValue
0.000

@<SCITEGIC>MOL_PROPERTY
Tether
SciTegic.value.DoubleValue
0.000

@<TRIPOS>MOLECULE
guest-s22_confgen4.mol2 : confsearch ligand conformer 167
          20          19           1
SMALL
USER_CHARGES
 
@<TRIPOS>ATOM
       1    C1      18.221120   16.553435   20.397467 C.2        1 MOL1        -0.2535
       2    H1      18.204510   16.224166   19.359924 H          1 MOL1         0.0845
       3    H2      18.214861   15.783893   21.167710 H          1 MOL1         0.0845
       4    C2      18.251045   17.851753   20.709147 C.2        1 MOL1        -0.1324
       5    H3      18.253276   18.605738   19.922537 H          1 MOL1         0.0833
       6    C3      18.268358   18.382754   22.126746 C.3        1 MOL1        -0.1813
       7    H4      17.903024   17.609380   22.815915 H          1 MOL1         0.0753
       8    H5      17.573854   19.228523   22.218321 H          1 MOL1         0.0753
       9    C4      19.681643   18.817683   22.575815 C.3        1 MOL1        -0.1855
      10    H6      19.650921   19.059288   23.647106 H          1 MOL1         0.0755
      11    H7      20.376034   17.973412   22.465520 H          1 MOL1         0.0755
      12    C5      20.213396   20.039786   21.789808 C.3        1 MOL1        -0.1855
      13    H8      19.511795   20.879763   21.887943 H          1 MOL1         0.0755
      14    H9      20.265155   19.793985   20.720978 H          1 MOL1         0.0755
      15    C6      21.620200   20.487306   22.265003 C.3        1 MOL1        -0.1958
      16    H10     22.324699   19.648935   22.204619 H          1 MOL1         0.0753
      17    H11     22.000248   21.269997   21.597984 H          1 MOL1         0.0753
      18    C7      21.647467   21.045719   23.684956 C.2        1 MOL1         0.6174
      19    O1      22.103170   20.348038   24.569617 O.co2      1 MOL1        -0.6695
      20    O2      21.221425   22.169408   23.866414 O.co2      1 MOL1        -0.6695
@<TRIPOS>BOND
    1     1     2    1
    2     1     3    1
    3     1     4    2
    4     4     5    1
    5     4     6    1
    6     6     7    1
    7     6     8    1
    8     6     9    1
    9     9    10    1
   10     9    11    1
   11     9    12    1
   12    12    13    1
   13    12    14    1
   14    12    15    1
   15    15    16    1
   16    15    17    1
   17    15    18    1
   18    18    19    1
   19    18    20    2
@<TRIPOS>SUBSTRUCTURE
       1 MOL1            1 RESIDUE      1      MOL     
@<SCITEGIC>MOL_PROPERTY
VConf Rank
SciTegic.value.IntegerValue
167

@<SCITEGIC>MOL_PROPERTY
Conf_Id
SciTegic.value.IntegerValue
27

@<SCITEGIC>MOL_PROPERTY
Delta U+W
SciTegic.value.DoubleValue
0.478

@<SCITEGIC>MOL_PROPERTY
U+W
SciTegic.value.DoubleValue
-51.267

@<SCITEGIC>MOL_PROPERTY
Grad RMS
SciTegic.value.DoubleValue
0.000000

@<SCITEGIC>MOL_PROPERTY
U
SciTegic.value.DoubleValue
9.192

@<SCITEGIC>MOL_PROPERTY
W
SciTegic.value.DoubleValue
-60.459

@<SCITEGIC>MOL_PROPERTY
W(PB)
SciTegic.value.DoubleValue
-62.649

@<SCITEGIC>MOL_PROPERTY
W(SA)
SciTegic.value.DoubleValue
2.190

@<SCITEGIC>MOL_PROPERTY
Valence
SciTegic.value.DoubleValue
9.572

@<SCITEGIC>MOL_PROPERTY
Coulomb
SciTegic.value.DoubleValue
-0.884

@<SCITEGIC>MOL_PROPERTY
VdW
SciTegic.value.DoubleValue
0.504

@<SCITEGIC>MOL_PROPERTY
VdW6
SciTegic.value.DoubleValue
-7.168

@<SCITEGIC>MOL_PROPERTY
VdW12
SciTegic.value.DoubleValue
7.672

@<SCITEGIC>MOL_PROPERTY
Bond
SciTegic.value.DoubleValue
0.127

@<SCITEGIC>MOL_PROPERTY
Angle
SciTegic.value.DoubleValue
2.504

@<SCITEGIC>MOL_PROPERTY
Pdih
SciTegic.value.DoubleValue
6.941

@<SCITEGIC>MOL_PROPERTY
Idih
SciTegic.value.DoubleValue
0.001

@<SCITEGIC>MOL_PROPERTY
Tether
SciTegic.value.DoubleValue
0.000

@<TRIPOS>MOLECULE
guest-s22_confgen4.mol2 : confsearch ligand conformer 168
          20          19           1
SMALL
USER_CHARGES
 
@<TRIPOS>ATOM
       1    C1      18.352796   17.947537   18.975721 C.2        1 MOL1        -0.2535
       2    H1      18.299098   16.860175   18.959370 H          1 MOL1         0.0845
       3    H2      18.470325   18.457888   18.021296 H          1 MOL1         0.0845
       4    C2      18.280966   18.632180   20.120178 C.2        1 MOL1        -0.1324
       5    H3      18.333700   19.720513   20.113612 H          1 MOL1         0.0833
       6    C3      18.111498   17.991994   21.481516 C.3        1 MOL1        -0.1813
       7    H4      17.717605   16.973239   21.365147 H          1 MOL1         0.0753
       8    H5      17.363721   18.545693   22.064875 H          1 MOL1         0.0753
       9    C4      19.439778   17.922400   22.268211 C.3        1 MOL1        -0.1855
      10    H6      19.279172   17.333944   23.181887 H          1 MOL1         0.0755
      11    H7      20.188267   17.381221   21.673067 H          1 MOL1         0.0755
      12    C5      19.984662   19.317226   22.652402 C.3        1 MOL1        -0.1855
      13    H8      19.225121   19.866990   23.225303 H          1 MOL1         0.0755
      14    H9      20.187251   19.903519   21.745815 H          1 MOL1         0.0755
      15    C6      21.283435   19.216832   23.489761 C.3        1 MOL1        -0.1958
      16    H10     21.098819   18.648395   24.409181 H          1 MOL1         0.0753
      17    H11     22.056328   18.680454   22.926251 H          1 MOL1         0.0753
      18    C7      21.842329   20.580259   23.880598 C.2        1 MOL1         0.6174
      19    O1      22.633850   21.113090   23.128105 O.co2      1 MOL1        -0.6695
      20    O2      21.457947   21.081435   24.918756 O.co2      1 MOL1        -0.6695
@<TRIPOS>BOND
    1     1     2    1
    2     1     3    1
    3     1     4    2
    4     4     5    1
    5     4     6    1
    6     6     7    1
    7     6     8    1
    8     6     9    1
    9     9    10    1
   10     9    11    1
   11     9    12    1
   12    12    13    1
   13    12    14    1
   14    12    15    1
   15    15    16    1
   16    15    17    1
   17    15    18    1
   18    18    19    1
   19    18    20    2
@<TRIPOS>SUBSTRUCTURE
       1 MOL1            1 RESIDUE      1      MOL     
@<SCITEGIC>MOL_PROPERTY
VConf Rank
SciTegic.value.IntegerValue
168

@<SCITEGIC>MOL_PROPERTY
Conf_Id
SciTegic.value.IntegerValue
41

@<SCITEGIC>MOL_PROPERTY
Delta U+W
SciTegic.value.DoubleValue
-0.634

@<SCITEGIC>MOL_PROPERTY
U+W
SciTegic.value.DoubleValue
-52.379

@<SCITEGIC>MOL_PROPERTY
Grad RMS
SciTegic.value.DoubleValue
0.000000

@<SCITEGIC>MOL_PROPERTY
U
SciTegic.value.DoubleValue
7.828

@<SCITEGIC>MOL_PROPERTY
W
SciTegic.value.DoubleValue
-60.207

@<SCITEGIC>MOL_PROPERTY
W(PB)
SciTegic.value.DoubleValue
-62.449

@<SCITEGIC>MOL_PROPERTY
W(SA)
SciTegic.value.DoubleValue
2.242

@<SCITEGIC>MOL_PROPERTY
Valence
SciTegic.value.DoubleValue
9.300

@<SCITEGIC>MOL_PROPERTY
Coulomb
SciTegic.value.DoubleValue
-2.080

@<SCITEGIC>MOL_PROPERTY
VdW
SciTegic.value.DoubleValue
0.608

@<SCITEGIC>MOL_PROPERTY
VdW6
SciTegic.value.DoubleValue
-6.341

@<SCITEGIC>MOL_PROPERTY
VdW12
SciTegic.value.DoubleValue
6.949

@<SCITEGIC>MOL_PROPERTY
Bond
SciTegic.value.DoubleValue
0.103

@<SCITEGIC>MOL_PROPERTY
Angle
SciTegic.value.DoubleValue
2.334

@<SCITEGIC>MOL_PROPERTY
Pdih
SciTegic.value.DoubleValue
6.862

@<SCITEGIC>MOL_PROPERTY
Idih
SciTegic.value.DoubleValue
0.001

@<SCITEGIC>MOL_PROPERTY
Tether
SciTegic.value.DoubleValue
0.000

@<TRIPOS>MOLECULE
guest-s22_confgen4.mol2 : confsearch ligand conformer 169
          20          19           1
SMALL
USER_CHARGES
 
@<TRIPOS>ATOM
       1    C1      17.781384   16.574989   20.736704 C.2        1 MOL1        -0.2535
       2    H1      17.661813   15.594869   20.278111 H          1 MOL1         0.0845
       3    H2      16.890723   17.048277   21.146916 H          1 MOL1         0.0845
       4    C2      18.976167   17.169084   20.793794 C.2        1 MOL1        -0.1324
       5    H3      19.855795   16.678249   20.377860 H          1 MOL1         0.0833
       6    C3      19.219188   18.527474   21.412920 C.3        1 MOL1        -0.1813
       7    H4      18.266082   19.051053   21.567280 H          1 MOL1         0.0753
       8    H5      19.810371   19.138420   20.718513 H          1 MOL1         0.0753
       9    C4      19.961194   18.397566   22.761893 C.3        1 MOL1        -0.1855
      10    H6      19.405260   17.703218   23.406857 H          1 MOL1         0.0755
      11    H7      20.947267   17.942045   22.596309 H          1 MOL1         0.0755
      12    C5      20.123449   19.743216   23.510952 C.3        1 MOL1        -0.1855
      13    H8      20.588130   19.550305   24.487806 H          1 MOL1         0.0755
      14    H9      19.130162   20.162586   23.720516 H          1 MOL1         0.0755
      15    C6      20.973419   20.800743   22.754905 C.3        1 MOL1        -0.1958
      16    H10     20.498009   21.073118   21.805799 H          1 MOL1         0.0753
      17    H11     21.023735   21.719300   23.351083 H          1 MOL1         0.0753
      18    C7      22.408063   20.362450   22.474845 C.2        1 MOL1         0.6174
      19    O1      23.182841   20.308283   23.409827 O.co2      1 MOL1        -0.6695
      20    O2      22.718150   20.104332   21.328471 O.co2      1 MOL1        -0.6695
@<TRIPOS>BOND
    1     1     2    1
    2     1     3    1
    3     1     4    2
    4     4     5    1
    5     4     6    1
    6     6     7    1
    7     6     8    1
    8     6     9    1
    9     9    10    1
   10     9    11    1
   11     9    12    1
   12    12    13    1
   13    12    14    1
   14    12    15    1
   15    15    16    1
   16    15    17    1
   17    15    18    1
   18    18    19    1
   19    18    20    2
@<TRIPOS>SUBSTRUCTURE
       1 MOL1            1 RESIDUE      1      MOL     
@<SCITEGIC>MOL_PROPERTY
VConf Rank
SciTegic.value.IntegerValue
169

@<SCITEGIC>MOL_PROPERTY
Conf_Id
SciTegic.value.IntegerValue
84

@<SCITEGIC>MOL_PROPERTY
Delta U+W
SciTegic.value.DoubleValue
0.942

@<SCITEGIC>MOL_PROPERTY
U+W
SciTegic.value.DoubleValue
-50.803

@<SCITEGIC>MOL_PROPERTY
Grad RMS
SciTegic.value.DoubleValue
0.000000

@<SCITEGIC>MOL_PROPERTY
U
SciTegic.value.DoubleValue
10.196

@<SCITEGIC>MOL_PROPERTY
W
SciTegic.value.DoubleValue
-60.999

@<SCITEGIC>MOL_PROPERTY
W(PB)
SciTegic.value.DoubleValue
-63.182

@<SCITEGIC>MOL_PROPERTY
W(SA)
SciTegic.value.DoubleValue
2.182

@<SCITEGIC>MOL_PROPERTY
Valence
SciTegic.value.DoubleValue
9.837

@<SCITEGIC>MOL_PROPERTY
Coulomb
SciTegic.value.DoubleValue
0.032

@<SCITEGIC>MOL_PROPERTY
VdW
SciTegic.value.DoubleValue
0.328

@<SCITEGIC>MOL_PROPERTY
VdW6
SciTegic.value.DoubleValue
-7.642

@<SCITEGIC>MOL_PROPERTY
VdW12
SciTegic.value.DoubleValue
7.969

@<SCITEGIC>MOL_PROPERTY
Bond
SciTegic.value.DoubleValue
0.151

@<SCITEGIC>MOL_PROPERTY
Angle
SciTegic.value.DoubleValue
2.748

@<SCITEGIC>MOL_PROPERTY
Pdih
SciTegic.value.DoubleValue
6.937

@<SCITEGIC>MOL_PROPERTY
Idih
SciTegic.value.DoubleValue
0.001

@<SCITEGIC>MOL_PROPERTY
Tether
SciTegic.value.DoubleValue
0.000

@<TRIPOS>MOLECULE
guest-s22_confgen4.mol2 : confsearch ligand conformer 170
          20          19           1
SMALL
USER_CHARGES
 
@<TRIPOS>ATOM
       1    C1      16.385887   18.134643   22.588059 C.2        1 MOL1        -0.2535
       2    H1      15.634355   17.392071   22.325289 H          1 MOL1         0.0845
       3    H2      16.519750   18.359694   23.644948 H          1 MOL1         0.0845
       4    C2      17.114695   18.741574   21.647774 C.2        1 MOL1        -0.1324
       5    H3      16.965617   18.501229   20.595326 H          1 MOL1         0.0833
       6    C3      18.174065   19.781859   21.936233 C.3        1 MOL1        -0.1813
       7    H4      18.079467   20.144834   22.968749 H          1 MOL1         0.0753
       8    H5      18.024044   20.650230   21.280865 H          1 MOL1         0.0753
       9    C4      19.590716   19.209227   21.721166 C.3        1 MOL1        -0.1855
      10    H6      19.731540   18.337282   22.375046 H          1 MOL1         0.0755
      11    H7      19.687418   18.849720   20.687506 H          1 MOL1         0.0755
      12    C5      20.685491   20.261440   22.008655 C.3        1 MOL1        -0.1855
      13    H8      20.600503   20.612989   23.046394 H          1 MOL1         0.0755
      14    H9      20.525115   21.136484   21.364334 H          1 MOL1         0.0755
      15    C6      22.116422   19.714528   21.767391 C.3        1 MOL1        -0.1958
      16    H10     22.209134   19.334539   20.742762 H          1 MOL1         0.0753
      17    H11     22.842480   20.529480   21.870680 H          1 MOL1         0.0753
      18    C7      22.529684   18.609933   22.735884 C.2        1 MOL1         0.6174
      19    O1      22.554112   17.465512   22.327625 O.co2      1 MOL1        -0.6695
      20    O2      22.829078   18.926142   23.870557 O.co2      1 MOL1        -0.6695
@<TRIPOS>BOND
    1     1     2    1
    2     1     3    1
    3     1     4    2
    4     4     5    1
    5     4     6    1
    6     6     7    1
    7     6     8    1
    8     6     9    1
    9     9    10    1
   10     9    11    1
   11     9    12    1
   12    12    13    1
   13    12    14    1
   14    12    15    1
   15    15    16    1
   16    15    17    1
   17    15    18    1
   18    18    19    1
   19    18    20    2
@<TRIPOS>SUBSTRUCTURE
       1 MOL1            1 RESIDUE      1      MOL     
@<SCITEGIC>MOL_PROPERTY
VConf Rank
SciTegic.value.IntegerValue
170

@<SCITEGIC>MOL_PROPERTY
Conf_Id
SciTegic.value.IntegerValue
81

@<SCITEGIC>MOL_PROPERTY
Delta U+W
SciTegic.value.DoubleValue
-0.051

@<SCITEGIC>MOL_PROPERTY
U+W
SciTegic.value.DoubleValue
-51.796

@<SCITEGIC>MOL_PROPERTY
Grad RMS
SciTegic.value.DoubleValue
0.000000

@<SCITEGIC>MOL_PROPERTY
U
SciTegic.value.DoubleValue
9.412

@<SCITEGIC>MOL_PROPERTY
W
SciTegic.value.DoubleValue
-61.209

@<SCITEGIC>MOL_PROPERTY
W(PB)
SciTegic.value.DoubleValue
-63.452

@<SCITEGIC>MOL_PROPERTY
W(SA)
SciTegic.value.DoubleValue
2.243

@<SCITEGIC>MOL_PROPERTY
Valence
SciTegic.value.DoubleValue
9.329

@<SCITEGIC>MOL_PROPERTY
Coulomb
SciTegic.value.DoubleValue
-0.323

@<SCITEGIC>MOL_PROPERTY
VdW
SciTegic.value.DoubleValue
0.406

@<SCITEGIC>MOL_PROPERTY
VdW6
SciTegic.value.DoubleValue
-6.640

@<SCITEGIC>MOL_PROPERTY
VdW12
SciTegic.value.DoubleValue
7.046

@<SCITEGIC>MOL_PROPERTY
Bond
SciTegic.value.DoubleValue
0.105

@<SCITEGIC>MOL_PROPERTY
Angle
SciTegic.value.DoubleValue
2.401

@<SCITEGIC>MOL_PROPERTY
Pdih
SciTegic.value.DoubleValue
6.823

@<SCITEGIC>MOL_PROPERTY
Idih
SciTegic.value.DoubleValue
0.000

@<SCITEGIC>MOL_PROPERTY
Tether
SciTegic.value.DoubleValue
0.000

@<TRIPOS>MOLECULE
guest-s22_confgen4.mol2 : confsearch ligand conformer 171
          20          19           1
SMALL
USER_CHARGES
 
@<TRIPOS>ATOM
       1    C1      22.859363   18.794443   21.714978 C.2        1 MOL1        -0.2535
       2    H1      23.162563   17.905383   22.265525 H          1 MOL1         0.0845
       3    H2      23.571677   19.211713   21.005302 H          1 MOL1         0.0845
       4    C2      21.660005   19.352736   21.898083 C.2        1 MOL1        -0.1324
       5    H3      21.377031   20.243868   21.338588 H          1 MOL1         0.0833
       6    C3      20.621768   18.832789   22.869290 C.3        1 MOL1        -0.1813
       7    H4      20.188135   19.665218   23.438463 H          1 MOL1         0.0753
       8    H5      21.102513   18.181465   23.611500 H          1 MOL1         0.0753
       9    C4      19.502020   18.030495   22.164169 C.3        1 MOL1        -0.1855
      10    H6      19.949304   17.154837   21.674276 H          1 MOL1         0.0755
      11    H7      18.814414   17.635436   22.924496 H          1 MOL1         0.0755
      12    C5      18.693959   18.832810   21.111830 C.3        1 MOL1        -0.1855
      13    H8      17.949163   18.165501   20.656680 H          1 MOL1         0.0755
      14    H9      19.360933   19.143669   20.296840 H          1 MOL1         0.0755
      15    C6      17.963793   20.081450   21.677465 C.3        1 MOL1        -0.1958
      16    H10     18.685793   20.805003   22.072722 H          1 MOL1         0.0753
      17    H11     17.429618   20.588362   20.865489 H          1 MOL1         0.0753
      18    C7      16.942085   19.765586   22.765990 C.2        1 MOL1         0.6174
      19    O1      17.203683   20.079454   23.910604 O.co2      1 MOL1        -0.6695
      20    O2      15.902408   19.228821   22.436727 O.co2      1 MOL1        -0.6695
@<TRIPOS>BOND
    1     1     2    1
    2     1     3    1
    3     1     4    2
    4     4     5    1
    5     4     6    1
    6     6     7    1
    7     6     8    1
    8     6     9    1
    9     9    10    1
   10     9    11    1
   11     9    12    1
   12    12    13    1
   13    12    14    1
   14    12    15    1
   15    15    16    1
   16    15    17    1
   17    15    18    1
   18    18    19    1
   19    18    20    2
@<TRIPOS>SUBSTRUCTURE
       1 MOL1            1 RESIDUE      1      MOL     
@<SCITEGIC>MOL_PROPERTY
VConf Rank
SciTegic.value.IntegerValue
171

@<SCITEGIC>MOL_PROPERTY
Conf_Id
SciTegic.value.IntegerValue
86

@<SCITEGIC>MOL_PROPERTY
Delta U+W
SciTegic.value.DoubleValue
1.248

@<SCITEGIC>MOL_PROPERTY
U+W
SciTegic.value.DoubleValue
-50.498

@<SCITEGIC>MOL_PROPERTY
Grad RMS
SciTegic.value.DoubleValue
0.000000

@<SCITEGIC>MOL_PROPERTY
U
SciTegic.value.DoubleValue
10.404

@<SCITEGIC>MOL_PROPERTY
W
SciTegic.value.DoubleValue
-60.901

@<SCITEGIC>MOL_PROPERTY
W(PB)
SciTegic.value.DoubleValue
-63.061

@<SCITEGIC>MOL_PROPERTY
W(SA)
SciTegic.value.DoubleValue
2.159

@<SCITEGIC>MOL_PROPERTY
Valence
SciTegic.value.DoubleValue
10.021

@<SCITEGIC>MOL_PROPERTY
Coulomb
SciTegic.value.DoubleValue
0.094

@<SCITEGIC>MOL_PROPERTY
VdW
SciTegic.value.DoubleValue
0.289

@<SCITEGIC>MOL_PROPERTY
VdW6
SciTegic.value.DoubleValue
-8.409

@<SCITEGIC>MOL_PROPERTY
VdW12
SciTegic.value.DoubleValue
8.698

@<SCITEGIC>MOL_PROPERTY
Bond
SciTegic.value.DoubleValue
0.179

@<SCITEGIC>MOL_PROPERTY
Angle
SciTegic.value.DoubleValue
2.939

@<SCITEGIC>MOL_PROPERTY
Pdih
SciTegic.value.DoubleValue
6.902

@<SCITEGIC>MOL_PROPERTY
Idih
SciTegic.value.DoubleValue
0.001

@<SCITEGIC>MOL_PROPERTY
Tether
SciTegic.value.DoubleValue
0.000

@<TRIPOS>MOLECULE
guest-s22_confgen4.mol2 : confsearch ligand conformer 172
          20          19           1
SMALL
USER_CHARGES
 
@<TRIPOS>ATOM
       1    C1      22.760626   18.139963   21.557278 C.2        1 MOL1        -0.2535
       2    H1      23.753018   18.357272   21.948480 H          1 MOL1         0.0845
       3    H2      22.413269   17.109751   21.615842 H          1 MOL1         0.0845
       4    C2      22.000320   19.103253   21.029991 C.2        1 MOL1        -0.1324
       5    H3      22.365945   20.128674   20.982871 H          1 MOL1         0.0833
       6    C3      20.612817   18.878154   20.467658 C.3        1 MOL1        -0.1813
       7    H4      20.405165   17.804082   20.368101 H          1 MOL1         0.0753
       8    H5      20.564291   19.298079   19.454184 H          1 MOL1         0.0753
       9    C4      19.515158   19.537359   21.332905 C.3        1 MOL1        -0.1855
      10    H6      19.724220   20.610923   21.436234 H          1 MOL1         0.0755
      11    H7      18.554457   19.455050   20.806321 H          1 MOL1         0.0755
      12    C5      19.389978   18.890754   22.732844 C.3        1 MOL1        -0.1855
      13    H8      20.347719   18.978398   23.263051 H          1 MOL1         0.0755
      14    H9      19.184670   17.816309   22.629074 H          1 MOL1         0.0755
      15    C6      18.280067   19.545793   23.595430 C.3        1 MOL1        -0.1958
      16    H10     18.316556   19.136143   24.611696 H          1 MOL1         0.0753
      17    H11     18.454871   20.625053   23.681563 H          1 MOL1         0.0753
      18    C7      16.867366   19.321670   23.063670 C.2        1 MOL1         0.6174
      19    O1      16.357912   18.231401   23.233667 O.co2      1 MOL1        -0.6695
      20    O2      16.309282   20.245077   22.504252 O.co2      1 MOL1        -0.6695
@<TRIPOS>BOND
    1     1     2    1
    2     1     3    1
    3     1     4    2
    4     4     5    1
    5     4     6    1
    6     6     7    1
    7     6     8    1
    8     6     9    1
    9     9    10    1
   10     9    11    1
   11     9    12    1
   12    12    13    1
   13    12    14    1
   14    12    15    1
   15    15    16    1
   16    15    17    1
   17    15    18    1
   18    18    19    1
   19    18    20    2
@<TRIPOS>SUBSTRUCTURE
       1 MOL1            1 RESIDUE      1      MOL     
@<SCITEGIC>MOL_PROPERTY
VConf Rank
SciTegic.value.IntegerValue
172

@<SCITEGIC>MOL_PROPERTY
Conf_Id
SciTegic.value.IntegerValue
28

@<SCITEGIC>MOL_PROPERTY
Delta U+W
SciTegic.value.DoubleValue
0.446

@<SCITEGIC>MOL_PROPERTY
U+W
SciTegic.value.DoubleValue
-51.299

@<SCITEGIC>MOL_PROPERTY
Grad RMS
SciTegic.value.DoubleValue
0.000000

@<SCITEGIC>MOL_PROPERTY
U
SciTegic.value.DoubleValue
9.295

@<SCITEGIC>MOL_PROPERTY
W
SciTegic.value.DoubleValue
-60.594

@<SCITEGIC>MOL_PROPERTY
W(PB)
SciTegic.value.DoubleValue
-62.806

@<SCITEGIC>MOL_PROPERTY
W(SA)
SciTegic.value.DoubleValue
2.212

@<SCITEGIC>MOL_PROPERTY
Valence
SciTegic.value.DoubleValue
9.495

@<SCITEGIC>MOL_PROPERTY
Coulomb
SciTegic.value.DoubleValue
-0.610

@<SCITEGIC>MOL_PROPERTY
VdW
SciTegic.value.DoubleValue
0.409

@<SCITEGIC>MOL_PROPERTY
VdW6
SciTegic.value.DoubleValue
-7.332

@<SCITEGIC>MOL_PROPERTY
VdW12
SciTegic.value.DoubleValue
7.741

@<SCITEGIC>MOL_PROPERTY
Bond
SciTegic.value.DoubleValue
0.126

@<SCITEGIC>MOL_PROPERTY
Angle
SciTegic.value.DoubleValue
2.497

@<SCITEGIC>MOL_PROPERTY
Pdih
SciTegic.value.DoubleValue
6.872

@<SCITEGIC>MOL_PROPERTY
Idih
SciTegic.value.DoubleValue
0.000

@<SCITEGIC>MOL_PROPERTY
Tether
SciTegic.value.DoubleValue
0.000

@<TRIPOS>MOLECULE
guest-s22_confgen4.mol2 : confsearch ligand conformer 173
          20          19           1
SMALL
USER_CHARGES
 
@<TRIPOS>ATOM
       1    C1      19.943867   19.092470   19.026783 C.2        1 MOL1        -0.2535
       2    H1      19.551691   18.143819   19.386997 H          1 MOL1         0.0845
       3    H2      19.926084   19.254490   17.950412 H          1 MOL1         0.0845
       4    C2      20.425777   20.029721   19.850979 C.2        1 MOL1        -0.1324
       5    H3      20.803008   20.961634   19.430533 H          1 MOL1         0.0833
       6    C3      20.517332   19.948341   21.365723 C.3        1 MOL1        -0.1813
       7    H4      19.900902   20.749505   21.793287 H          1 MOL1         0.0753
       8    H5      21.549400   20.170857   21.667510 H          1 MOL1         0.0753
       9    C4      20.097464   18.587040   21.973317 C.3        1 MOL1        -0.1855
      10    H6      19.038401   18.395206   21.752507 H          1 MOL1         0.0755
      11    H7      20.670400   17.786103   21.486556 H          1 MOL1         0.0755
      12    C5      20.335930   18.492713   23.500831 C.3        1 MOL1        -0.1855
      13    H8      21.404711   18.635694   23.709760 H          1 MOL1         0.0755
      14    H9      20.091557   17.474513   23.833935 H          1 MOL1         0.0755
      15    C6      19.512459   19.503292   24.345393 C.3        1 MOL1        -0.1958
      16    H10     19.753946   19.370313   25.406363 H          1 MOL1         0.0753
      17    H11     19.786536   20.533723   24.092431 H          1 MOL1         0.0753
      18    C7      18.000839   19.349984   24.202544 C.2        1 MOL1         0.6174
      19    O1      17.475525   18.370827   24.695240 O.co2      1 MOL1        -0.6695
      20    O2      17.385875   20.222498   23.621687 O.co2      1 MOL1        -0.6695
@<TRIPOS>BOND
    1     1     2    1
    2     1     3    1
    3     1     4    2
    4     4     5    1
    5     4     6    1
    6     6     7    1
    7     6     8    1
    8     6     9    1
    9     9    10    1
   10     9    11    1
   11     9    12    1
   12    12    13    1
   13    12    14    1
   14    12    15    1
   15    15    16    1
   16    15    17    1
   17    15    18    1
   18    18    19    1
   19    18    20    2
@<TRIPOS>SUBSTRUCTURE
       1 MOL1            1 RESIDUE      1      MOL     
@<SCITEGIC>MOL_PROPERTY
VConf Rank
SciTegic.value.IntegerValue
173

@<SCITEGIC>MOL_PROPERTY
Conf_Id
SciTegic.value.IntegerValue
53

@<SCITEGIC>MOL_PROPERTY
Delta U+W
SciTegic.value.DoubleValue
0.549

@<SCITEGIC>MOL_PROPERTY
U+W
SciTegic.value.DoubleValue
-51.197

@<SCITEGIC>MOL_PROPERTY
Grad RMS
SciTegic.value.DoubleValue
0.000000

@<SCITEGIC>MOL_PROPERTY
U
SciTegic.value.DoubleValue
10.870

@<SCITEGIC>MOL_PROPERTY
W
SciTegic.value.DoubleValue
-62.067

@<SCITEGIC>MOL_PROPERTY
W(PB)
SciTegic.value.DoubleValue
-64.228

@<SCITEGIC>MOL_PROPERTY
W(SA)
SciTegic.value.DoubleValue
2.161

@<SCITEGIC>MOL_PROPERTY
Valence
SciTegic.value.DoubleValue
8.803

@<SCITEGIC>MOL_PROPERTY
Coulomb
SciTegic.value.DoubleValue
1.020

@<SCITEGIC>MOL_PROPERTY
VdW
SciTegic.value.DoubleValue
1.048

@<SCITEGIC>MOL_PROPERTY
VdW6
SciTegic.value.DoubleValue
-8.312

@<SCITEGIC>MOL_PROPERTY
VdW12
SciTegic.value.DoubleValue
9.360

@<SCITEGIC>MOL_PROPERTY
Bond
SciTegic.value.DoubleValue
0.212

@<SCITEGIC>MOL_PROPERTY
Angle
SciTegic.value.DoubleValue
3.379

@<SCITEGIC>MOL_PROPERTY
Pdih
SciTegic.value.DoubleValue
5.211

@<SCITEGIC>MOL_PROPERTY
Idih
SciTegic.value.DoubleValue
0.001

@<SCITEGIC>MOL_PROPERTY
Tether
SciTegic.value.DoubleValue
0.000

@<TRIPOS>MOLECULE
guest-s22_confgen4.mol2 : confsearch ligand conformer 174
          20          19           1
SMALL
USER_CHARGES
 
@<TRIPOS>ATOM
       1    C1      20.623363   16.783536   20.431097 C.2        1 MOL1        -0.2535
       2    H1      21.537074   17.029505   20.967687 H          1 MOL1         0.0845
       3    H2      20.734225   16.365211   19.432279 H          1 MOL1         0.0845
       4    C2      19.411516   16.974690   20.963586 C.2        1 MOL1        -0.1324
       5    H3      18.527880   16.708426   20.384283 H          1 MOL1         0.0833
       6    C3      19.110597   17.552333   22.336782 C.3        1 MOL1        -0.1813
       7    H4      18.913239   16.724961   23.030976 H          1 MOL1         0.0753
       8    H5      18.166006   18.109295   22.290712 H          1 MOL1         0.0753
       9    C4      20.204134   18.473034   22.938662 C.3        1 MOL1        -0.1855
      10    H6      19.898628   18.760806   23.953891 H          1 MOL1         0.0755
      11    H7      21.134247   17.902861   23.061613 H          1 MOL1         0.0755
      12    C5      20.494982   19.758092   22.119583 C.3        1 MOL1        -0.1855
      13    H8      20.871633   19.485146   21.125506 H          1 MOL1         0.0755
      14    H9      21.306591   20.311966   22.611043 H          1 MOL1         0.0755
      15    C6      19.275929   20.706070   21.953550 C.3        1 MOL1        -0.1958
      16    H10     19.573623   21.578893   21.360993 H          1 MOL1         0.0753
      17    H11     18.475356   20.210215   21.393003 H          1 MOL1         0.0753
      18    C7      18.704217   21.224270   23.270000 C.2        1 MOL1         0.6174
      19    O1      17.627563   20.797540   23.638612 O.co2      1 MOL1        -0.6695
      20    O2      19.343762   22.055942   23.883850 O.co2      1 MOL1        -0.6695
@<TRIPOS>BOND
    1     1     2    1
    2     1     3    1
    3     1     4    2
    4     4     5    1
    5     4     6    1
    6     6     7    1
    7     6     8    1
    8     6     9    1
    9     9    10    1
   10     9    11    1
   11     9    12    1
   12    12    13    1
   13    12    14    1
   14    12    15    1
   15    15    16    1
   16    15    17    1
   17    15    18    1
   18    18    19    1
   19    18    20    2
@<TRIPOS>SUBSTRUCTURE
       1 MOL1            1 RESIDUE      1      MOL     
@<SCITEGIC>MOL_PROPERTY
VConf Rank
SciTegic.value.IntegerValue
174

@<SCITEGIC>MOL_PROPERTY
Conf_Id
SciTegic.value.IntegerValue
66

@<SCITEGIC>MOL_PROPERTY
Delta U+W
SciTegic.value.DoubleValue
1.737

@<SCITEGIC>MOL_PROPERTY
U+W
SciTegic.value.DoubleValue
-50.008

@<SCITEGIC>MOL_PROPERTY
Grad RMS
SciTegic.value.DoubleValue
0.000000

@<SCITEGIC>MOL_PROPERTY
U
SciTegic.value.DoubleValue
11.091

@<SCITEGIC>MOL_PROPERTY
W
SciTegic.value.DoubleValue
-61.099

@<SCITEGIC>MOL_PROPERTY
W(PB)
SciTegic.value.DoubleValue
-63.213

@<SCITEGIC>MOL_PROPERTY
W(SA)
SciTegic.value.DoubleValue
2.114

@<SCITEGIC>MOL_PROPERTY
Valence
SciTegic.value.DoubleValue
9.664

@<SCITEGIC>MOL_PROPERTY
Coulomb
SciTegic.value.DoubleValue
0.658

@<SCITEGIC>MOL_PROPERTY
VdW
SciTegic.value.DoubleValue
0.769

@<SCITEGIC>MOL_PROPERTY
VdW6
SciTegic.value.DoubleValue
-9.171

@<SCITEGIC>MOL_PROPERTY
VdW12
SciTegic.value.DoubleValue
9.940

@<SCITEGIC>MOL_PROPERTY
Bond
SciTegic.value.DoubleValue
0.244

@<SCITEGIC>MOL_PROPERTY
Angle
SciTegic.value.DoubleValue
3.658

@<SCITEGIC>MOL_PROPERTY
Pdih
SciTegic.value.DoubleValue
5.762

@<SCITEGIC>MOL_PROPERTY
Idih
SciTegic.value.DoubleValue
0.001

@<SCITEGIC>MOL_PROPERTY
Tether
SciTegic.value.DoubleValue
0.000

@<TRIPOS>MOLECULE
guest-s22_confgen4.mol2 : confsearch ligand conformer 175
          20          19           1
SMALL
USER_CHARGES
 
@<TRIPOS>ATOM
       1    C1      19.967540   21.185525   23.601059 C.2        1 MOL1        -0.2535
       2    H1      20.818808   20.555681   23.849703 H          1 MOL1         0.0845
       3    H2      20.127411   22.262077   23.621392 H          1 MOL1         0.0845
       4    C2      18.770970   20.676451   23.288101 C.2        1 MOL1        -0.1324
       5    H3      17.951601   21.354004   23.049572 H          1 MOL1         0.0833
       6    C3      18.406083   19.202659   23.214655 C.3        1 MOL1        -0.1813
       7    H4      17.669511   19.058660   22.414420 H          1 MOL1         0.0753
       8    H5      17.876426   18.926865   24.136058 H          1 MOL1         0.0753
       9    C4      19.587290   18.221578   22.994321 C.3        1 MOL1        -0.1855
      10    H6      20.301189   18.318636   23.822827 H          1 MOL1         0.0755
      11    H7      19.205620   17.193141   23.051537 H          1 MOL1         0.0755
      12    C5      20.334719   18.399382   21.648053 C.3        1 MOL1        -0.1855
      13    H8      21.196814   17.718369   21.634119 H          1 MOL1         0.0755
      14    H9      20.744724   19.415150   21.572499 H          1 MOL1         0.0755
      15    C6      19.452404   18.109030   20.406226 C.3        1 MOL1        -0.1958
      16    H10     18.994146   17.116512   20.490241 H          1 MOL1         0.0753
      17    H11     18.638890   18.839573   20.333128 H          1 MOL1         0.0753
      18    C7      20.238026   18.156883   19.100564 C.2        1 MOL1         0.6174
      19    O1      20.297780   19.213734   18.503698 O.co2      1 MOL1        -0.6695
      20    O2      20.782144   17.138470   18.721483 O.co2      1 MOL1        -0.6695
@<TRIPOS>BOND
    1     1     2    1
    2     1     3    1
    3     1     4    2
    4     4     5    1
    5     4     6    1
    6     6     7    1
    7     6     8    1
    8     6     9    1
    9     9    10    1
   10     9    11    1
   11     9    12    1
   12    12    13    1
   13    12    14    1
   14    12    15    1
   15    15    16    1
   16    15    17    1
   17    15    18    1
   18    18    19    1
   19    18    20    2
@<TRIPOS>SUBSTRUCTURE
       1 MOL1            1 RESIDUE      1      MOL     
@<SCITEGIC>MOL_PROPERTY
VConf Rank
SciTegic.value.IntegerValue
175

@<SCITEGIC>MOL_PROPERTY
Conf_Id
SciTegic.value.IntegerValue
64

@<SCITEGIC>MOL_PROPERTY
Delta U+W
SciTegic.value.DoubleValue
0.366

@<SCITEGIC>MOL_PROPERTY
U+W
SciTegic.value.DoubleValue
-51.379

@<SCITEGIC>MOL_PROPERTY
Grad RMS
SciTegic.value.DoubleValue
0.000000

@<SCITEGIC>MOL_PROPERTY
U
SciTegic.value.DoubleValue
10.000

@<SCITEGIC>MOL_PROPERTY
W
SciTegic.value.DoubleValue
-61.379

@<SCITEGIC>MOL_PROPERTY
W(PB)
SciTegic.value.DoubleValue
-63.541

@<SCITEGIC>MOL_PROPERTY
W(SA)
SciTegic.value.DoubleValue
2.162

@<SCITEGIC>MOL_PROPERTY
Valence
SciTegic.value.DoubleValue
9.398

@<SCITEGIC>MOL_PROPERTY
Coulomb
SciTegic.value.DoubleValue
-0.504

@<SCITEGIC>MOL_PROPERTY
VdW
SciTegic.value.DoubleValue
1.105

@<SCITEGIC>MOL_PROPERTY
VdW6
SciTegic.value.DoubleValue
-7.975

@<SCITEGIC>MOL_PROPERTY
VdW12
SciTegic.value.DoubleValue
9.080

@<SCITEGIC>MOL_PROPERTY
Bond
SciTegic.value.DoubleValue
0.216

@<SCITEGIC>MOL_PROPERTY
Angle
SciTegic.value.DoubleValue
3.417

@<SCITEGIC>MOL_PROPERTY
Pdih
SciTegic.value.DoubleValue
5.765

@<SCITEGIC>MOL_PROPERTY
Idih
SciTegic.value.DoubleValue
0.001

@<SCITEGIC>MOL_PROPERTY
Tether
SciTegic.value.DoubleValue
0.000

@<TRIPOS>MOLECULE
guest-s22_confgen4.mol2 : confsearch ligand conformer 176
          20          19           1
SMALL
USER_CHARGES
 
@<TRIPOS>ATOM
       1    C1      17.958970   20.641603   23.641726 C.2        1 MOL1        -0.2535
       2    H1      17.650634   19.697879   24.088640 H          1 MOL1         0.0845
       3    H2      17.178872   21.364165   23.408370 H          1 MOL1         0.0845
       4    C2      19.242941   20.904743   23.384457 C.2        1 MOL1        -0.1324
       5    H3      19.530229   21.854643   22.934406 H          1 MOL1         0.0833
       6    C3      20.381132   19.951162   23.679727 C.3        1 MOL1        -0.1813
       7    H4      20.035577   19.119676   24.308931 H          1 MOL1         0.0753
       8    H5      21.150180   20.479024   24.259184 H          1 MOL1         0.0753
       9    C4      21.024770   19.390455   22.391597 C.3        1 MOL1        -0.1855
      10    H6      21.369733   20.222177   21.762055 H          1 MOL1         0.0755
      11    H7      21.917429   18.811104   22.664354 H          1 MOL1         0.0755
      12    C5      20.060623   18.489272   21.586691 C.3        1 MOL1        -0.1855
      13    H8      19.174928   19.065040   21.284591 H          1 MOL1         0.0755
      14    H9      19.703597   17.667953   22.223288 H          1 MOL1         0.0755
      15    C6      20.739230   17.901696   20.324841 C.3        1 MOL1        -0.1958
      16    H10     21.090158   18.710527   19.672745 H          1 MOL1         0.0753
      17    H11     21.617254   17.308899   20.607950 H          1 MOL1         0.0753
      18    C7      19.807496   17.008772   19.513266 C.2        1 MOL1         0.6174
      19    O1      19.754220   15.828155   19.796204 O.co2      1 MOL1        -0.6695
      20    O2      19.149153   17.519668   18.628811 O.co2      1 MOL1        -0.6695
@<TRIPOS>BOND
    1     1     2    1
    2     1     3    1
    3     1     4    2
    4     4     5    1
    5     4     6    1
    6     6     7    1
    7     6     8    1
    8     6     9    1
    9     9    10    1
   10     9    11    1
   11     9    12    1
   12    12    13    1
   13    12    14    1
   14    12    15    1
   15    15    16    1
   16    15    17    1
   17    15    18    1
   18    18    19    1
   19    18    20    2
@<TRIPOS>SUBSTRUCTURE
       1 MOL1            1 RESIDUE      1      MOL     
@<SCITEGIC>MOL_PROPERTY
VConf Rank
SciTegic.value.IntegerValue
176

@<SCITEGIC>MOL_PROPERTY
Conf_Id
SciTegic.value.IntegerValue
42

@<SCITEGIC>MOL_PROPERTY
Delta U+W
SciTegic.value.DoubleValue
-0.601

@<SCITEGIC>MOL_PROPERTY
U+W
SciTegic.value.DoubleValue
-52.347

@<SCITEGIC>MOL_PROPERTY
Grad RMS
SciTegic.value.DoubleValue
0.000000

@<SCITEGIC>MOL_PROPERTY
U
SciTegic.value.DoubleValue
8.428

@<SCITEGIC>MOL_PROPERTY
W
SciTegic.value.DoubleValue
-60.774

@<SCITEGIC>MOL_PROPERTY
W(PB)
SciTegic.value.DoubleValue
-62.982

@<SCITEGIC>MOL_PROPERTY
W(SA)
SciTegic.value.DoubleValue
2.208

@<SCITEGIC>MOL_PROPERTY
Valence
SciTegic.value.DoubleValue
9.231

@<SCITEGIC>MOL_PROPERTY
Coulomb
SciTegic.value.DoubleValue
-1.304

@<SCITEGIC>MOL_PROPERTY
VdW
SciTegic.value.DoubleValue
0.501

@<SCITEGIC>MOL_PROPERTY
VdW6
SciTegic.value.DoubleValue
-6.515

@<SCITEGIC>MOL_PROPERTY
VdW12
SciTegic.value.DoubleValue
7.016

@<SCITEGIC>MOL_PROPERTY
Bond
SciTegic.value.DoubleValue
0.103

@<SCITEGIC>MOL_PROPERTY
Angle
SciTegic.value.DoubleValue
2.328

@<SCITEGIC>MOL_PROPERTY
Pdih
SciTegic.value.DoubleValue
6.799

@<SCITEGIC>MOL_PROPERTY
Idih
SciTegic.value.DoubleValue
0.000

@<SCITEGIC>MOL_PROPERTY
Tether
SciTegic.value.DoubleValue
0.000

@<TRIPOS>MOLECULE
guest-s22_confgen4.mol2 : confsearch ligand conformer 177
          20          19           1
SMALL
USER_CHARGES
 
@<TRIPOS>ATOM
       1    C1      19.187605   22.170661   21.560480 C.2        1 MOL1        -0.2535
       2    H1      19.464111   22.469496   22.570251 H          1 MOL1         0.0845
       3    H2      18.366942   22.706188   21.086329 H          1 MOL1         0.0845
       4    C2      19.825300   21.183220   20.926187 C.2        1 MOL1        -0.1324
       5    H3      19.530978   20.897604   19.916631 H          1 MOL1         0.0833
       6    C3      20.972215   20.393430   21.520093 C.3        1 MOL1        -0.1813
       7    H4      21.329700   20.866514   22.444757 H          1 MOL1         0.0753
       8    H5      21.817377   20.405751   20.819123 H          1 MOL1         0.0753
       9    C4      20.584956   18.925319   21.807564 C.3        1 MOL1        -0.1855
      10    H6      20.234121   18.452155   20.880003 H          1 MOL1         0.0755
      11    H7      21.483347   18.375141   22.118913 H          1 MOL1         0.0755
      12    C5      19.503992   18.797573   22.906868 C.3        1 MOL1        -0.1855
      13    H8      18.584248   19.308541   22.590108 H          1 MOL1         0.0755
      14    H9      19.850486   19.307391   23.815855 H          1 MOL1         0.0755
      15    C6      19.175092   17.321593   23.250569 C.3        1 MOL1        -0.1958
      16    H10     20.086824   16.788803   23.546554 H          1 MOL1         0.0753
      17    H11     18.494961   17.288490   24.109822 H          1 MOL1         0.0753
      18    C7      18.510543   16.553502   22.111613 C.2        1 MOL1         0.6174
      19    O1      19.187622   15.773474   21.471078 O.co2      1 MOL1        -0.6695
      20    O2      17.327548   16.742705   21.907115 O.co2      1 MOL1        -0.6695
@<TRIPOS>BOND
    1     1     2    1
    2     1     3    1
    3     1     4    2
    4     4     5    1
    5     4     6    1
    6     6     7    1
    7     6     8    1
    8     6     9    1
    9     9    10    1
   10     9    11    1
   11     9    12    1
   12    12    13    1
   13    12    14    1
   14    12    15    1
   15    15    16    1
   16    15    17    1
   17    15    18    1
   18    18    19    1
   19    18    20    2
@<TRIPOS>SUBSTRUCTURE
       1 MOL1            1 RESIDUE      1      MOL     
@<SCITEGIC>MOL_PROPERTY
VConf Rank
SciTegic.value.IntegerValue
177

@<SCITEGIC>MOL_PROPERTY
Conf_Id
SciTegic.value.IntegerValue
68

@<SCITEGIC>MOL_PROPERTY
Delta U+W
SciTegic.value.DoubleValue
0.492

@<SCITEGIC>MOL_PROPERTY
U+W
SciTegic.value.DoubleValue
-51.253

@<SCITEGIC>MOL_PROPERTY
Grad RMS
SciTegic.value.DoubleValue
0.000000

@<SCITEGIC>MOL_PROPERTY
U
SciTegic.value.DoubleValue
10.179

@<SCITEGIC>MOL_PROPERTY
W
SciTegic.value.DoubleValue
-61.432

@<SCITEGIC>MOL_PROPERTY
W(PB)
SciTegic.value.DoubleValue
-63.627

@<SCITEGIC>MOL_PROPERTY
W(SA)
SciTegic.value.DoubleValue
2.195

@<SCITEGIC>MOL_PROPERTY
Valence
SciTegic.value.DoubleValue
9.483

@<SCITEGIC>MOL_PROPERTY
Coulomb
SciTegic.value.DoubleValue
0.361

@<SCITEGIC>MOL_PROPERTY
VdW
SciTegic.value.DoubleValue
0.335

@<SCITEGIC>MOL_PROPERTY
VdW6
SciTegic.value.DoubleValue
-7.385

@<SCITEGIC>MOL_PROPERTY
VdW12
SciTegic.value.DoubleValue
7.720

@<SCITEGIC>MOL_PROPERTY
Bond
SciTegic.value.DoubleValue
0.125

@<SCITEGIC>MOL_PROPERTY
Angle
SciTegic.value.DoubleValue
2.487

@<SCITEGIC>MOL_PROPERTY
Pdih
SciTegic.value.DoubleValue
6.870

@<SCITEGIC>MOL_PROPERTY
Idih
SciTegic.value.DoubleValue
0.001

@<SCITEGIC>MOL_PROPERTY
Tether
SciTegic.value.DoubleValue
0.000

@<TRIPOS>MOLECULE
guest-s22_confgen4.mol2 : confsearch ligand conformer 178
          20          19           1
SMALL
USER_CHARGES
 
@<TRIPOS>ATOM
       1    C1      18.667785   21.438492   24.194945 C.2        1 MOL1        -0.2535
       2    H1      17.682170   21.703772   23.815891 H          1 MOL1         0.0845
       3    H2      19.235552   22.216418   24.702537 H          1 MOL1         0.0845
       4    C2      19.165996   20.208807   24.042117 C.2        1 MOL1        -0.1324
       5    H3      20.153671   19.963858   24.431659 H          1 MOL1         0.0833
       6    C3      18.433229   19.076930   23.353868 C.3        1 MOL1        -0.1813
       7    H4      17.358794   19.301582   23.313360 H          1 MOL1         0.0753
       8    H5      18.532356   18.154832   23.942005 H          1 MOL1         0.0753
       9    C4      18.942932   18.835378   21.915106 C.3        1 MOL1        -0.1855
      10    H6      18.290844   18.098036   21.427404 H          1 MOL1         0.0755
      11    H7      18.851411   19.765051   21.336373 H          1 MOL1         0.0755
      12    C5      20.403931   18.328094   21.871806 C.3        1 MOL1        -0.1855
      13    H8      20.493292   17.427045   22.493446 H          1 MOL1         0.0755
      14    H9      21.076626   19.080454   22.305686 H          1 MOL1         0.0755
      15    C6      20.875571   17.995236   20.432495 C.3        1 MOL1        -0.1958
      16    H10     21.869140   17.533281   20.470251 H          1 MOL1         0.0753
      17    H11     20.201977   17.262148   19.972478 H          1 MOL1         0.0753
      18    C7      20.971442   19.210984   19.515104 C.2        1 MOL1         0.6174
      19    O1      21.931319   19.946282   19.637897 O.co2      1 MOL1        -0.6695
      20    O2      20.095437   19.380110   18.689794 O.co2      1 MOL1        -0.6695
@<TRIPOS>BOND
    1     1     2    1
    2     1     3    1
    3     1     4    2
    4     4     5    1
    5     4     6    1
    6     6     7    1
    7     6     8    1
    8     6     9    1
    9     9    10    1
   10     9    11    1
   11     9    12    1
   12    12    13    1
   13    12    14    1
   14    12    15    1
   15    15    16    1
   16    15    17    1
   17    15    18    1
   18    18    19    1
   19    18    20    2
@<TRIPOS>SUBSTRUCTURE
       1 MOL1            1 RESIDUE      1      MOL     
@<SCITEGIC>MOL_PROPERTY
VConf Rank
SciTegic.value.IntegerValue
178

@<SCITEGIC>MOL_PROPERTY
Conf_Id
SciTegic.value.IntegerValue
87

@<SCITEGIC>MOL_PROPERTY
Delta U+W
SciTegic.value.DoubleValue
0.339

@<SCITEGIC>MOL_PROPERTY
U+W
SciTegic.value.DoubleValue
-51.407

@<SCITEGIC>MOL_PROPERTY
Grad RMS
SciTegic.value.DoubleValue
0.000000

@<SCITEGIC>MOL_PROPERTY
U
SciTegic.value.DoubleValue
10.461

@<SCITEGIC>MOL_PROPERTY
W
SciTegic.value.DoubleValue
-61.867

@<SCITEGIC>MOL_PROPERTY
W(PB)
SciTegic.value.DoubleValue
-64.045

@<SCITEGIC>MOL_PROPERTY
W(SA)
SciTegic.value.DoubleValue
2.178

@<SCITEGIC>MOL_PROPERTY
Valence
SciTegic.value.DoubleValue
9.555

@<SCITEGIC>MOL_PROPERTY
Coulomb
SciTegic.value.DoubleValue
0.483

@<SCITEGIC>MOL_PROPERTY
VdW
SciTegic.value.DoubleValue
0.423

@<SCITEGIC>MOL_PROPERTY
VdW6
SciTegic.value.DoubleValue
-7.223

@<SCITEGIC>MOL_PROPERTY
VdW12
SciTegic.value.DoubleValue
7.646

@<SCITEGIC>MOL_PROPERTY
Bond
SciTegic.value.DoubleValue
0.126

@<SCITEGIC>MOL_PROPERTY
Angle
SciTegic.value.DoubleValue
2.492

@<SCITEGIC>MOL_PROPERTY
Pdih
SciTegic.value.DoubleValue
6.936

@<SCITEGIC>MOL_PROPERTY
Idih
SciTegic.value.DoubleValue
0.001

@<SCITEGIC>MOL_PROPERTY
Tether
SciTegic.value.DoubleValue
0.000

@<TRIPOS>MOLECULE
guest-s22_confgen4.mol2 : confsearch ligand conformer 179
          20          19           1
SMALL
USER_CHARGES
 
@<TRIPOS>ATOM
       1    C1      21.013142   20.805333   20.394685 C.2        1 MOL1        -0.2535
       2    H1      21.652645   20.176937   19.776970 H          1 MOL1         0.0845
       3    H2      20.616084   21.713628   19.944837 H          1 MOL1         0.0845
       4    C2      20.723475   20.475138   21.655945 C.2        1 MOL1        -0.1324
       5    H3      20.088931   21.121561   22.261155 H          1 MOL1         0.0833
       6    C3      21.250057   19.236139   22.348189 C.3        1 MOL1        -0.1813
       7    H4      21.176643   19.349032   23.438052 H          1 MOL1         0.0753
       8    H5      22.322648   19.145115   22.129849 H          1 MOL1         0.0753
       9    C4      20.546053   17.930666   21.901775 C.3        1 MOL1        -0.1855
      10    H6      20.454057   17.908761   20.807247 H          1 MOL1         0.0755
      11    H7      21.199591   17.088105   22.165807 H          1 MOL1         0.0755
      12    C5      19.164981   17.677169   22.557121 C.3        1 MOL1        -0.1855
      13    H8      19.258310   17.713615   23.651197 H          1 MOL1         0.0755
      14    H9      18.848950   16.654242   22.309663 H          1 MOL1         0.0755
      15    C6      18.053117   18.655387   22.098742 C.3        1 MOL1        -0.1958
      16    H10     18.259520   19.668389   22.458334 H          1 MOL1         0.0753
      17    H11     18.012820   18.698318   21.003819 H          1 MOL1         0.0753
      18    C7      16.672300   18.259916   22.609210 C.2        1 MOL1         0.6174
      19    O1      16.320022   18.677780   23.694649 O.co2      1 MOL1        -0.6695
      20    O2      15.993010   17.527078   21.917549 O.co2      1 MOL1        -0.6695
@<TRIPOS>BOND
    1     1     2    1
    2     1     3    1
    3     1     4    2
    4     4     5    1
    5     4     6    1
    6     6     7    1
    7     6     8    1
    8     6     9    1
    9     9    10    1
   10     9    11    1
   11     9    12    1
   12    12    13    1
   13    12    14    1
   14    12    15    1
   15    15    16    1
   16    15    17    1
   17    15    18    1
   18    18    19    1
   19    18    20    2
@<TRIPOS>SUBSTRUCTURE
       1 MOL1            1 RESIDUE      1      MOL     
@<SCITEGIC>MOL_PROPERTY
VConf Rank
SciTegic.value.IntegerValue
179

@<SCITEGIC>MOL_PROPERTY
Conf_Id
SciTegic.value.IntegerValue
51

@<SCITEGIC>MOL_PROPERTY
Delta U+W
SciTegic.value.DoubleValue
1.709

@<SCITEGIC>MOL_PROPERTY
U+W
SciTegic.value.DoubleValue
-50.036

@<SCITEGIC>MOL_PROPERTY
Grad RMS
SciTegic.value.DoubleValue
0.000000

@<SCITEGIC>MOL_PROPERTY
U
SciTegic.value.DoubleValue
10.643

@<SCITEGIC>MOL_PROPERTY
W
SciTegic.value.DoubleValue
-60.679

@<SCITEGIC>MOL_PROPERTY
W(PB)
SciTegic.value.DoubleValue
-62.882

@<SCITEGIC>MOL_PROPERTY
W(SA)
SciTegic.value.DoubleValue
2.203

@<SCITEGIC>MOL_PROPERTY
Valence
SciTegic.value.DoubleValue
11.231

@<SCITEGIC>MOL_PROPERTY
Coulomb
SciTegic.value.DoubleValue
-1.077

@<SCITEGIC>MOL_PROPERTY
VdW
SciTegic.value.DoubleValue
0.489

@<SCITEGIC>MOL_PROPERTY
VdW6
SciTegic.value.DoubleValue
-7.546

@<SCITEGIC>MOL_PROPERTY
VdW12
SciTegic.value.DoubleValue
8.035

@<SCITEGIC>MOL_PROPERTY
Bond
SciTegic.value.DoubleValue
0.159

@<SCITEGIC>MOL_PROPERTY
Angle
SciTegic.value.DoubleValue
3.005

@<SCITEGIC>MOL_PROPERTY
Pdih
SciTegic.value.DoubleValue
8.065

@<SCITEGIC>MOL_PROPERTY
Idih
SciTegic.value.DoubleValue
0.002

@<SCITEGIC>MOL_PROPERTY
Tether
SciTegic.value.DoubleValue
0.000

@<TRIPOS>MOLECULE
guest-s22_confgen4.mol2 : confsearch ligand conformer 180
          20          19           1
SMALL
USER_CHARGES
 
@<TRIPOS>ATOM
       1    C1      20.181513   21.412578   23.505211 C.2        1 MOL1        -0.2535
       2    H1      21.227920   21.275787   23.773048 H          1 MOL1         0.0845
       3    H2      19.530690   21.877415   24.243707 H          1 MOL1         0.0845
       4    C2      19.711380   21.023210   22.317322 C.2        1 MOL1        -0.1324
       5    H3      18.662971   21.176812   22.064258 H          1 MOL1         0.0833
       6    C3      20.560608   20.382963   21.240058 C.3        1 MOL1        -0.1813
       7    H4      21.496065   20.951617   21.150841 H          1 MOL1         0.0753
       8    H5      20.065404   20.469420   20.263722 H          1 MOL1         0.0753
       9    C4      20.912203   18.901986   21.526865 C.3        1 MOL1        -0.1855
      10    H6      21.783646   18.637461   20.912577 H          1 MOL1         0.0755
      11    H7      21.234091   18.787650   22.571014 H          1 MOL1         0.0755
      12    C5      19.784807   17.889279   21.203587 C.3        1 MOL1        -0.1855
      13    H8      20.202657   16.875293   21.272296 H          1 MOL1         0.0755
      14    H9      19.455818   18.016061   20.163043 H          1 MOL1         0.0755
      15    C6      18.559421   17.976807   22.149123 C.3        1 MOL1        -0.1958
      16    H10     18.884467   17.945359   23.195870 H          1 MOL1         0.0753
      17    H11     18.025462   18.920713   22.000755 H          1 MOL1         0.0753
      18    C7      17.561726   16.845743   21.927943 C.2        1 MOL1         0.6174
      19    O1      16.686572   17.005750   21.100059 O.co2      1 MOL1        -0.6695
      20    O2      17.697824   15.825871   22.574643 O.co2      1 MOL1        -0.6695
@<TRIPOS>BOND
    1     1     2    1
    2     1     3    1
    3     1     4    2
    4     4     5    1
    5     4     6    1
    6     6     7    1
    7     6     8    1
    8     6     9    1
    9     9    10    1
   10     9    11    1
   11     9    12    1
   12    12    13    1
   13    12    14    1
   14    12    15    1
   15    15    16    1
   16    15    17    1
   17    15    18    1
   18    18    19    1
   19    18    20    2
@<TRIPOS>SUBSTRUCTURE
       1 MOL1            1 RESIDUE      1      MOL     
@<SCITEGIC>MOL_PROPERTY
VConf Rank
SciTegic.value.IntegerValue
180

@<SCITEGIC>MOL_PROPERTY
Conf_Id
SciTegic.value.IntegerValue
91

@<SCITEGIC>MOL_PROPERTY
Delta U+W
SciTegic.value.DoubleValue
1.604

@<SCITEGIC>MOL_PROPERTY
U+W
SciTegic.value.DoubleValue
-50.141

@<SCITEGIC>MOL_PROPERTY
Grad RMS
SciTegic.value.DoubleValue
0.000000

@<SCITEGIC>MOL_PROPERTY
U
SciTegic.value.DoubleValue
10.644

@<SCITEGIC>MOL_PROPERTY
W
SciTegic.value.DoubleValue
-60.786

@<SCITEGIC>MOL_PROPERTY
W(PB)
SciTegic.value.DoubleValue
-62.965

@<SCITEGIC>MOL_PROPERTY
W(SA)
SciTegic.value.DoubleValue
2.179

@<SCITEGIC>MOL_PROPERTY
Valence
SciTegic.value.DoubleValue
11.230

@<SCITEGIC>MOL_PROPERTY
Coulomb
SciTegic.value.DoubleValue
-1.075

@<SCITEGIC>MOL_PROPERTY
VdW
SciTegic.value.DoubleValue
0.489

@<SCITEGIC>MOL_PROPERTY
VdW6
SciTegic.value.DoubleValue
-7.547

@<SCITEGIC>MOL_PROPERTY
VdW12
SciTegic.value.DoubleValue
8.036

@<SCITEGIC>MOL_PROPERTY
Bond
SciTegic.value.DoubleValue
0.159

@<SCITEGIC>MOL_PROPERTY
Angle
SciTegic.value.DoubleValue
3.006

@<SCITEGIC>MOL_PROPERTY
Pdih
SciTegic.value.DoubleValue
8.064

@<SCITEGIC>MOL_PROPERTY
Idih
SciTegic.value.DoubleValue
0.002

@<SCITEGIC>MOL_PROPERTY
Tether
SciTegic.value.DoubleValue
0.000

@<TRIPOS>MOLECULE
guest-s22_confgen4.mol2 : confsearch ligand conformer 181
          20          19           1
SMALL
USER_CHARGES
 
@<TRIPOS>ATOM
       1    C1      21.856111   20.386542   19.138569 C.2        1 MOL1        -0.2535
       2    H1      22.105076   21.223675   19.788811 H          1 MOL1         0.0845
       3    H2      21.988070   20.527960   18.067185 H          1 MOL1         0.0845
       4    C2      21.403844   19.230661   19.631566 C.2        1 MOL1        -0.1324
       5    H3      21.159659   18.405204   18.963245 H          1 MOL1         0.0833
       6    C3      21.196400   18.960921   21.105285 C.3        1 MOL1        -0.1813
       7    H4      21.702832   19.727711   21.707253 H          1 MOL1         0.0753
       8    H5      21.653536   17.998225   21.370593 H          1 MOL1         0.0753
       9    C4      19.695225   18.936710   21.461319 C.3        1 MOL1        -0.1855
      10    H6      19.241988   19.900253   21.190128 H          1 MOL1         0.0755
      11    H7      19.190002   18.166556   20.862342 H          1 MOL1         0.0755
      12    C5      19.465104   18.659378   22.963067 C.3        1 MOL1        -0.1855
      13    H8      19.969735   19.429571   23.562813 H          1 MOL1         0.0755
      14    H9      19.919243   17.696446   23.235179 H          1 MOL1         0.0755
      15    C6      17.955193   18.635833   23.320853 C.3        1 MOL1        -0.1958
      16    H10     17.496868   19.596373   23.057765 H          1 MOL1         0.0753
      17    H11     17.446263   17.864884   22.730483 H          1 MOL1         0.0753
      18    C7      17.637587   18.366934   24.792633 C.2        1 MOL1         0.6174
      19    O1      16.465360   18.339627   25.110872 O.co2      1 MOL1        -0.6695
      20    O2      18.544980   18.192478   25.583108 O.co2      1 MOL1        -0.6695
@<TRIPOS>BOND
    1     1     2    1
    2     1     3    1
    3     1     4    2
    4     4     5    1
    5     4     6    1
    6     6     7    1
    7     6     8    1
    8     6     9    1
    9     9    10    1
   10     9    11    1
   11     9    12    1
   12    12    13    1
   13    12    14    1
   14    12    15    1
   15    15    16    1
   16    15    17    1
   17    15    18    1
   18    18    19    1
   19    18    20    2
@<TRIPOS>SUBSTRUCTURE
       1 MOL1            1 RESIDUE      1      MOL     
@<SCITEGIC>MOL_PROPERTY
VConf Rank
SciTegic.value.IntegerValue
181

@<SCITEGIC>MOL_PROPERTY
Conf_Id
SciTegic.value.IntegerValue
33

@<SCITEGIC>MOL_PROPERTY
Delta U+W
SciTegic.value.DoubleValue
0.000

@<SCITEGIC>MOL_PROPERTY
U+W
SciTegic.value.DoubleValue
-51.745

@<SCITEGIC>MOL_PROPERTY
Grad RMS
SciTegic.value.DoubleValue
0.000000

@<SCITEGIC>MOL_PROPERTY
U
SciTegic.value.DoubleValue
7.593

@<SCITEGIC>MOL_PROPERTY
W
SciTegic.value.DoubleValue
-59.338

@<SCITEGIC>MOL_PROPERTY
W(PB)
SciTegic.value.DoubleValue
-61.574

@<SCITEGIC>MOL_PROPERTY
W(SA)
SciTegic.value.DoubleValue
2.236

@<SCITEGIC>MOL_PROPERTY
Valence
SciTegic.value.DoubleValue
9.570

@<SCITEGIC>MOL_PROPERTY
Coulomb
SciTegic.value.DoubleValue
-3.091

@<SCITEGIC>MOL_PROPERTY
VdW
SciTegic.value.DoubleValue
1.114

@<SCITEGIC>MOL_PROPERTY
VdW6
SciTegic.value.DoubleValue
-6.064

@<SCITEGIC>MOL_PROPERTY
VdW12
SciTegic.value.DoubleValue
7.178

@<SCITEGIC>MOL_PROPERTY
Bond
SciTegic.value.DoubleValue
0.117

@<SCITEGIC>MOL_PROPERTY
Angle
SciTegic.value.DoubleValue
2.692

@<SCITEGIC>MOL_PROPERTY
Pdih
SciTegic.value.DoubleValue
6.761

@<SCITEGIC>MOL_PROPERTY
Idih
SciTegic.value.DoubleValue
0.000

@<SCITEGIC>MOL_PROPERTY
Tether
SciTegic.value.DoubleValue
0.000

@<TRIPOS>MOLECULE
guest-s22_confgen4.mol2 : confsearch ligand conformer 182
          20          19           1
SMALL
USER_CHARGES
 
@<TRIPOS>ATOM
       1    C1      16.922022   19.060862   19.597819 C.2        1 MOL1        -0.2535
       2    H1      16.253569   19.303825   20.422270 H          1 MOL1         0.0845
       3    H2      16.466685   18.799365   18.644117 H          1 MOL1         0.0845
       4    C2      18.249079   19.079237   19.746995 C.2        1 MOL1        -0.1324
       5    H3      18.900631   18.831914   18.909175 H          1 MOL1         0.0833
       6    C3      18.952304   19.432706   21.038606 C.3        1 MOL1        -0.1813
       7    H4      18.249394   19.908953   21.735528 H          1 MOL1         0.0753
       8    H5      19.739758   20.167881   20.830076 H          1 MOL1         0.0753
       9    C4      19.561303   18.176206   21.700528 C.3        1 MOL1        -0.1855
      10    H6      18.771073   17.422443   21.821848 H          1 MOL1         0.0755
      11    H7      20.312168   17.733341   21.031898 H          1 MOL1         0.0755
      12    C5      20.195330   18.453456   23.084479 C.3        1 MOL1        -0.1855
      13    H8      20.499347   17.496391   23.530680 H          1 MOL1         0.0755
      14    H9      19.441967   18.884168   23.758515 H          1 MOL1         0.0755
      15    C6      21.430660   19.388963   23.023149 C.3        1 MOL1        -0.1958
      16    H10     22.172336   18.991105   22.320292 H          1 MOL1         0.0753
      17    H11     21.144420   20.384526   22.665847 H          1 MOL1         0.0753
      18    C7      22.107709   19.560095   24.378246 C.2        1 MOL1         0.6174
      19    O1      21.722171   20.455858   25.103283 O.co2      1 MOL1        -0.6695
      20    O2      22.989441   18.780756   24.681415 O.co2      1 MOL1        -0.6695
@<TRIPOS>BOND
    1     1     2    1
    2     1     3    1
    3     1     4    2
    4     4     5    1
    5     4     6    1
    6     6     7    1
    7     6     8    1
    8     6     9    1
    9     9    10    1
   10     9    11    1
   11     9    12    1
   12    12    13    1
   13    12    14    1
   14    12    15    1
   15    15    16    1
   16    15    17    1
   17    15    18    1
   18    18    19    1
   19    18    20    2
@<TRIPOS>SUBSTRUCTURE
       1 MOL1            1 RESIDUE      1      MOL     
@<SCITEGIC>MOL_PROPERTY
VConf Rank
SciTegic.value.IntegerValue
182

@<SCITEGIC>MOL_PROPERTY
Conf_Id
SciTegic.value.IntegerValue
37

@<SCITEGIC>MOL_PROPERTY
Delta U+W
SciTegic.value.DoubleValue
-0.384

@<SCITEGIC>MOL_PROPERTY
U+W
SciTegic.value.DoubleValue
-52.130

@<SCITEGIC>MOL_PROPERTY
Grad RMS
SciTegic.value.DoubleValue
0.000000

@<SCITEGIC>MOL_PROPERTY
U
SciTegic.value.DoubleValue
7.491

@<SCITEGIC>MOL_PROPERTY
W
SciTegic.value.DoubleValue
-59.621

@<SCITEGIC>MOL_PROPERTY
W(PB)
SciTegic.value.DoubleValue
-61.853

@<SCITEGIC>MOL_PROPERTY
W(SA)
SciTegic.value.DoubleValue
2.232

@<SCITEGIC>MOL_PROPERTY
Valence
SciTegic.value.DoubleValue
9.604

@<SCITEGIC>MOL_PROPERTY
Coulomb
SciTegic.value.DoubleValue
-2.799

@<SCITEGIC>MOL_PROPERTY
VdW
SciTegic.value.DoubleValue
0.686

@<SCITEGIC>MOL_PROPERTY
VdW6
SciTegic.value.DoubleValue
-6.435

@<SCITEGIC>MOL_PROPERTY
VdW12
SciTegic.value.DoubleValue
7.121

@<SCITEGIC>MOL_PROPERTY
Bond
SciTegic.value.DoubleValue
0.124

@<SCITEGIC>MOL_PROPERTY
Angle
SciTegic.value.DoubleValue
2.493

@<SCITEGIC>MOL_PROPERTY
Pdih
SciTegic.value.DoubleValue
6.986

@<SCITEGIC>MOL_PROPERTY
Idih
SciTegic.value.DoubleValue
0.001

@<SCITEGIC>MOL_PROPERTY
Tether
SciTegic.value.DoubleValue
0.000

@<TRIPOS>MOLECULE
guest-s22_confgen4.mol2 : confsearch ligand conformer 183
          20          19           1
SMALL
USER_CHARGES
 
@<TRIPOS>ATOM
       1    C1      22.713433   18.826620   20.283610 C.2        1 MOL1        -0.2535
       2    H1      23.661064   18.781884   19.749581 H          1 MOL1         0.0845
       3    H2      22.485948   17.997302   20.949965 H          1 MOL1         0.0845
       4    C2      21.882049   19.861072   20.114431 C.2        1 MOL1        -0.1324
       5    H3      22.165393   20.662592   19.432587 H          1 MOL1         0.0833
       6    C3      20.533841   20.062287   20.785893 C.3        1 MOL1        -0.1813
       7    H4      19.765779   20.173551   20.008825 H          1 MOL1         0.0753
       8    H5      20.548239   21.017942   21.326866 H          1 MOL1         0.0753
       9    C4      20.112280   18.935614   21.757942 C.3        1 MOL1        -0.1855
      10    H6      20.075630   17.979574   21.217820 H          1 MOL1         0.0755
      11    H7      20.866595   18.833108   22.550148 H          1 MOL1         0.0755
      12    C5      18.734288   19.216298   22.396201 C.3        1 MOL1        -0.1855
      13    H8      17.975001   19.319998   21.608586 H          1 MOL1         0.0755
      14    H9      18.764353   20.171787   22.938181 H          1 MOL1         0.0755
      15    C6      18.309905   18.089505   23.370018 C.3        1 MOL1        -0.1958
      16    H10     18.261901   17.129991   22.841217 H          1 MOL1         0.0753
      17    H11     19.051347   17.981753   24.170803 H          1 MOL1         0.0753
      18    C7      16.951560   18.343885   24.013583 C.2        1 MOL1         0.6174
      19    O1      15.960661   17.931506   23.443750 O.co2      1 MOL1        -0.6695
      20    O2      16.918794   18.964874   25.057588 O.co2      1 MOL1        -0.6695
@<TRIPOS>BOND
    1     1     2    1
    2     1     3    1
    3     1     4    2
    4     4     5    1
    5     4     6    1
    6     6     7    1
    7     6     8    1
    8     6     9    1
    9     9    10    1
   10     9    11    1
   11     9    12    1
   12    12    13    1
   13    12    14    1
   14    12    15    1
   15    15    16    1
   16    15    17    1
   17    15    18    1
   18    18    19    1
   19    18    20    2
@<TRIPOS>SUBSTRUCTURE
       1 MOL1            1 RESIDUE      1      MOL     
@<SCITEGIC>MOL_PROPERTY
VConf Rank
SciTegic.value.IntegerValue
183

@<SCITEGIC>MOL_PROPERTY
Conf_Id
SciTegic.value.IntegerValue
44

@<SCITEGIC>MOL_PROPERTY
Delta U+W
SciTegic.value.DoubleValue
-1.440

@<SCITEGIC>MOL_PROPERTY
U+W
SciTegic.value.DoubleValue
-53.185

@<SCITEGIC>MOL_PROPERTY
Grad RMS
SciTegic.value.DoubleValue
0.000000

@<SCITEGIC>MOL_PROPERTY
U
SciTegic.value.DoubleValue
6.572

@<SCITEGIC>MOL_PROPERTY
W
SciTegic.value.DoubleValue
-59.757

@<SCITEGIC>MOL_PROPERTY
W(PB)
SciTegic.value.DoubleValue
-62.007

@<SCITEGIC>MOL_PROPERTY
W(SA)
SciTegic.value.DoubleValue
2.249

@<SCITEGIC>MOL_PROPERTY
Valence
SciTegic.value.DoubleValue
7.989

@<SCITEGIC>MOL_PROPERTY
Coulomb
SciTegic.value.DoubleValue
-2.697

@<SCITEGIC>MOL_PROPERTY
VdW
SciTegic.value.DoubleValue
1.281

@<SCITEGIC>MOL_PROPERTY
VdW6
SciTegic.value.DoubleValue
-6.467

@<SCITEGIC>MOL_PROPERTY
VdW12
SciTegic.value.DoubleValue
7.748

@<SCITEGIC>MOL_PROPERTY
Bond
SciTegic.value.DoubleValue
0.136

@<SCITEGIC>MOL_PROPERTY
Angle
SciTegic.value.DoubleValue
2.854

@<SCITEGIC>MOL_PROPERTY
Pdih
SciTegic.value.DoubleValue
4.997

@<SCITEGIC>MOL_PROPERTY
Idih
SciTegic.value.DoubleValue
0.001

@<SCITEGIC>MOL_PROPERTY
Tether
SciTegic.value.DoubleValue
0.000

@<TRIPOS>MOLECULE
guest-s22_confgen4.mol2 : confsearch ligand conformer 184
          20          19           1
SMALL
USER_CHARGES
 
@<TRIPOS>ATOM
       1    C1      20.557949   16.052542   23.454178 C.2        1 MOL1        -0.2535
       2    H1      20.036274   16.537219   24.277902 H          1 MOL1         0.0845
       3    H2      21.130847   15.155429   23.682718 H          1 MOL1         0.0845
       4    C2      20.502111   16.537703   22.211110 C.2        1 MOL1        -0.1324
       5    H3      21.032184   16.037558   21.400854 H          1 MOL1         0.0833
       6    C3      19.727242   17.775891   21.818217 C.3        1 MOL1        -0.1813
       7    H4      19.023860   18.044395   22.616816 H          1 MOL1         0.0753
       8    H5      19.126195   17.563836   20.923954 H          1 MOL1         0.0753
       9    C4      20.679191   18.959574   21.534231 C.3        1 MOL1        -0.1855
      10    H6      21.240921   19.206349   22.445688 H          1 MOL1         0.0755
      11    H7      21.422094   18.647077   20.787555 H          1 MOL1         0.0755
      12    C5      19.955046   20.222650   21.010231 C.3        1 MOL1        -0.1855
      13    H8      19.400638   19.979595   20.093210 H          1 MOL1         0.0755
      14    H9      20.710003   20.969286   20.727253 H          1 MOL1         0.0755
      15    C6      18.990802   20.857828   22.045529 C.3        1 MOL1        -0.1958
      16    H10     18.170478   20.171021   22.282314 H          1 MOL1         0.0753
      17    H11     19.523241   21.064602   22.981558 H          1 MOL1         0.0753
      18    C7      18.374951   22.162729   21.553705 C.2        1 MOL1         0.6174
      19    O1      18.960933   23.199899   21.793784 O.co2      1 MOL1        -0.6695
      20    O2      17.335824   22.106161   20.926228 O.co2      1 MOL1        -0.6695
@<TRIPOS>BOND
    1     1     2    1
    2     1     3    1
    3     1     4    2
    4     4     5    1
    5     4     6    1
    6     6     7    1
    7     6     8    1
    8     6     9    1
    9     9    10    1
   10     9    11    1
   11     9    12    1
   12    12    13    1
   13    12    14    1
   14    12    15    1
   15    15    16    1
   16    15    17    1
   17    15    18    1
   18    18    19    1
   19    18    20    2
@<TRIPOS>SUBSTRUCTURE
       1 MOL1            1 RESIDUE      1      MOL     
@<SCITEGIC>MOL_PROPERTY
VConf Rank
SciTegic.value.IntegerValue
184

@<SCITEGIC>MOL_PROPERTY
Conf_Id
SciTegic.value.IntegerValue
38

@<SCITEGIC>MOL_PROPERTY
Delta U+W
SciTegic.value.DoubleValue
-0.381

@<SCITEGIC>MOL_PROPERTY
U+W
SciTegic.value.DoubleValue
-52.126

@<SCITEGIC>MOL_PROPERTY
Grad RMS
SciTegic.value.DoubleValue
0.000000

@<SCITEGIC>MOL_PROPERTY
U
SciTegic.value.DoubleValue
7.601

@<SCITEGIC>MOL_PROPERTY
W
SciTegic.value.DoubleValue
-59.727

@<SCITEGIC>MOL_PROPERTY
W(PB)
SciTegic.value.DoubleValue
-61.964

@<SCITEGIC>MOL_PROPERTY
W(SA)
SciTegic.value.DoubleValue
2.236

@<SCITEGIC>MOL_PROPERTY
Valence
SciTegic.value.DoubleValue
9.602

@<SCITEGIC>MOL_PROPERTY
Coulomb
SciTegic.value.DoubleValue
-2.686

@<SCITEGIC>MOL_PROPERTY
VdW
SciTegic.value.DoubleValue
0.685

@<SCITEGIC>MOL_PROPERTY
VdW6
SciTegic.value.DoubleValue
-6.453

@<SCITEGIC>MOL_PROPERTY
VdW12
SciTegic.value.DoubleValue
7.139

@<SCITEGIC>MOL_PROPERTY
Bond
SciTegic.value.DoubleValue
0.125

@<SCITEGIC>MOL_PROPERTY
Angle
SciTegic.value.DoubleValue
2.485

@<SCITEGIC>MOL_PROPERTY
Pdih
SciTegic.value.DoubleValue
6.991

@<SCITEGIC>MOL_PROPERTY
Idih
SciTegic.value.DoubleValue
0.001

@<SCITEGIC>MOL_PROPERTY
Tether
SciTegic.value.DoubleValue
0.000

@<TRIPOS>MOLECULE
guest-s22_confgen4.mol2 : confsearch ligand conformer 185
          20          19           1
SMALL
USER_CHARGES
 
@<TRIPOS>ATOM
       1    C1      21.705672   21.562356   23.857801 C.2        1 MOL1        -0.2535
       2    H1      21.637556   22.317165   23.076008 H          1 MOL1         0.0845
       3    H2      21.948855   21.902753   24.862918 H          1 MOL1         0.0845
       4    C2      21.497503   20.268823   23.598762 C.2        1 MOL1        -0.1324
       5    H3      21.569588   19.529276   24.395966 H          1 MOL1         0.0833
       6    C3      21.157093   19.722332   22.230143 C.3        1 MOL1        -0.1813
       7    H4      21.804992   18.864472   22.005580 H          1 MOL1         0.0753
       8    H5      21.355183   20.478786   21.458601 H          1 MOL1         0.0753
       9    C4      19.678628   19.286822   22.156081 C.3        1 MOL1        -0.1855
      10    H6      19.483747   18.528593   22.927147 H          1 MOL1         0.0755
      11    H7      19.033849   20.146284   22.385983 H          1 MOL1         0.0755
      12    C5      19.314661   18.722800   20.764055 C.3        1 MOL1        -0.1855
      13    H8      19.950721   17.856282   20.535427 H          1 MOL1         0.0755
      14    H9      19.527288   19.481676   19.998889 H          1 MOL1         0.0755
      15    C6      17.824180   18.307397   20.660117 C.3        1 MOL1        -0.1958
      16    H10     17.175978   19.155191   20.912978 H          1 MOL1         0.0753
      17    H11     17.592761   18.028317   19.625449 H          1 MOL1         0.0753
      18    C7      17.446970   17.124217   21.547057 C.2        1 MOL1         0.6174
      19    O1      16.809444   17.342709   22.558389 O.co2      1 MOL1        -0.6695
      20    O2      17.792042   16.012981   21.196089 O.co2      1 MOL1        -0.6695
@<TRIPOS>BOND
    1     1     2    1
    2     1     3    1
    3     1     4    2
    4     4     5    1
    5     4     6    1
    6     6     7    1
    7     6     8    1
    8     6     9    1
    9     9    10    1
   10     9    11    1
   11     9    12    1
   12    12    13    1
   13    12    14    1
   14    12    15    1
   15    15    16    1
   16    15    17    1
   17    15    18    1
   18    18    19    1
   19    18    20    2
@<TRIPOS>SUBSTRUCTURE
       1 MOL1            1 RESIDUE      1      MOL     
@<SCITEGIC>MOL_PROPERTY
VConf Rank
SciTegic.value.IntegerValue
185

@<SCITEGIC>MOL_PROPERTY
Conf_Id
SciTegic.value.IntegerValue
58

@<SCITEGIC>MOL_PROPERTY
Delta U+W
SciTegic.value.DoubleValue
0.019

@<SCITEGIC>MOL_PROPERTY
U+W
SciTegic.value.DoubleValue
-51.727

@<SCITEGIC>MOL_PROPERTY
Grad RMS
SciTegic.value.DoubleValue
0.000000

@<SCITEGIC>MOL_PROPERTY
U
SciTegic.value.DoubleValue
8.963

@<SCITEGIC>MOL_PROPERTY
W
SciTegic.value.DoubleValue
-60.690

@<SCITEGIC>MOL_PROPERTY
W(PB)
SciTegic.value.DoubleValue
-62.934

@<SCITEGIC>MOL_PROPERTY
W(SA)
SciTegic.value.DoubleValue
2.244

@<SCITEGIC>MOL_PROPERTY
Valence
SciTegic.value.DoubleValue
9.327

@<SCITEGIC>MOL_PROPERTY
Coulomb
SciTegic.value.DoubleValue
-0.780

@<SCITEGIC>MOL_PROPERTY
VdW
SciTegic.value.DoubleValue
0.417

@<SCITEGIC>MOL_PROPERTY
VdW6
SciTegic.value.DoubleValue
-6.635

@<SCITEGIC>MOL_PROPERTY
VdW12
SciTegic.value.DoubleValue
7.052

@<SCITEGIC>MOL_PROPERTY
Bond
SciTegic.value.DoubleValue
0.105

@<SCITEGIC>MOL_PROPERTY
Angle
SciTegic.value.DoubleValue
2.399

@<SCITEGIC>MOL_PROPERTY
Pdih
SciTegic.value.DoubleValue
6.822

@<SCITEGIC>MOL_PROPERTY
Idih
SciTegic.value.DoubleValue
0.000

@<SCITEGIC>MOL_PROPERTY
Tether
SciTegic.value.DoubleValue
0.000

@<TRIPOS>MOLECULE
guest-s22_confgen4.mol2 : confsearch ligand conformer 186
          20          19           1
SMALL
USER_CHARGES
 
@<TRIPOS>ATOM
       1    C1      20.947005   17.089629   24.623516 C.2        1 MOL1        -0.2535
       2    H1      21.976622   17.152806   24.274986 H          1 MOL1         0.0845
       3    H2      20.678535   16.233496   25.240142 H          1 MOL1         0.0845
       4    C2      20.044878   18.022243   24.307185 C.2        1 MOL1        -0.1324
       5    H3      19.019014   17.939719   24.665588 H          1 MOL1         0.0833
       6    C3      20.343768   19.237226   23.457406 C.3        1 MOL1        -0.1813
       7    H4      21.429193   19.374671   23.358917 H          1 MOL1         0.0753
       8    H5      19.954831   20.136814   23.952982 H          1 MOL1         0.0753
       9    C4      19.712556   19.105573   22.055532 C.3        1 MOL1        -0.1855
      10    H6      20.100368   18.202164   21.564894 H          1 MOL1         0.0755
      11    H7      18.626761   18.970529   22.156757 H          1 MOL1         0.0755
      12    C5      20.006121   20.341024   21.174732 C.3        1 MOL1        -0.1855
      13    H8      21.092992   20.477011   21.092251 H          1 MOL1         0.0755
      14    H9      19.610002   21.245230   21.657636 H          1 MOL1         0.0755
      15    C6      19.405447   20.214332   19.750642 C.3        1 MOL1        -0.1958
      16    H10     19.741550   21.056800   19.134800 H          1 MOL1         0.0753
      17    H11     19.770087   19.300836   19.265439 H          1 MOL1         0.0753
      18    C7      17.879718   20.206662   19.719676 C.2        1 MOL1         0.6174
      19    O1      17.298706   21.261686   19.882292 O.co2      1 MOL1        -0.6695
      20    O2      17.312933   19.149748   19.523062 O.co2      1 MOL1        -0.6695
@<TRIPOS>BOND
    1     1     2    1
    2     1     3    1
    3     1     4    2
    4     4     5    1
    5     4     6    1
    6     6     7    1
    7     6     8    1
    8     6     9    1
    9     9    10    1
   10     9    11    1
   11     9    12    1
   12    12    13    1
   13    12    14    1
   14    12    15    1
   15    15    16    1
   16    15    17    1
   17    15    18    1
   18    18    19    1
   19    18    20    2
@<TRIPOS>SUBSTRUCTURE
       1 MOL1            1 RESIDUE      1      MOL     
@<SCITEGIC>MOL_PROPERTY
VConf Rank
SciTegic.value.IntegerValue
186

@<SCITEGIC>MOL_PROPERTY
Conf_Id
SciTegic.value.IntegerValue
54

@<SCITEGIC>MOL_PROPERTY
Delta U+W
SciTegic.value.DoubleValue
-0.048

@<SCITEGIC>MOL_PROPERTY
U+W
SciTegic.value.DoubleValue
-51.793

@<SCITEGIC>MOL_PROPERTY
Grad RMS
SciTegic.value.DoubleValue
0.000000

@<SCITEGIC>MOL_PROPERTY
U
SciTegic.value.DoubleValue
8.964

@<SCITEGIC>MOL_PROPERTY
W
SciTegic.value.DoubleValue
-60.756

@<SCITEGIC>MOL_PROPERTY
W(PB)
SciTegic.value.DoubleValue
-63.007

@<SCITEGIC>MOL_PROPERTY
W(SA)
SciTegic.value.DoubleValue
2.251

@<SCITEGIC>MOL_PROPERTY
Valence
SciTegic.value.DoubleValue
9.327

@<SCITEGIC>MOL_PROPERTY
Coulomb
SciTegic.value.DoubleValue
-0.780

@<SCITEGIC>MOL_PROPERTY
VdW
SciTegic.value.DoubleValue
0.417

@<SCITEGIC>MOL_PROPERTY
VdW6
SciTegic.value.DoubleValue
-6.635

@<SCITEGIC>MOL_PROPERTY
VdW12
SciTegic.value.DoubleValue
7.052

@<SCITEGIC>MOL_PROPERTY
Bond
SciTegic.value.DoubleValue
0.105

@<SCITEGIC>MOL_PROPERTY
Angle
SciTegic.value.DoubleValue
2.399

@<SCITEGIC>MOL_PROPERTY
Pdih
SciTegic.value.DoubleValue
6.822

@<SCITEGIC>MOL_PROPERTY
Idih
SciTegic.value.DoubleValue
0.000

@<SCITEGIC>MOL_PROPERTY
Tether
SciTegic.value.DoubleValue
0.000

@<TRIPOS>MOLECULE
guest-s22_confgen4.mol2 : confsearch ligand conformer 187
          20          19           1
SMALL
USER_CHARGES
 
@<TRIPOS>ATOM
       1    C1      19.310970   15.859079   22.873841 C.2        1 MOL1        -0.2535
       2    H1      19.533137   15.289809   23.774819 H          1 MOL1         0.0845
       3    H2      18.386885   15.624607   22.347916 H          1 MOL1         0.0845
       4    C2      20.140806   16.809381   22.435698 C.2        1 MOL1        -0.1324
       5    H3      21.062339   17.025671   22.975372 H          1 MOL1         0.0833
       6    C3      19.901261   17.634970   21.189557 C.3        1 MOL1        -0.1813
       7    H4      19.181442   17.121128   20.538129 H          1 MOL1         0.0753
       8    H5      20.831555   17.720073   20.612187 H          1 MOL1         0.0753
       9    C4      19.357206   19.044919   21.512432 C.3        1 MOL1        -0.1855
      10    H6      19.076091   19.536923   20.571215 H          1 MOL1         0.0755
      11    H7      18.436464   18.954400   22.105036 H          1 MOL1         0.0755
      12    C5      20.380948   19.927023   22.266055 C.3        1 MOL1        -0.1855
      13    H8      21.307304   20.005715   21.680299 H          1 MOL1         0.0755
      14    H9      20.647770   19.447810   23.217188 H          1 MOL1         0.0755
      15    C6      19.837840   21.349241   22.561880 C.3        1 MOL1        -0.1958
      16    H10     18.894451   21.286265   23.117653 H          1 MOL1         0.0753
      17    H11     20.547812   21.886674   23.201458 H          1 MOL1         0.0753
      18    C7      19.613266   22.199957   21.315011 C.2        1 MOL1         0.6174
      19    O1      18.472560   22.370818   20.932066 O.co2      1 MOL1        -0.6695
      20    O2      20.586093   22.678497   20.765717 O.co2      1 MOL1        -0.6695
@<TRIPOS>BOND
    1     1     2    1
    2     1     3    1
    3     1     4    2
    4     4     5    1
    5     4     6    1
    6     6     7    1
    7     6     8    1
    8     6     9    1
    9     9    10    1
   10     9    11    1
   11     9    12    1
   12    12    13    1
   13    12    14    1
   14    12    15    1
   15    15    16    1
   16    15    17    1
   17    15    18    1
   18    18    19    1
   19    18    20    2
@<TRIPOS>SUBSTRUCTURE
       1 MOL1            1 RESIDUE      1      MOL     
@<SCITEGIC>MOL_PROPERTY
VConf Rank
SciTegic.value.IntegerValue
187

@<SCITEGIC>MOL_PROPERTY
Conf_Id
SciTegic.value.IntegerValue
27

@<SCITEGIC>MOL_PROPERTY
Delta U+W
SciTegic.value.DoubleValue
0.478

@<SCITEGIC>MOL_PROPERTY
U+W
SciTegic.value.DoubleValue
-51.267

@<SCITEGIC>MOL_PROPERTY
Grad RMS
SciTegic.value.DoubleValue
0.000000

@<SCITEGIC>MOL_PROPERTY
U
SciTegic.value.DoubleValue
9.192

@<SCITEGIC>MOL_PROPERTY
W
SciTegic.value.DoubleValue
-60.459

@<SCITEGIC>MOL_PROPERTY
W(PB)
SciTegic.value.DoubleValue
-62.649

@<SCITEGIC>MOL_PROPERTY
W(SA)
SciTegic.value.DoubleValue
2.190

@<SCITEGIC>MOL_PROPERTY
Valence
SciTegic.value.DoubleValue
9.572

@<SCITEGIC>MOL_PROPERTY
Coulomb
SciTegic.value.DoubleValue
-0.884

@<SCITEGIC>MOL_PROPERTY
VdW
SciTegic.value.DoubleValue
0.504

@<SCITEGIC>MOL_PROPERTY
VdW6
SciTegic.value.DoubleValue
-7.168

@<SCITEGIC>MOL_PROPERTY
VdW12
SciTegic.value.DoubleValue
7.672

@<SCITEGIC>MOL_PROPERTY
Bond
SciTegic.value.DoubleValue
0.127

@<SCITEGIC>MOL_PROPERTY
Angle
SciTegic.value.DoubleValue
2.504

@<SCITEGIC>MOL_PROPERTY
Pdih
SciTegic.value.DoubleValue
6.941

@<SCITEGIC>MOL_PROPERTY
Idih
SciTegic.value.DoubleValue
0.001

@<SCITEGIC>MOL_PROPERTY
Tether
SciTegic.value.DoubleValue
0.000

@<TRIPOS>MOLECULE
guest-s22_confgen4.mol2 : confsearch ligand conformer 188
          20          19           1
SMALL
USER_CHARGES
 
@<TRIPOS>ATOM
       1    C1      16.982858   16.830653   22.137123 C.2        1 MOL1        -0.2535
       2    H1      16.952888   16.444164   23.154588 H          1 MOL1         0.0845
       3    H2      16.553033   16.210275   21.352534 H          1 MOL1         0.0845
       4    C2      17.527691   18.017576   21.857753 C.2        1 MOL1        -0.1324
       5    H3      17.544409   18.386897   20.832758 H          1 MOL1         0.0833
       6    C3      18.137293   18.935665   22.895681 C.3        1 MOL1        -0.1813
       7    H4      17.765806   18.665001   23.893325 H          1 MOL1         0.0753
       8    H5      17.813047   19.969631   22.717240 H          1 MOL1         0.0753
       9    C4      19.681091   18.867693   22.906965 C.3        1 MOL1        -0.1855
      10    H6      20.054366   19.448717   23.761339 H          1 MOL1         0.0755
      11    H7      19.999272   17.828725   23.070098 H          1 MOL1         0.0755
      12    C5      20.316283   19.412160   21.606915 C.3        1 MOL1        -0.1855
      13    H8      19.976572   20.442309   21.431564 H          1 MOL1         0.0755
      14    H9      19.982167   18.815034   20.747561 H          1 MOL1         0.0755
      15    C6      21.863432   19.387322   21.668342 C.3        1 MOL1        -0.1958
      16    H10     22.219207   19.992167   22.511030 H          1 MOL1         0.0753
      17    H11     22.219153   18.362840   21.831156 H          1 MOL1         0.0753
      18    C7      22.514687   19.918484   20.396422 C.2        1 MOL1         0.6174
      19    O1      22.760027   19.129925   19.504994 O.co2      1 MOL1        -0.6695
      20    O2      22.743384   21.109745   20.323661 O.co2      1 MOL1        -0.6695
@<TRIPOS>BOND
    1     1     2    1
    2     1     3    1
    3     1     4    2
    4     4     5    1
    5     4     6    1
    6     6     7    1
    7     6     8    1
    8     6     9    1
    9     9    10    1
   10     9    11    1
   11     9    12    1
   12    12    13    1
   13    12    14    1
   14    12    15    1
   15    15    16    1
   16    15    17    1
   17    15    18    1
   18    18    19    1
   19    18    20    2
@<TRIPOS>SUBSTRUCTURE
       1 MOL1            1 RESIDUE      1      MOL     
@<SCITEGIC>MOL_PROPERTY
VConf Rank
SciTegic.value.IntegerValue
188

@<SCITEGIC>MOL_PROPERTY
Conf_Id
SciTegic.value.IntegerValue
41

@<SCITEGIC>MOL_PROPERTY
Delta U+W
SciTegic.value.DoubleValue
-0.634

@<SCITEGIC>MOL_PROPERTY
U+W
SciTegic.value.DoubleValue
-52.379

@<SCITEGIC>MOL_PROPERTY
Grad RMS
SciTegic.value.DoubleValue
0.000000

@<SCITEGIC>MOL_PROPERTY
U
SciTegic.value.DoubleValue
7.828

@<SCITEGIC>MOL_PROPERTY
W
SciTegic.value.DoubleValue
-60.207

@<SCITEGIC>MOL_PROPERTY
W(PB)
SciTegic.value.DoubleValue
-62.449

@<SCITEGIC>MOL_PROPERTY
W(SA)
SciTegic.value.DoubleValue
2.242

@<SCITEGIC>MOL_PROPERTY
Valence
SciTegic.value.DoubleValue
9.300

@<SCITEGIC>MOL_PROPERTY
Coulomb
SciTegic.value.DoubleValue
-2.080

@<SCITEGIC>MOL_PROPERTY
VdW
SciTegic.value.DoubleValue
0.608

@<SCITEGIC>MOL_PROPERTY
VdW6
SciTegic.value.DoubleValue
-6.341

@<SCITEGIC>MOL_PROPERTY
VdW12
SciTegic.value.DoubleValue
6.949

@<SCITEGIC>MOL_PROPERTY
Bond
SciTegic.value.DoubleValue
0.103

@<SCITEGIC>MOL_PROPERTY
Angle
SciTegic.value.DoubleValue
2.334

@<SCITEGIC>MOL_PROPERTY
Pdih
SciTegic.value.DoubleValue
6.862

@<SCITEGIC>MOL_PROPERTY
Idih
SciTegic.value.DoubleValue
0.001

@<SCITEGIC>MOL_PROPERTY
Tether
SciTegic.value.DoubleValue
0.000

@<TRIPOS>MOLECULE
guest-s22_confgen4.mol2 : confsearch ligand conformer 189
          20          19           1
SMALL
USER_CHARGES
 
@<TRIPOS>ATOM
       1    C1      19.320053   16.080441   20.185016 C.2        1 MOL1        -0.2535
       2    H1      18.635343   15.589857   19.495279 H          1 MOL1         0.0845
       3    H2      20.347814   15.721834   20.210694 H          1 MOL1         0.0845
       4    C2      18.911717   17.084116   20.965794 C.2        1 MOL1        -0.1324
       5    H3      17.878689   17.428821   20.924581 H          1 MOL1         0.0833
       6    C3      19.803184   17.811886   21.947240 C.3        1 MOL1        -0.1813
       7    H4      20.730427   17.246249   22.110483 H          1 MOL1         0.0753
       8    H5      19.293098   17.875747   22.917131 H          1 MOL1         0.0753
       9    C4      20.146269   19.230015   21.438932 C.3        1 MOL1        -0.1855
      10    H6      20.563826   19.152039   20.425657 H          1 MOL1         0.0755
      11    H7      19.224212   19.820574   21.347779 H          1 MOL1         0.0755
      12    C5      21.163336   19.979208   22.334742 C.3        1 MOL1        -0.1855
      13    H8      21.408971   20.940696   21.862947 H          1 MOL1         0.0755
      14    H9      22.100510   19.407738   22.373931 H          1 MOL1         0.0755
      15    C6      20.669062   20.246475   23.782734 C.3        1 MOL1        -0.1958
      16    H10     20.485383   19.303224   24.309560 H          1 MOL1         0.0753
      17    H11     21.453996   20.766939   24.343715 H          1 MOL1         0.0753
      18    C7      19.409481   21.104261   23.862706 C.2        1 MOL1         0.6174
      19    O1      19.505789   22.288014   23.604133 O.co2      1 MOL1        -0.6695
      20    O2      18.370044   20.571442   24.198307 O.co2      1 MOL1        -0.6695
@<TRIPOS>BOND
    1     1     2    1
    2     1     3    1
    3     1     4    2
    4     4     5    1
    5     4     6    1
    6     6     7    1
    7     6     8    1
    8     6     9    1
    9     9    10    1
   10     9    11    1
   11     9    12    1
   12    12    13    1
   13    12    14    1
   14    12    15    1
   15    15    16    1
   16    15    17    1
   17    15    18    1
   18    18    19    1
   19    18    20    2
@<TRIPOS>SUBSTRUCTURE
       1 MOL1            1 RESIDUE      1      MOL     
@<SCITEGIC>MOL_PROPERTY
VConf Rank
SciTegic.value.IntegerValue
189

@<SCITEGIC>MOL_PROPERTY
Conf_Id
SciTegic.value.IntegerValue
84

@<SCITEGIC>MOL_PROPERTY
Delta U+W
SciTegic.value.DoubleValue
0.942

@<SCITEGIC>MOL_PROPERTY
U+W
SciTegic.value.DoubleValue
-50.803

@<SCITEGIC>MOL_PROPERTY
Grad RMS
SciTegic.value.DoubleValue
0.000000

@<SCITEGIC>MOL_PROPERTY
U
SciTegic.value.DoubleValue
10.196

@<SCITEGIC>MOL_PROPERTY
W
SciTegic.value.DoubleValue
-60.999

@<SCITEGIC>MOL_PROPERTY
W(PB)
SciTegic.value.DoubleValue
-63.182

@<SCITEGIC>MOL_PROPERTY
W(SA)
SciTegic.value.DoubleValue
2.182

@<SCITEGIC>MOL_PROPERTY
Valence
SciTegic.value.DoubleValue
9.837

@<SCITEGIC>MOL_PROPERTY
Coulomb
SciTegic.value.DoubleValue
0.032

@<SCITEGIC>MOL_PROPERTY
VdW
SciTegic.value.DoubleValue
0.328

@<SCITEGIC>MOL_PROPERTY
VdW6
SciTegic.value.DoubleValue
-7.642

@<SCITEGIC>MOL_PROPERTY
VdW12
SciTegic.value.DoubleValue
7.969

@<SCITEGIC>MOL_PROPERTY
Bond
SciTegic.value.DoubleValue
0.151

@<SCITEGIC>MOL_PROPERTY
Angle
SciTegic.value.DoubleValue
2.748

@<SCITEGIC>MOL_PROPERTY
Pdih
SciTegic.value.DoubleValue
6.937

@<SCITEGIC>MOL_PROPERTY
Idih
SciTegic.value.DoubleValue
0.001

@<SCITEGIC>MOL_PROPERTY
Tether
SciTegic.value.DoubleValue
0.000

@<TRIPOS>MOLECULE
guest-s22_confgen4.mol2 : confsearch ligand conformer 190
          20          19           1
SMALL
USER_CHARGES
 
@<TRIPOS>ATOM
       1    C1      20.711318   19.444542   18.778245 C.2        1 MOL1        -0.2535
       2    H1      20.938521   18.891769   17.868254 H          1 MOL1         0.0845
       3    H2      20.102736   20.342121   18.680452 H          1 MOL1         0.0845
       4    C2      21.161397   19.032848   19.966353 C.2        1 MOL1        -0.1324
       5    H3      21.768489   18.131036   20.042581 H          1 MOL1         0.0833
       6    C3      20.887771   19.747922   21.270754 C.3        1 MOL1        -0.1813
       7    H4      20.502545   20.758300   21.077040 H          1 MOL1         0.0753
       8    H5      21.826829   19.868914   21.827185 H          1 MOL1         0.0753
       9    C4      19.872370   18.967721   22.131747 C.3        1 MOL1        -0.1855
      10    H6      18.937892   18.844868   21.566648 H          1 MOL1         0.0755
      11    H7      20.258826   17.958435   22.329341 H          1 MOL1         0.0755
      12    C5      19.584256   19.683851   23.470583 C.3        1 MOL1        -0.1855
      13    H8      19.184164   20.688835   23.276555 H          1 MOL1         0.0755
      14    H9      20.526242   19.819112   24.019162 H          1 MOL1         0.0755
      15    C6      18.589568   18.899044   24.364763 C.3        1 MOL1        -0.1958
      16    H10     18.962315   17.883510   24.545328 H          1 MOL1         0.0753
      17    H11     18.512379   19.387550   25.343220 H          1 MOL1         0.0753
      18    C7      17.179297   18.805208   23.789241 C.2        1 MOL1         0.6174
      19    O1      16.821583   17.746586   23.311398 O.co2      1 MOL1        -0.6695
      20    O2      16.471075   19.791240   23.846393 O.co2      1 MOL1        -0.6695
@<TRIPOS>BOND
    1     1     2    1
    2     1     3    1
    3     1     4    2
    4     4     5    1
    5     4     6    1
    6     6     7    1
    7     6     8    1
    8     6     9    1
    9     9    10    1
   10     9    11    1
   11     9    12    1
   12    12    13    1
   13    12    14    1
   14    12    15    1
   15    15    16    1
   16    15    17    1
   17    15    18    1
   18    18    19    1
   19    18    20    2
@<TRIPOS>SUBSTRUCTURE
       1 MOL1            1 RESIDUE      1      MOL     
@<SCITEGIC>MOL_PROPERTY
VConf Rank
SciTegic.value.IntegerValue
190

@<SCITEGIC>MOL_PROPERTY
Conf_Id
SciTegic.value.IntegerValue
81

@<SCITEGIC>MOL_PROPERTY
Delta U+W
SciTegic.value.DoubleValue
-0.051

@<SCITEGIC>MOL_PROPERTY
U+W
SciTegic.value.DoubleValue
-51.796

@<SCITEGIC>MOL_PROPERTY
Grad RMS
SciTegic.value.DoubleValue
0.000000

@<SCITEGIC>MOL_PROPERTY
U
SciTegic.value.DoubleValue
9.412

@<SCITEGIC>MOL_PROPERTY
W
SciTegic.value.DoubleValue
-61.209

@<SCITEGIC>MOL_PROPERTY
W(PB)
SciTegic.value.DoubleValue
-63.452

@<SCITEGIC>MOL_PROPERTY
W(SA)
SciTegic.value.DoubleValue
2.243

@<SCITEGIC>MOL_PROPERTY
Valence
SciTegic.value.DoubleValue
9.329

@<SCITEGIC>MOL_PROPERTY
Coulomb
SciTegic.value.DoubleValue
-0.323

@<SCITEGIC>MOL_PROPERTY
VdW
SciTegic.value.DoubleValue
0.406

@<SCITEGIC>MOL_PROPERTY
VdW6
SciTegic.value.DoubleValue
-6.640

@<SCITEGIC>MOL_PROPERTY
VdW12
SciTegic.value.DoubleValue
7.046

@<SCITEGIC>MOL_PROPERTY
Bond
SciTegic.value.DoubleValue
0.105

@<SCITEGIC>MOL_PROPERTY
Angle
SciTegic.value.DoubleValue
2.401

@<SCITEGIC>MOL_PROPERTY
Pdih
SciTegic.value.DoubleValue
6.823

@<SCITEGIC>MOL_PROPERTY
Idih
SciTegic.value.DoubleValue
0.000

@<SCITEGIC>MOL_PROPERTY
Tether
SciTegic.value.DoubleValue
0.000

@<TRIPOS>MOLECULE
guest-s22_confgen4.mol2 : confsearch ligand conformer 191
          20          19           1
SMALL
USER_CHARGES
 
@<TRIPOS>ATOM
       1    C1      17.330969   17.820880   20.152385 C.2        1 MOL1        -0.2535
       2    H1      17.770935   16.984458   19.611748 H          1 MOL1         0.0845
       3    H2      16.244686   17.890170   20.170569 H          1 MOL1         0.0845
       4    C2      18.090792   18.727129   20.772916 C.2        1 MOL1        -0.1324
       5    H3      17.630460   19.558136   21.306534 H          1 MOL1         0.0833
       6    C3      19.604250   18.698975   20.786331 C.3        1 MOL1        -0.1813
       7    H4      20.001420   19.703024   20.588662 H          1 MOL1         0.0753
       8    H5      19.969996   18.066049   19.966667 H          1 MOL1         0.0753
       9    C4      20.173610   18.154718   22.118367 C.3        1 MOL1        -0.1855
      10    H6      19.832782   17.118895   22.251566 H          1 MOL1         0.0755
      11    H7      21.268722   18.107418   22.044436 H          1 MOL1         0.0755
      12    C5      19.781132   18.974851   23.374326 C.3        1 MOL1        -0.1855
      13    H8      20.212352   18.489144   24.260509 H          1 MOL1         0.0755
      14    H9      18.691955   18.939901   23.509109 H          1 MOL1         0.0755
      15    C6      20.243875   20.457136   23.344491 C.3        1 MOL1        -0.1958
      16    H10     19.770976   20.992719   22.513493 H          1 MOL1         0.0753
      17    H11     19.916297   20.958178   24.262781 H          1 MOL1         0.0753
      18    C7      21.756019   20.635638   23.243986 C.2        1 MOL1         0.6174
      19    O1      22.220090   21.041999   22.196802 O.co2      1 MOL1        -0.6695
      20    O2      22.428911   20.379622   24.223339 O.co2      1 MOL1        -0.6695
@<TRIPOS>BOND
    1     1     2    1
    2     1     3    1
    3     1     4    2
    4     4     5    1
    5     4     6    1
    6     6     7    1
    7     6     8    1
    8     6     9    1
    9     9    10    1
   10     9    11    1
   11     9    12    1
   12    12    13    1
   13    12    14    1
   14    12    15    1
   15    15    16    1
   16    15    17    1
   17    15    18    1
   18    18    19    1
   19    18    20    2
@<TRIPOS>SUBSTRUCTURE
       1 MOL1            1 RESIDUE      1      MOL     
@<SCITEGIC>MOL_PROPERTY
VConf Rank
SciTegic.value.IntegerValue
191

@<SCITEGIC>MOL_PROPERTY
Conf_Id
SciTegic.value.IntegerValue
86

@<SCITEGIC>MOL_PROPERTY
Delta U+W
SciTegic.value.DoubleValue
1.248

@<SCITEGIC>MOL_PROPERTY
U+W
SciTegic.value.DoubleValue
-50.498

@<SCITEGIC>MOL_PROPERTY
Grad RMS
SciTegic.value.DoubleValue
0.000000

@<SCITEGIC>MOL_PROPERTY
U
SciTegic.value.DoubleValue
10.404

@<SCITEGIC>MOL_PROPERTY
W
SciTegic.value.DoubleValue
-60.901

@<SCITEGIC>MOL_PROPERTY
W(PB)
SciTegic.value.DoubleValue
-63.061

@<SCITEGIC>MOL_PROPERTY
W(SA)
SciTegic.value.DoubleValue
2.159

@<SCITEGIC>MOL_PROPERTY
Valence
SciTegic.value.DoubleValue
10.021

@<SCITEGIC>MOL_PROPERTY
Coulomb
SciTegic.value.DoubleValue
0.094

@<SCITEGIC>MOL_PROPERTY
VdW
SciTegic.value.DoubleValue
0.289

@<SCITEGIC>MOL_PROPERTY
VdW6
SciTegic.value.DoubleValue
-8.409

@<SCITEGIC>MOL_PROPERTY
VdW12
SciTegic.value.DoubleValue
8.698

@<SCITEGIC>MOL_PROPERTY
Bond
SciTegic.value.DoubleValue
0.179

@<SCITEGIC>MOL_PROPERTY
Angle
SciTegic.value.DoubleValue
2.939

@<SCITEGIC>MOL_PROPERTY
Pdih
SciTegic.value.DoubleValue
6.902

@<SCITEGIC>MOL_PROPERTY
Idih
SciTegic.value.DoubleValue
0.001

@<SCITEGIC>MOL_PROPERTY
Tether
SciTegic.value.DoubleValue
0.000

@<TRIPOS>MOLECULE
guest-s22_confgen4.mol2 : confsearch ligand conformer 192
          20          19           1
SMALL
USER_CHARGES
 
@<TRIPOS>ATOM
       1    C1      18.401139   20.477330   19.611188 C.2        1 MOL1        -0.2535
       2    H1      18.217397   21.489343   19.254577 H          1 MOL1         0.0845
       3    H2      18.931540   19.799469   18.944404 H          1 MOL1         0.0845
       4    C2      17.993299   20.087332   20.821805 C.2        1 MOL1        -0.1324
       5    H3      17.465854   20.782175   21.474786 H          1 MOL1         0.0833
       6    C3      18.212369   18.699511   21.385732 C.3        1 MOL1        -0.1813
       7    H4      18.562025   18.014020   20.601830 H          1 MOL1         0.0753
       8    H5      17.252459   18.300870   21.739963 H          1 MOL1         0.0753
       9    C4      19.217064   18.695312   22.559884 C.3        1 MOL1        -0.1855
      10    H6      18.870098   19.383631   23.342670 H          1 MOL1         0.0755
      11    H7      19.230554   17.692580   23.008612 H          1 MOL1         0.0755
      12    C5      20.649787   19.080327   22.120945 C.3        1 MOL1        -0.1855
      13    H8      20.638958   20.085358   21.678380 H          1 MOL1         0.0755
      14    H9      20.994989   18.394018   21.335345 H          1 MOL1         0.0755
      15    C6      21.659036   19.064151   23.298309 C.3        1 MOL1        -0.1958
      16    H10     22.623392   19.460460   22.959346 H          1 MOL1         0.0753
      17    H11     21.311139   19.721471   24.104334 H          1 MOL1         0.0753
      18    C7      21.914623   17.675699   23.877622 C.2        1 MOL1         0.6174
      19    O1      22.629602   16.917272   23.252545 O.co2      1 MOL1        -0.6695
      20    O2      21.402384   17.392827   24.942837 O.co2      1 MOL1        -0.6695
@<TRIPOS>BOND
    1     1     2    1
    2     1     3    1
    3     1     4    2
    4     4     5    1
    5     4     6    1
    6     6     7    1
    7     6     8    1
    8     6     9    1
    9     9    10    1
   10     9    11    1
   11     9    12    1
   12    12    13    1
   13    12    14    1
   14    12    15    1
   15    15    16    1
   16    15    17    1
   17    15    18    1
   18    18    19    1
   19    18    20    2
@<TRIPOS>SUBSTRUCTURE
       1 MOL1            1 RESIDUE      1      MOL     
@<SCITEGIC>MOL_PROPERTY
VConf Rank
SciTegic.value.IntegerValue
192

@<SCITEGIC>MOL_PROPERTY
Conf_Id
SciTegic.value.IntegerValue
28

@<SCITEGIC>MOL_PROPERTY
Delta U+W
SciTegic.value.DoubleValue
0.446

@<SCITEGIC>MOL_PROPERTY
U+W
SciTegic.value.DoubleValue
-51.299

@<SCITEGIC>MOL_PROPERTY
Grad RMS
SciTegic.value.DoubleValue
0.000000

@<SCITEGIC>MOL_PROPERTY
U
SciTegic.value.DoubleValue
9.295

@<SCITEGIC>MOL_PROPERTY
W
SciTegic.value.DoubleValue
-60.594

@<SCITEGIC>MOL_PROPERTY
W(PB)
SciTegic.value.DoubleValue
-62.806

@<SCITEGIC>MOL_PROPERTY
W(SA)
SciTegic.value.DoubleValue
2.212

@<SCITEGIC>MOL_PROPERTY
Valence
SciTegic.value.DoubleValue
9.495

@<SCITEGIC>MOL_PROPERTY
Coulomb
SciTegic.value.DoubleValue
-0.610

@<SCITEGIC>MOL_PROPERTY
VdW
SciTegic.value.DoubleValue
0.409

@<SCITEGIC>MOL_PROPERTY
VdW6
SciTegic.value.DoubleValue
-7.332

@<SCITEGIC>MOL_PROPERTY
VdW12
SciTegic.value.DoubleValue
7.741

@<SCITEGIC>MOL_PROPERTY
Bond
SciTegic.value.DoubleValue
0.126

@<SCITEGIC>MOL_PROPERTY
Angle
SciTegic.value.DoubleValue
2.497

@<SCITEGIC>MOL_PROPERTY
Pdih
SciTegic.value.DoubleValue
6.872

@<SCITEGIC>MOL_PROPERTY
Idih
SciTegic.value.DoubleValue
0.000

@<SCITEGIC>MOL_PROPERTY
Tether
SciTegic.value.DoubleValue
0.000

@<TRIPOS>MOLECULE
guest-s22_confgen4.mol2 : confsearch ligand conformer 193
          20          19           1
SMALL
USER_CHARGES
 
@<TRIPOS>ATOM
       1    C1      20.980770   21.022141   24.462483 C.2        1 MOL1        -0.2535
       2    H1      21.340899   20.006656   24.612792 H          1 MOL1         0.0845
       3    H2      21.406897   21.794071   25.100981 H          1 MOL1         0.0845
       4    C2      20.061646   21.328953   23.539958 C.2        1 MOL1        -0.1324
       5    H3      19.742082   22.365472   23.434851 H          1 MOL1         0.0833
       6    C3      19.378418   20.366924   22.582275 C.3        1 MOL1        -0.1813
       7    H4      19.630309   20.663034   21.555860 H          1 MOL1         0.0753
       8    H5      18.291512   20.494252   22.672701 H          1 MOL1         0.0753
       9    C4      19.729859   18.873665   22.795032 C.3        1 MOL1        -0.1855
      10    H6      20.803274   18.718447   22.619359 H          1 MOL1         0.0755
      11    H7      19.541060   18.607679   23.843984 H          1 MOL1         0.0755
      12    C5      18.911361   17.912674   21.897469 C.3        1 MOL1        -0.1855
      13    H8      17.841912   18.037724   22.114331 H          1 MOL1         0.0755
      14    H9      19.160727   16.877620   22.169296 H          1 MOL1         0.0755
      15    C6      19.146679   18.096975   20.373227 C.3        1 MOL1        -0.1958
      16    H10     18.520820   17.386027   19.821401 H          1 MOL1         0.0753
      17    H11     18.836125   19.097382   20.051297 H          1 MOL1         0.0753
      18    C7      20.589466   17.867050   19.932311 C.2        1 MOL1         0.6174
      19    O1      21.020616   16.730785   19.953872 O.co2      1 MOL1        -0.6695
      20    O2      21.237271   18.825211   19.559307 O.co2      1 MOL1        -0.6695
@<TRIPOS>BOND
    1     1     2    1
    2     1     3    1
    3     1     4    2
    4     4     5    1
    5     4     6    1
    6     6     7    1
    7     6     8    1
    8     6     9    1
    9     9    10    1
   10     9    11    1
   11     9    12    1
   12    12    13    1
   13    12    14    1
   14    12    15    1
   15    15    16    1
   16    15    17    1
   17    15    18    1
   18    18    19    1
   19    18    20    2
@<TRIPOS>SUBSTRUCTURE
       1 MOL1            1 RESIDUE      1      MOL     
@<SCITEGIC>MOL_PROPERTY
VConf Rank
SciTegic.value.IntegerValue
193

@<SCITEGIC>MOL_PROPERTY
Conf_Id
SciTegic.value.IntegerValue
53

@<SCITEGIC>MOL_PROPERTY
Delta U+W
SciTegic.value.DoubleValue
0.549

@<SCITEGIC>MOL_PROPERTY
U+W
SciTegic.value.DoubleValue
-51.197

@<SCITEGIC>MOL_PROPERTY
Grad RMS
SciTegic.value.DoubleValue
0.000000

@<SCITEGIC>MOL_PROPERTY
U
SciTegic.value.DoubleValue
10.870

@<SCITEGIC>MOL_PROPERTY
W
SciTegic.value.DoubleValue
-62.067

@<SCITEGIC>MOL_PROPERTY
W(PB)
SciTegic.value.DoubleValue
-64.228

@<SCITEGIC>MOL_PROPERTY
W(SA)
SciTegic.value.DoubleValue
2.161

@<SCITEGIC>MOL_PROPERTY
Valence
SciTegic.value.DoubleValue
8.803

@<SCITEGIC>MOL_PROPERTY
Coulomb
SciTegic.value.DoubleValue
1.020

@<SCITEGIC>MOL_PROPERTY
VdW
SciTegic.value.DoubleValue
1.048

@<SCITEGIC>MOL_PROPERTY
VdW6
SciTegic.value.DoubleValue
-8.312

@<SCITEGIC>MOL_PROPERTY
VdW12
SciTegic.value.DoubleValue
9.360

@<SCITEGIC>MOL_PROPERTY
Bond
SciTegic.value.DoubleValue
0.212

@<SCITEGIC>MOL_PROPERTY
Angle
SciTegic.value.DoubleValue
3.379

@<SCITEGIC>MOL_PROPERTY
Pdih
SciTegic.value.DoubleValue
5.211

@<SCITEGIC>MOL_PROPERTY
Idih
SciTegic.value.DoubleValue
0.001

@<SCITEGIC>MOL_PROPERTY
Tether
SciTegic.value.DoubleValue
0.000

@<TRIPOS>MOLECULE
guest-s22_confgen4.mol2 : confsearch ligand conformer 194
          20          19           1
SMALL
USER_CHARGES
 
@<TRIPOS>ATOM
       1    C1      18.677105   18.754940   24.670078 C.2        1 MOL1        -0.2535
       2    H1      18.978072   17.718667   24.532759 H          1 MOL1         0.0845
       3    H2      17.849606   18.943004   25.351841 H          1 MOL1         0.0845
       4    C2      19.290385   19.763744   24.041701 C.2        1 MOL1        -0.1324
       5    H3      18.951202   20.784316   24.216885 H          1 MOL1         0.0833
       6    C3      20.448190   19.646718   23.064110 C.3        1 MOL1        -0.1813
       7    H4      21.383230   19.858319   23.599205 H          1 MOL1         0.0753
       8    H5      20.367016   20.446664   22.317064 H          1 MOL1         0.0753
       9    C4      20.578320   18.287650   22.328058 C.3        1 MOL1        -0.1855
      10    H6      21.488728   18.308858   21.713609 H          1 MOL1         0.0755
      11    H7      20.737956   17.488144   23.063334 H          1 MOL1         0.0755
      12    C5      19.372168   17.919755   21.424342 C.3        1 MOL1        -0.1855
      13    H8      18.467104   17.823056   22.037582 H          1 MOL1         0.0755
      14    H9      19.550585   16.928014   20.986580 H          1 MOL1         0.0755
      15    C6      19.096784   18.927867   20.275345 C.3        1 MOL1        -0.1958
      16    H10     18.229344   18.589783   19.696715 H          1 MOL1         0.0753
      17    H11     18.833983   19.911723   20.680271 H          1 MOL1         0.0753
      18    C7      20.257545   19.093812   19.298860 C.2        1 MOL1         0.6174
      19    O1      20.887054   20.133184   19.322952 O.co2      1 MOL1        -0.6695
      20    O2      20.490191   18.184571   18.526419 O.co2      1 MOL1        -0.6695
@<TRIPOS>BOND
    1     1     2    1
    2     1     3    1
    3     1     4    2
    4     4     5    1
    5     4     6    1
    6     6     7    1
    7     6     8    1
    8     6     9    1
    9     9    10    1
   10     9    11    1
   11     9    12    1
   12    12    13    1
   13    12    14    1
   14    12    15    1
   15    15    16    1
   16    15    17    1
   17    15    18    1
   18    18    19    1
   19    18    20    2
@<TRIPOS>SUBSTRUCTURE
       1 MOL1            1 RESIDUE      1      MOL     
@<SCITEGIC>MOL_PROPERTY
VConf Rank
SciTegic.value.IntegerValue
194

@<SCITEGIC>MOL_PROPERTY
Conf_Id
SciTegic.value.IntegerValue
66

@<SCITEGIC>MOL_PROPERTY
Delta U+W
SciTegic.value.DoubleValue
1.737

@<SCITEGIC>MOL_PROPERTY
U+W
SciTegic.value.DoubleValue
-50.008

@<SCITEGIC>MOL_PROPERTY
Grad RMS
SciTegic.value.DoubleValue
0.000000

@<SCITEGIC>MOL_PROPERTY
U
SciTegic.value.DoubleValue
11.091

@<SCITEGIC>MOL_PROPERTY
W
SciTegic.value.DoubleValue
-61.099

@<SCITEGIC>MOL_PROPERTY
W(PB)
SciTegic.value.DoubleValue
-63.213

@<SCITEGIC>MOL_PROPERTY
W(SA)
SciTegic.value.DoubleValue
2.114

@<SCITEGIC>MOL_PROPERTY
Valence
SciTegic.value.DoubleValue
9.664

@<SCITEGIC>MOL_PROPERTY
Coulomb
SciTegic.value.DoubleValue
0.658

@<SCITEGIC>MOL_PROPERTY
VdW
SciTegic.value.DoubleValue
0.769

@<SCITEGIC>MOL_PROPERTY
VdW6
SciTegic.value.DoubleValue
-9.171

@<SCITEGIC>MOL_PROPERTY
VdW12
SciTegic.value.DoubleValue
9.940

@<SCITEGIC>MOL_PROPERTY
Bond
SciTegic.value.DoubleValue
0.244

@<SCITEGIC>MOL_PROPERTY
Angle
SciTegic.value.DoubleValue
3.658

@<SCITEGIC>MOL_PROPERTY
Pdih
SciTegic.value.DoubleValue
5.762

@<SCITEGIC>MOL_PROPERTY
Idih
SciTegic.value.DoubleValue
0.001

@<SCITEGIC>MOL_PROPERTY
Tether
SciTegic.value.DoubleValue
0.000

@<TRIPOS>MOLECULE
guest-s22_confgen4.mol2 : confsearch ligand conformer 195
          20          19           1
SMALL
USER_CHARGES
 
@<TRIPOS>ATOM
       1    C1      16.879567   19.308918   22.226937 C.2        1 MOL1        -0.2535
       2    H1      17.205501   20.345425   22.277977 H          1 MOL1         0.0845
       3    H2      15.925193   19.114971   21.740634 H          1 MOL1         0.0845
       4    C2      17.603764   18.307546   22.738478 C.2        1 MOL1        -0.1324
       5    H3      17.228253   17.287534   22.661630 H          1 MOL1         0.0833
       6    C3      18.948872   18.428490   23.436083 C.3        1 MOL1        -0.1813
       7    H4      19.550754   17.541300   23.203098 H          1 MOL1         0.0753
       8    H5      18.786199   18.379849   24.520866 H          1 MOL1         0.0753
       9    C4      19.774275   19.698789   23.102363 C.3        1 MOL1        -0.1855
      10    H6      19.201231   20.591057   23.386918 H          1 MOL1         0.0755
      11    H7      20.672864   19.710323   23.734054 H          1 MOL1         0.0755
      12    C5      20.208692   19.818074   21.619206 C.3        1 MOL1        -0.1855
      13    H8      20.707972   20.786540   21.477882 H          1 MOL1         0.0755
      14    H9      19.327034   19.828901   20.964866 H          1 MOL1         0.0755
      15    C6      21.171882   18.691567   21.162957 C.3        1 MOL1        -0.1958
      16    H10     22.034577   18.633996   21.837193 H          1 MOL1         0.0753
      17    H11     20.667910   17.718971   21.193156 H          1 MOL1         0.0753
      18    C7      21.693839   18.900149   19.745812 C.2        1 MOL1         0.6174
      19    O1      21.074021   18.404046   18.825779 O.co2      1 MOL1        -0.6695
      20    O2      22.699696   19.565932   19.597765 O.co2      1 MOL1        -0.6695
@<TRIPOS>BOND
    1     1     2    1
    2     1     3    1
    3     1     4    2
    4     4     5    1
    5     4     6    1
    6     6     7    1
    7     6     8    1
    8     6     9    1
    9     9    10    1
   10     9    11    1
   11     9    12    1
   12    12    13    1
   13    12    14    1
   14    12    15    1
   15    15    16    1
   16    15    17    1
   17    15    18    1
   18    18    19    1
   19    18    20    2
@<TRIPOS>SUBSTRUCTURE
       1 MOL1            1 RESIDUE      1      MOL     
@<SCITEGIC>MOL_PROPERTY
VConf Rank
SciTegic.value.IntegerValue
195

@<SCITEGIC>MOL_PROPERTY
Conf_Id
SciTegic.value.IntegerValue
64

@<SCITEGIC>MOL_PROPERTY
Delta U+W
SciTegic.value.DoubleValue
0.366

@<SCITEGIC>MOL_PROPERTY
U+W
SciTegic.value.DoubleValue
-51.379

@<SCITEGIC>MOL_PROPERTY
Grad RMS
SciTegic.value.DoubleValue
0.000000

@<SCITEGIC>MOL_PROPERTY
U
SciTegic.value.DoubleValue
10.000

@<SCITEGIC>MOL_PROPERTY
W
SciTegic.value.DoubleValue
-61.379

@<SCITEGIC>MOL_PROPERTY
W(PB)
SciTegic.value.DoubleValue
-63.541

@<SCITEGIC>MOL_PROPERTY
W(SA)
SciTegic.value.DoubleValue
2.162

@<SCITEGIC>MOL_PROPERTY
Valence
SciTegic.value.DoubleValue
9.398

@<SCITEGIC>MOL_PROPERTY
Coulomb
SciTegic.value.DoubleValue
-0.504

@<SCITEGIC>MOL_PROPERTY
VdW
SciTegic.value.DoubleValue
1.105

@<SCITEGIC>MOL_PROPERTY
VdW6
SciTegic.value.DoubleValue
-7.975

@<SCITEGIC>MOL_PROPERTY
VdW12
SciTegic.value.DoubleValue
9.080

@<SCITEGIC>MOL_PROPERTY
Bond
SciTegic.value.DoubleValue
0.216

@<SCITEGIC>MOL_PROPERTY
Angle
SciTegic.value.DoubleValue
3.417

@<SCITEGIC>MOL_PROPERTY
Pdih
SciTegic.value.DoubleValue
5.765

@<SCITEGIC>MOL_PROPERTY
Idih
SciTegic.value.DoubleValue
0.001

@<SCITEGIC>MOL_PROPERTY
Tether
SciTegic.value.DoubleValue
0.000

@<TRIPOS>MOLECULE
guest-s22_confgen4.mol2 : confsearch ligand conformer 196
          20          19           1
SMALL
USER_CHARGES
 
@<TRIPOS>ATOM
       1    C1      20.941058   16.382323   21.279733 C.2        1 MOL1        -0.2535
       2    H1      19.932901   16.005869   21.445021 H          1 MOL1         0.0845
       3    H2      21.769251   15.763820   21.621279 H          1 MOL1         0.0845
       4    C2      21.157397   17.558602   20.685108 C.2        1 MOL1        -0.1324
       5    H3      22.174418   17.918374   20.531403 H          1 MOL1         0.0833
       6    C3      20.058781   18.472394   20.185103 C.3        1 MOL1        -0.1813
       7    H4      19.090880   17.952975   20.191793 H          1 MOL1         0.0753
       8    H5      20.260853   18.737064   19.138699 H          1 MOL1         0.0753
       9    C4      19.953204   19.770841   21.016264 C.3        1 MOL1        -0.1855
      10    H6      20.921504   20.289916   21.010068 H          1 MOL1         0.0755
      11    H7      19.232302   20.443989   20.532471 H          1 MOL1         0.0755
      12    C5      19.507296   19.511527   22.473489 C.3        1 MOL1        -0.1855
      13    H8      20.235022   18.860358   22.977099 H          1 MOL1         0.0755
      14    H9      18.547164   18.977277   22.477137 H          1 MOL1         0.0755
      15    C6      19.363878   20.828528   23.275338 C.3        1 MOL1        -0.1958
      16    H10     20.318741   21.367574   23.291250 H          1 MOL1         0.0753
      17    H11     18.628117   21.485628   22.796422 H          1 MOL1         0.0753
      18    C7      18.924991   20.598796   24.717106 C.2        1 MOL1         0.6174
      19    O1      17.733882   20.553276   24.953618 O.co2      1 MOL1        -0.6695
      20    O2      19.785486   20.457481   25.563432 O.co2      1 MOL1        -0.6695
@<TRIPOS>BOND
    1     1     2    1
    2     1     3    1
    3     1     4    2
    4     4     5    1
    5     4     6    1
    6     6     7    1
    7     6     8    1
    8     6     9    1
    9     9    10    1
   10     9    11    1
   11     9    12    1
   12    12    13    1
   13    12    14    1
   14    12    15    1
   15    15    16    1
   16    15    17    1
   17    15    18    1
   18    18    19    1
   19    18    20    2
@<TRIPOS>SUBSTRUCTURE
       1 MOL1            1 RESIDUE      1      MOL     
@<SCITEGIC>MOL_PROPERTY
VConf Rank
SciTegic.value.IntegerValue
196

@<SCITEGIC>MOL_PROPERTY
Conf_Id
SciTegic.value.IntegerValue
42

@<SCITEGIC>MOL_PROPERTY
Delta U+W
SciTegic.value.DoubleValue
-0.601

@<SCITEGIC>MOL_PROPERTY
U+W
SciTegic.value.DoubleValue
-52.347

@<SCITEGIC>MOL_PROPERTY
Grad RMS
SciTegic.value.DoubleValue
0.000000

@<SCITEGIC>MOL_PROPERTY
U
SciTegic.value.DoubleValue
8.428

@<SCITEGIC>MOL_PROPERTY
W
SciTegic.value.DoubleValue
-60.774

@<SCITEGIC>MOL_PROPERTY
W(PB)
SciTegic.value.DoubleValue
-62.982

@<SCITEGIC>MOL_PROPERTY
W(SA)
SciTegic.value.DoubleValue
2.208

@<SCITEGIC>MOL_PROPERTY
Valence
SciTegic.value.DoubleValue
9.231

@<SCITEGIC>MOL_PROPERTY
Coulomb
SciTegic.value.DoubleValue
-1.304

@<SCITEGIC>MOL_PROPERTY
VdW
SciTegic.value.DoubleValue
0.501

@<SCITEGIC>MOL_PROPERTY
VdW6
SciTegic.value.DoubleValue
-6.515

@<SCITEGIC>MOL_PROPERTY
VdW12
SciTegic.value.DoubleValue
7.016

@<SCITEGIC>MOL_PROPERTY
Bond
SciTegic.value.DoubleValue
0.103

@<SCITEGIC>MOL_PROPERTY
Angle
SciTegic.value.DoubleValue
2.328

@<SCITEGIC>MOL_PROPERTY
Pdih
SciTegic.value.DoubleValue
6.799

@<SCITEGIC>MOL_PROPERTY
Idih
SciTegic.value.DoubleValue
0.000

@<SCITEGIC>MOL_PROPERTY
Tether
SciTegic.value.DoubleValue
0.000

@<TRIPOS>MOLECULE
guest-s22_confgen4.mol2 : confsearch ligand conformer 197
          20          19           1
SMALL
USER_CHARGES
 
@<TRIPOS>ATOM
       1    C1      19.151675   16.280800   21.758519 C.2        1 MOL1        -0.2535
       2    H1      19.427556   16.046736   22.785407 H          1 MOL1         0.0845
       3    H2      19.430399   15.563299   20.988713 H          1 MOL1         0.0845
       4    C2      18.500143   17.405375   21.450523 C.2        1 MOL1        -0.1324
       5    H3      18.235820   17.622174   20.415856 H          1 MOL1         0.0833
       6    C3      18.081270   18.449119   22.463958 C.3        1 MOL1        -0.1813
       7    H4      18.207200   18.067885   23.486412 H          1 MOL1         0.0753
       8    H5      17.010401   18.658925   22.341351 H          1 MOL1         0.0753
       9    C4      18.868844   19.769053   22.304400 C.3        1 MOL1        -0.1855
      10    H6      18.735984   20.152072   21.283134 H          1 MOL1         0.0755
      11    H7      18.440292   20.522505   22.979230 H          1 MOL1         0.0755
      12    C5      20.375544   19.606270   22.615247 C.3        1 MOL1        -0.1855
      13    H8      20.826674   18.885494   21.919318 H          1 MOL1         0.0755
      14    H9      20.493634   19.186943   23.623438 H          1 MOL1         0.0755
      15    C6      21.149309   20.947667   22.533007 C.3        1 MOL1        -0.1958
      16    H10     20.697751   21.687848   23.204538 H          1 MOL1         0.0753
      17    H11     22.180406   20.797140   22.873846 H          1 MOL1         0.0753
      18    C7      21.214061   21.540459   21.128295 C.2        1 MOL1         0.6174
      19    O1      20.482694   22.474231   20.863083 O.co2      1 MOL1        -0.6695
      20    O2      22.008312   21.063557   20.341641 O.co2      1 MOL1        -0.6695
@<TRIPOS>BOND
    1     1     2    1
    2     1     3    1
    3     1     4    2
    4     4     5    1
    5     4     6    1
    6     6     7    1
    7     6     8    1
    8     6     9    1
    9     9    10    1
   10     9    11    1
   11     9    12    1
   12    12    13    1
   13    12    14    1
   14    12    15    1
   15    15    16    1
   16    15    17    1
   17    15    18    1
   18    18    19    1
   19    18    20    2
@<TRIPOS>SUBSTRUCTURE
       1 MOL1            1 RESIDUE      1      MOL     
@<SCITEGIC>MOL_PROPERTY
VConf Rank
SciTegic.value.IntegerValue
197

@<SCITEGIC>MOL_PROPERTY
Conf_Id
SciTegic.value.IntegerValue
68

@<SCITEGIC>MOL_PROPERTY
Delta U+W
SciTegic.value.DoubleValue
0.492

@<SCITEGIC>MOL_PROPERTY
U+W
SciTegic.value.DoubleValue
-51.253

@<SCITEGIC>MOL_PROPERTY
Grad RMS
SciTegic.value.DoubleValue
0.000000

@<SCITEGIC>MOL_PROPERTY
U
SciTegic.value.DoubleValue
10.179

@<SCITEGIC>MOL_PROPERTY
W
SciTegic.value.DoubleValue
-61.432

@<SCITEGIC>MOL_PROPERTY
W(PB)
SciTegic.value.DoubleValue
-63.627

@<SCITEGIC>MOL_PROPERTY
W(SA)
SciTegic.value.DoubleValue
2.195

@<SCITEGIC>MOL_PROPERTY
Valence
SciTegic.value.DoubleValue
9.483

@<SCITEGIC>MOL_PROPERTY
Coulomb
SciTegic.value.DoubleValue
0.361

@<SCITEGIC>MOL_PROPERTY
VdW
SciTegic.value.DoubleValue
0.335

@<SCITEGIC>MOL_PROPERTY
VdW6
SciTegic.value.DoubleValue
-7.385

@<SCITEGIC>MOL_PROPERTY
VdW12
SciTegic.value.DoubleValue
7.720

@<SCITEGIC>MOL_PROPERTY
Bond
SciTegic.value.DoubleValue
0.125

@<SCITEGIC>MOL_PROPERTY
Angle
SciTegic.value.DoubleValue
2.487

@<SCITEGIC>MOL_PROPERTY
Pdih
SciTegic.value.DoubleValue
6.870

@<SCITEGIC>MOL_PROPERTY
Idih
SciTegic.value.DoubleValue
0.001

@<SCITEGIC>MOL_PROPERTY
Tether
SciTegic.value.DoubleValue
0.000

@<TRIPOS>MOLECULE
guest-s22_confgen4.mol2 : confsearch ligand conformer 198
          20          19           1
SMALL
USER_CHARGES
 
@<TRIPOS>ATOM
       1    C1      18.648782   21.074279   19.675915 C.2        1 MOL1        -0.2535
       2    H1      17.586032   20.842130   19.629434 H          1 MOL1         0.0845
       3    H2      19.148668   21.323337   18.741430 H          1 MOL1         0.0845
       4    C2      19.317579   21.052037   20.831731 C.2        1 MOL1        -0.1324
       5    H3      20.380526   21.290359   20.856090 H          1 MOL1         0.0833
       6    C3      18.688869   20.721132   22.168521 C.3        1 MOL1        -0.1813
       7    H4      17.598747   20.839849   22.104804 H          1 MOL1         0.0753
       8    H5      19.031628   21.434437   22.929906 H          1 MOL1         0.0753
       9    C4      19.003777   19.278842   22.625484 C.3        1 MOL1        -0.1855
      10    H6      18.418028   19.057356   23.528029 H          1 MOL1         0.0755
      11    H7      18.668596   18.571895   21.853812 H          1 MOL1         0.0755
      12    C5      20.504955   19.057918   22.927786 C.3        1 MOL1        -0.1855
      13    H8      20.839827   19.801698   23.663288 H          1 MOL1         0.0755
      14    H9      21.099926   19.220921   22.018801 H          1 MOL1         0.0755
      15    C6      20.798119   17.638219   23.478573 C.3        1 MOL1        -0.1958
      16    H10     21.849107   17.573615   23.783951 H          1 MOL1         0.0753
      17    H11     20.194988   17.446706   24.374296 H          1 MOL1         0.0753
      18    C7      20.544865   16.518832   22.472754 C.2        1 MOL1         0.6174
      19    O1      21.374285   16.331234   21.604436 O.co2      1 MOL1        -0.6695
      20    O2      19.536170   15.851996   22.595181 O.co2      1 MOL1        -0.6695
@<TRIPOS>BOND
    1     1     2    1
    2     1     3    1
    3     1     4    2
    4     4     5    1
    5     4     6    1
    6     6     7    1
    7     6     8    1
    8     6     9    1
    9     9    10    1
   10     9    11    1
   11     9    12    1
   12    12    13    1
   13    12    14    1
   14    12    15    1
   15    15    16    1
   16    15    17    1
   17    15    18    1
   18    18    19    1
   19    18    20    2
@<TRIPOS>SUBSTRUCTURE
       1 MOL1            1 RESIDUE      1      MOL     
@<SCITEGIC>MOL_PROPERTY
VConf Rank
SciTegic.value.IntegerValue
198

@<SCITEGIC>MOL_PROPERTY
Conf_Id
SciTegic.value.IntegerValue
87

@<SCITEGIC>MOL_PROPERTY
Delta U+W
SciTegic.value.DoubleValue
0.339

@<SCITEGIC>MOL_PROPERTY
U+W
SciTegic.value.DoubleValue
-51.407

@<SCITEGIC>MOL_PROPERTY
Grad RMS
SciTegic.value.DoubleValue
0.000000

@<SCITEGIC>MOL_PROPERTY
U
SciTegic.value.DoubleValue
10.461

@<SCITEGIC>MOL_PROPERTY
W
SciTegic.value.DoubleValue
-61.867

@<SCITEGIC>MOL_PROPERTY
W(PB)
SciTegic.value.DoubleValue
-64.045

@<SCITEGIC>MOL_PROPERTY
W(SA)
SciTegic.value.DoubleValue
2.178

@<SCITEGIC>MOL_PROPERTY
Valence
SciTegic.value.DoubleValue
9.555

@<SCITEGIC>MOL_PROPERTY
Coulomb
SciTegic.value.DoubleValue
0.483

@<SCITEGIC>MOL_PROPERTY
VdW
SciTegic.value.DoubleValue
0.423

@<SCITEGIC>MOL_PROPERTY
VdW6
SciTegic.value.DoubleValue
-7.223

@<SCITEGIC>MOL_PROPERTY
VdW12
SciTegic.value.DoubleValue
7.646

@<SCITEGIC>MOL_PROPERTY
Bond
SciTegic.value.DoubleValue
0.126

@<SCITEGIC>MOL_PROPERTY
Angle
SciTegic.value.DoubleValue
2.492

@<SCITEGIC>MOL_PROPERTY
Pdih
SciTegic.value.DoubleValue
6.936

@<SCITEGIC>MOL_PROPERTY
Idih
SciTegic.value.DoubleValue
0.001

@<SCITEGIC>MOL_PROPERTY
Tether
SciTegic.value.DoubleValue
0.000

@<TRIPOS>MOLECULE
guest-s22_confgen4.mol2 : confsearch ligand conformer 199
          20          19           1
SMALL
USER_CHARGES
 
@<TRIPOS>ATOM
       1    C1      17.510133   17.181186   22.792865 C.2        1 MOL1        -0.2535
       2    H1      17.893507   16.197446   22.526978 H          1 MOL1         0.0845
       3    H2      16.921737   17.261134   23.705235 H          1 MOL1         0.0845
       4    C2      17.753262   18.251111   22.031379 C.2        1 MOL1        -0.1324
       5    H3      17.353352   19.225576   22.309369 H          1 MOL1         0.0833
       6    C3      18.551296   18.210534   20.745649 C.3        1 MOL1        -0.1813
       7    H4      18.329886   19.094188   20.132404 H          1 MOL1         0.0753
       8    H5      18.216184   17.346949   20.155454 H          1 MOL1         0.0753
       9    C4      20.079289   18.089193   20.968541 C.3        1 MOL1        -0.1855
      10    H6      20.288541   17.323883   21.728441 H          1 MOL1         0.0755
      11    H7      20.527400   17.718439   20.036622 H          1 MOL1         0.0755
      12    C5      20.792127   19.414601   21.337665 C.3        1 MOL1        -0.1855
      13    H8      20.569318   20.181346   20.583014 H          1 MOL1         0.0755
      14    H9      21.877073   19.246034   21.293314 H          1 MOL1         0.0755
      15    C6      20.440021   19.956337   22.746851 C.3        1 MOL1        -0.1958
      16    H10     19.394192   20.276989   22.785643 H          1 MOL1         0.0753
      17    H11     20.569528   19.169482   23.499455 H          1 MOL1         0.0753
      18    C7      21.300324   21.147424   23.152829 C.2        1 MOL1         0.6174
      19    O1      20.921760   22.260524   22.845279 O.co2      1 MOL1        -0.6695
      20    O2      22.337426   20.929935   23.747809 O.co2      1 MOL1        -0.6695
@<TRIPOS>BOND
    1     1     2    1
    2     1     3    1
    3     1     4    2
    4     4     5    1
    5     4     6    1
    6     6     7    1
    7     6     8    1
    8     6     9    1
    9     9    10    1
   10     9    11    1
   11     9    12    1
   12    12    13    1
   13    12    14    1
   14    12    15    1
   15    15    16    1
   16    15    17    1
   17    15    18    1
   18    18    19    1
   19    18    20    2
@<TRIPOS>SUBSTRUCTURE
       1 MOL1            1 RESIDUE      1      MOL     
@<SCITEGIC>MOL_PROPERTY
VConf Rank
SciTegic.value.IntegerValue
199

@<SCITEGIC>MOL_PROPERTY
Conf_Id
SciTegic.value.IntegerValue
51

@<SCITEGIC>MOL_PROPERTY
Delta U+W
SciTegic.value.DoubleValue
1.709

@<SCITEGIC>MOL_PROPERTY
U+W
SciTegic.value.DoubleValue
-50.036

@<SCITEGIC>MOL_PROPERTY
Grad RMS
SciTegic.value.DoubleValue
0.000000

@<SCITEGIC>MOL_PROPERTY
U
SciTegic.value.DoubleValue
10.643

@<SCITEGIC>MOL_PROPERTY
W
SciTegic.value.DoubleValue
-60.679

@<SCITEGIC>MOL_PROPERTY
W(PB)
SciTegic.value.DoubleValue
-62.882

@<SCITEGIC>MOL_PROPERTY
W(SA)
SciTegic.value.DoubleValue
2.203

@<SCITEGIC>MOL_PROPERTY
Valence
SciTegic.value.DoubleValue
11.231

@<SCITEGIC>MOL_PROPERTY
Coulomb
SciTegic.value.DoubleValue
-1.077

@<SCITEGIC>MOL_PROPERTY
VdW
SciTegic.value.DoubleValue
0.489

@<SCITEGIC>MOL_PROPERTY
VdW6
SciTegic.value.DoubleValue
-7.546

@<SCITEGIC>MOL_PROPERTY
VdW12
SciTegic.value.DoubleValue
8.035

@<SCITEGIC>MOL_PROPERTY
Bond
SciTegic.value.DoubleValue
0.159

@<SCITEGIC>MOL_PROPERTY
Angle
SciTegic.value.DoubleValue
3.005

@<SCITEGIC>MOL_PROPERTY
Pdih
SciTegic.value.DoubleValue
8.065

@<SCITEGIC>MOL_PROPERTY
Idih
SciTegic.value.DoubleValue
0.002

@<SCITEGIC>MOL_PROPERTY
Tether
SciTegic.value.DoubleValue
0.000

@<TRIPOS>MOLECULE
guest-s22_confgen4.mol2 : confsearch ligand conformer 200
          20          19           1
SMALL
USER_CHARGES
 
@<TRIPOS>ATOM
       1    C1      19.531815   16.841230   20.264005 C.2        1 MOL1        -0.2535
       2    H1      18.760680   17.101354   19.540747 H          1 MOL1         0.0845
       3    H2      19.602818   15.798782   20.569424 H          1 MOL1         0.0845
       4    C2      20.358662   17.764809   20.761038 C.2        1 MOL1        -0.1324
       5    H3      21.129886   17.483384   21.477144 H          1 MOL1         0.0833
       6    C3      20.324920   19.227442   20.372238 C.3        1 MOL1        -0.1813
       7    H4      20.234893   19.294863   19.279646 H          1 MOL1         0.0753
       8    H5      21.279186   19.709743   20.622633 H          1 MOL1         0.0753
       9    C4      19.151246   20.011208   21.010494 C.3        1 MOL1        -0.1855
      10    H6      18.996295   20.925151   20.421060 H          1 MOL1         0.0755
      11    H7      18.220955   19.433777   20.920692 H          1 MOL1         0.0755
      12    C5      19.374463   20.434911   22.484182 C.3        1 MOL1        -0.1855
      13    H8      18.570545   21.127881   22.768782 H          1 MOL1         0.0755
      14    H9      20.312568   20.999892   22.572469 H          1 MOL1         0.0755
      15    C6      19.382017   19.256694   23.491663 C.3        1 MOL1        -0.1958
      16    H10     18.493506   18.630012   23.349747 H          1 MOL1         0.0753
      17    H11     20.259058   18.621075   23.333958 H          1 MOL1         0.0753
      18    C7      19.407645   19.721837   24.943078 C.2        1 MOL1         0.6174
      19    O1      20.487884   19.916954   25.464520 O.co2      1 MOL1        -0.6695
      20    O2      18.346201   19.896777   25.508422 O.co2      1 MOL1        -0.6695
@<TRIPOS>BOND
    1     1     2    1
    2     1     3    1
    3     1     4    2
    4     4     5    1
    5     4     6    1
    6     6     7    1
    7     6     8    1
    8     6     9    1
    9     9    10    1
   10     9    11    1
   11     9    12    1
   12    12    13    1
   13    12    14    1
   14    12    15    1
   15    15    16    1
   16    15    17    1
   17    15    18    1
   18    18    19    1
   19    18    20    2
@<TRIPOS>SUBSTRUCTURE
       1 MOL1            1 RESIDUE      1      MOL     
@<SCITEGIC>MOL_PROPERTY
VConf Rank
SciTegic.value.IntegerValue
200

@<SCITEGIC>MOL_PROPERTY
Conf_Id
SciTegic.value.IntegerValue
91

@<SCITEGIC>MOL_PROPERTY
Delta U+W
SciTegic.value.DoubleValue
1.604

@<SCITEGIC>MOL_PROPERTY
U+W
SciTegic.value.DoubleValue
-50.141

@<SCITEGIC>MOL_PROPERTY
Grad RMS
SciTegic.value.DoubleValue
0.000000

@<SCITEGIC>MOL_PROPERTY
U
SciTegic.value.DoubleValue
10.644

@<SCITEGIC>MOL_PROPERTY
W
SciTegic.value.DoubleValue
-60.786

@<SCITEGIC>MOL_PROPERTY
W(PB)
SciTegic.value.DoubleValue
-62.965

@<SCITEGIC>MOL_PROPERTY
W(SA)
SciTegic.value.DoubleValue
2.179

@<SCITEGIC>MOL_PROPERTY
Valence
SciTegic.value.DoubleValue
11.230

@<SCITEGIC>MOL_PROPERTY
Coulomb
SciTegic.value.DoubleValue
-1.075

@<SCITEGIC>MOL_PROPERTY
VdW
SciTegic.value.DoubleValue
0.489

@<SCITEGIC>MOL_PROPERTY
VdW6
SciTegic.value.DoubleValue
-7.547

@<SCITEGIC>MOL_PROPERTY
VdW12
SciTegic.value.DoubleValue
8.036

@<SCITEGIC>MOL_PROPERTY
Bond
SciTegic.value.DoubleValue
0.159

@<SCITEGIC>MOL_PROPERTY
Angle
SciTegic.value.DoubleValue
3.006

@<SCITEGIC>MOL_PROPERTY
Pdih
SciTegic.value.DoubleValue
8.064

@<SCITEGIC>MOL_PROPERTY
Idih
SciTegic.value.DoubleValue
0.002

@<SCITEGIC>MOL_PROPERTY
Tether
SciTegic.value.DoubleValue
0.000

@<TRIPOS>MOLECULE
guest-s22_confgen4.mol2 : confsearch ligand conformer 201
          20          19           1
SMALL
USER_CHARGES
 
@<TRIPOS>ATOM
       1    C1      18.155051   18.125146   25.062728 C.2        1 MOL1        -0.2535
       2    H1      17.557310   17.400586   24.511993 H          1 MOL1         0.0845
       3    H2      17.777545   18.454687   26.029252 H          1 MOL1         0.0845
       4    C2      19.305545   18.595723   24.574289 C.2        1 MOL1        -0.1324
       5    H3      19.888467   19.321212   25.141321 H          1 MOL1         0.0833
       6    C3      19.892345   18.184423   23.242321 C.3        1 MOL1        -0.1813
       7    H4      19.392465   17.280030   22.869494 H          1 MOL1         0.0753
       8    H5      20.952677   17.928938   23.371038 H          1 MOL1         0.0753
       9    C4      19.754905   19.314110   22.200309 C.3        1 MOL1        -0.1855
      10    H6      18.692957   19.568674   22.078453 H          1 MOL1         0.0755
      11    H7      20.258935   20.217018   22.571621 H          1 MOL1         0.0755
      12    C5      20.352117   18.911642   20.834121 C.3        1 MOL1        -0.1855
      13    H8      19.848141   18.008886   20.461851 H          1 MOL1         0.0755
      14    H9      21.413857   18.655735   20.955546 H          1 MOL1         0.0755
      15    C6      20.213027   20.047834   19.786209 C.3        1 MOL1        -0.1958
      16    H10     19.155104   20.303909   19.655293 H          1 MOL1         0.0753
      17    H11     20.719326   20.950266   20.148406 H          1 MOL1         0.0753
      18    C7      20.780317   19.731307   18.401540 C.2        1 MOL1         0.6174
      19    O1      20.690938   20.597661   17.554439 O.co2      1 MOL1        -0.6695
      20    O2      21.292046   18.648152   18.192843 O.co2      1 MOL1        -0.6695
@<TRIPOS>BOND
    1     1     2    1
    2     1     3    1
    3     1     4    2
    4     4     5    1
    5     4     6    1
    6     6     7    1
    7     6     8    1
    8     6     9    1
    9     9    10    1
   10     9    11    1
   11     9    12    1
   12    12    13    1
   13    12    14    1
   14    12    15    1
   15    15    16    1
   16    15    17    1
   17    15    18    1
   18    18    19    1
   19    18    20    2
@<TRIPOS>SUBSTRUCTURE
       1 MOL1            1 RESIDUE      1      MOL     
@<SCITEGIC>MOL_PROPERTY
VConf Rank
SciTegic.value.IntegerValue
201

@<SCITEGIC>MOL_PROPERTY
Conf_Id
SciTegic.value.IntegerValue
33

@<SCITEGIC>MOL_PROPERTY
Delta U+W
SciTegic.value.DoubleValue
0.000

@<SCITEGIC>MOL_PROPERTY
U+W
SciTegic.value.DoubleValue
-51.745

@<SCITEGIC>MOL_PROPERTY
Grad RMS
SciTegic.value.DoubleValue
0.000000

@<SCITEGIC>MOL_PROPERTY
U
SciTegic.value.DoubleValue
7.593

@<SCITEGIC>MOL_PROPERTY
W
SciTegic.value.DoubleValue
-59.338

@<SCITEGIC>MOL_PROPERTY
W(PB)
SciTegic.value.DoubleValue
-61.574

@<SCITEGIC>MOL_PROPERTY
W(SA)
SciTegic.value.DoubleValue
2.236

@<SCITEGIC>MOL_PROPERTY
Valence
SciTegic.value.DoubleValue
9.570

@<SCITEGIC>MOL_PROPERTY
Coulomb
SciTegic.value.DoubleValue
-3.091

@<SCITEGIC>MOL_PROPERTY
VdW
SciTegic.value.DoubleValue
1.114

@<SCITEGIC>MOL_PROPERTY
VdW6
SciTegic.value.DoubleValue
-6.064

@<SCITEGIC>MOL_PROPERTY
VdW12
SciTegic.value.DoubleValue
7.178

@<SCITEGIC>MOL_PROPERTY
Bond
SciTegic.value.DoubleValue
0.117

@<SCITEGIC>MOL_PROPERTY
Angle
SciTegic.value.DoubleValue
2.692

@<SCITEGIC>MOL_PROPERTY
Pdih
SciTegic.value.DoubleValue
6.761

@<SCITEGIC>MOL_PROPERTY
Idih
SciTegic.value.DoubleValue
0.000

@<SCITEGIC>MOL_PROPERTY
Tether
SciTegic.value.DoubleValue
0.000

@<TRIPOS>MOLECULE
guest-s22_confgen4.mol2 : confsearch ligand conformer 202
          20          19           1
SMALL
USER_CHARGES
 
@<TRIPOS>ATOM
       1    C1      22.324802   17.842652   24.092930 C.2        1 MOL1        -0.2535
       2    H1      21.573810   17.573714   24.834051 H          1 MOL1         0.0845
       3    H2      23.368203   17.808284   24.401787 H          1 MOL1         0.0845
       4    C2      21.983590   18.203566   22.853177 C.2        1 MOL1        -0.1324
       5    H3      22.750889   18.469883   22.126569 H          1 MOL1         0.0833
       6    C3      20.558043   18.273788   22.352566 C.3        1 MOL1        -0.1813
       7    H4      19.885569   17.752721   23.047450 H          1 MOL1         0.0753
       8    H5      20.488239   17.750366   21.390689 H          1 MOL1         0.0753
       9    C4      20.097615   19.740228   22.193287 C.3        1 MOL1        -0.1855
      10    H6      20.256039   20.265795   23.145138 H          1 MOL1         0.0755
      11    H7      20.728661   20.247163   21.450460 H          1 MOL1         0.0755
      12    C5      18.609168   19.879992   21.794322 C.3        1 MOL1        -0.1855
      13    H8      18.337748   20.944622   21.814026 H          1 MOL1         0.0755
      14    H9      17.975852   19.384839   22.543407 H          1 MOL1         0.0755
      15    C6      18.289269   19.310537   20.387780 C.3        1 MOL1        -0.1958
      16    H10     18.945131   19.766526   19.636579 H          1 MOL1         0.0753
      17    H11     18.464011   18.229145   20.359508 H          1 MOL1         0.0753
      18    C7      16.845048   19.557570   19.966865 C.2        1 MOL1         0.6174
      19    O1      16.009826   18.727596   20.267289 O.co2      1 MOL1        -0.6695
      20    O2      16.589852   20.583063   19.366887 O.co2      1 MOL1        -0.6695
@<TRIPOS>BOND
    1     1     2    1
    2     1     3    1
    3     1     4    2
    4     4     5    1
    5     4     6    1
    6     6     7    1
    7     6     8    1
    8     6     9    1
    9     9    10    1
   10     9    11    1
   11     9    12    1
   12    12    13    1
   13    12    14    1
   14    12    15    1
   15    15    16    1
   16    15    17    1
   17    15    18    1
   18    18    19    1
   19    18    20    2
@<TRIPOS>SUBSTRUCTURE
       1 MOL1            1 RESIDUE      1      MOL     
@<SCITEGIC>MOL_PROPERTY
VConf Rank
SciTegic.value.IntegerValue
202

@<SCITEGIC>MOL_PROPERTY
Conf_Id
SciTegic.value.IntegerValue
37

@<SCITEGIC>MOL_PROPERTY
Delta U+W
SciTegic.value.DoubleValue
-0.384

@<SCITEGIC>MOL_PROPERTY
U+W
SciTegic.value.DoubleValue
-52.130

@<SCITEGIC>MOL_PROPERTY
Grad RMS
SciTegic.value.DoubleValue
0.000000

@<SCITEGIC>MOL_PROPERTY
U
SciTegic.value.DoubleValue
7.491

@<SCITEGIC>MOL_PROPERTY
W
SciTegic.value.DoubleValue
-59.621

@<SCITEGIC>MOL_PROPERTY
W(PB)
SciTegic.value.DoubleValue
-61.853

@<SCITEGIC>MOL_PROPERTY
W(SA)
SciTegic.value.DoubleValue
2.232

@<SCITEGIC>MOL_PROPERTY
Valence
SciTegic.value.DoubleValue
9.604

@<SCITEGIC>MOL_PROPERTY
Coulomb
SciTegic.value.DoubleValue
-2.799

@<SCITEGIC>MOL_PROPERTY
VdW
SciTegic.value.DoubleValue
0.686

@<SCITEGIC>MOL_PROPERTY
VdW6
SciTegic.value.DoubleValue
-6.435

@<SCITEGIC>MOL_PROPERTY
VdW12
SciTegic.value.DoubleValue
7.121

@<SCITEGIC>MOL_PROPERTY
Bond
SciTegic.value.DoubleValue
0.124

@<SCITEGIC>MOL_PROPERTY
Angle
SciTegic.value.DoubleValue
2.493

@<SCITEGIC>MOL_PROPERTY
Pdih
SciTegic.value.DoubleValue
6.986

@<SCITEGIC>MOL_PROPERTY
Idih
SciTegic.value.DoubleValue
0.001

@<SCITEGIC>MOL_PROPERTY
Tether
SciTegic.value.DoubleValue
0.000

@<TRIPOS>MOLECULE
guest-s22_confgen4.mol2 : confsearch ligand conformer 203
          20          19           1
SMALL
USER_CHARGES
 
@<TRIPOS>ATOM
       1    C1      20.100170   16.710840   24.311757 C.2        1 MOL1        -0.2535
       2    H1      20.203558   15.948944   25.082481 H          1 MOL1         0.0845
       3    H2      19.968422   17.736411   24.649979 H          1 MOL1         0.0845
       4    C2      20.136044   16.380860   23.015709 C.2        1 MOL1        -0.1324
       5    H3      20.270598   15.335523   22.738596 H          1 MOL1         0.0833
       6    C3      20.006344   17.326691   21.833510 C.3        1 MOL1        -0.1813
       7    H4      19.163180   16.999308   21.210590 H          1 MOL1         0.0753
       8    H5      20.898481   17.225382   21.201084 H          1 MOL1         0.0753
       9    C4      19.814382   18.815743   22.204806 C.3        1 MOL1        -0.1855
      10    H6      18.911290   18.926944   22.820554 H          1 MOL1         0.0755
      11    H7      20.665407   19.155465   22.810968 H          1 MOL1         0.0755
      12    C5      19.691383   19.707229   20.949758 C.3        1 MOL1        -0.1855
      13    H8      18.841527   19.372342   20.338855 H          1 MOL1         0.0755
      14    H9      20.592055   19.600386   20.329292 H          1 MOL1         0.0755
      15    C6      19.499091   21.198816   21.318917 C.3        1 MOL1        -0.1958
      16    H10     18.595807   21.324930   21.927830 H          1 MOL1         0.0753
      17    H11     20.346362   21.552944   21.918356 H          1 MOL1         0.0753
      18    C7      19.375086   22.100052   20.095649 C.2        1 MOL1         0.6174
      19    O1      18.267192   22.292638   19.635073 O.co2      1 MOL1        -0.6695
      20    O2      20.391682   22.569694   19.623827 O.co2      1 MOL1        -0.6695
@<TRIPOS>BOND
    1     1     2    1
    2     1     3    1
    3     1     4    2
    4     4     5    1
    5     4     6    1
    6     6     7    1
    7     6     8    1
    8     6     9    1
    9     9    10    1
   10     9    11    1
   11     9    12    1
   12    12    13    1
   13    12    14    1
   14    12    15    1
   15    15    16    1
   16    15    17    1
   17    15    18    1
   18    18    19    1
   19    18    20    2
@<TRIPOS>SUBSTRUCTURE
       1 MOL1            1 RESIDUE      1      MOL     
@<SCITEGIC>MOL_PROPERTY
VConf Rank
SciTegic.value.IntegerValue
203

@<SCITEGIC>MOL_PROPERTY
Conf_Id
SciTegic.value.IntegerValue
44

@<SCITEGIC>MOL_PROPERTY
Delta U+W
SciTegic.value.DoubleValue
-1.440

@<SCITEGIC>MOL_PROPERTY
U+W
SciTegic.value.DoubleValue
-53.185

@<SCITEGIC>MOL_PROPERTY
Grad RMS
SciTegic.value.DoubleValue
0.000000

@<SCITEGIC>MOL_PROPERTY
U
SciTegic.value.DoubleValue
6.572

@<SCITEGIC>MOL_PROPERTY
W
SciTegic.value.DoubleValue
-59.757

@<SCITEGIC>MOL_PROPERTY
W(PB)
SciTegic.value.DoubleValue
-62.007

@<SCITEGIC>MOL_PROPERTY
W(SA)
SciTegic.value.DoubleValue
2.249

@<SCITEGIC>MOL_PROPERTY
Valence
SciTegic.value.DoubleValue
7.989

@<SCITEGIC>MOL_PROPERTY
Coulomb
SciTegic.value.DoubleValue
-2.697

@<SCITEGIC>MOL_PROPERTY
VdW
SciTegic.value.DoubleValue
1.281

@<SCITEGIC>MOL_PROPERTY
VdW6
SciTegic.value.DoubleValue
-6.467

@<SCITEGIC>MOL_PROPERTY
VdW12
SciTegic.value.DoubleValue
7.748

@<SCITEGIC>MOL_PROPERTY
Bond
SciTegic.value.DoubleValue
0.136

@<SCITEGIC>MOL_PROPERTY
Angle
SciTegic.value.DoubleValue
2.854

@<SCITEGIC>MOL_PROPERTY
Pdih
SciTegic.value.DoubleValue
4.997

@<SCITEGIC>MOL_PROPERTY
Idih
SciTegic.value.DoubleValue
0.001

@<SCITEGIC>MOL_PROPERTY
Tether
SciTegic.value.DoubleValue
0.000

@<TRIPOS>MOLECULE
guest-s22_confgen4.mol2 : confsearch ligand conformer 204
          20          19           1
SMALL
USER_CHARGES
 
@<TRIPOS>ATOM
       1    C1      18.589638   15.878827   22.545795 C.2        1 MOL1        -0.2535
       2    H1      19.347356   15.931712   23.325952 H          1 MOL1         0.0845
       3    H2      18.167842   14.900278   22.322673 H          1 MOL1         0.0845
       4    C2      18.192244   16.968782   21.884135 C.2        1 MOL1        -0.1324
       5    H3      17.432726   16.893922   21.106212 H          1 MOL1         0.0833
       6    C3      18.730745   18.359014   22.139422 C.3        1 MOL1        -0.1813
       7    H4      19.268653   18.380514   23.095869 H          1 MOL1         0.0753
       8    H5      17.894616   19.065193   22.229596 H          1 MOL1         0.0753
       9    C4      19.668692   18.809405   20.996897 C.3        1 MOL1        -0.1855
      10    H6      20.533254   18.133516   20.943066 H          1 MOL1         0.0755
      11    H7      19.137334   18.709480   20.040467 H          1 MOL1         0.0755
      12    C5      20.157497   20.270662   21.138749 C.3        1 MOL1        -0.1855
      13    H8      19.293982   20.948718   21.182956 H          1 MOL1         0.0755
      14    H9      20.719527   20.543143   20.234660 H          1 MOL1         0.0755
      15    C6      21.062713   20.503346   22.376287 C.3        1 MOL1        -0.1958
      16    H10     20.504098   20.328242   23.302564 H          1 MOL1         0.0753
      17    H11     21.905309   19.801685   22.366219 H          1 MOL1         0.0753
      18    C7      21.626530   21.918437   22.435957 C.2        1 MOL1         0.6174
      19    O1      22.691774   22.134864   21.892680 O.co2      1 MOL1        -0.6695
      20    O2      20.976252   22.771606   23.006880 O.co2      1 MOL1        -0.6695
@<TRIPOS>BOND
    1     1     2    1
    2     1     3    1
    3     1     4    2
    4     4     5    1
    5     4     6    1
    6     6     7    1
    7     6     8    1
    8     6     9    1
    9     9    10    1
   10     9    11    1
   11     9    12    1
   12    12    13    1
   13    12    14    1
   14    12    15    1
   15    15    16    1
   16    15    17    1
   17    15    18    1
   18    18    19    1
   19    18    20    2
@<TRIPOS>SUBSTRUCTURE
       1 MOL1            1 RESIDUE      1      MOL     
@<SCITEGIC>MOL_PROPERTY
VConf Rank
SciTegic.value.IntegerValue
204

@<SCITEGIC>MOL_PROPERTY
Conf_Id
SciTegic.value.IntegerValue
38

@<SCITEGIC>MOL_PROPERTY
Delta U+W
SciTegic.value.DoubleValue
-0.381

@<SCITEGIC>MOL_PROPERTY
U+W
SciTegic.value.DoubleValue
-52.126

@<SCITEGIC>MOL_PROPERTY
Grad RMS
SciTegic.value.DoubleValue
0.000000

@<SCITEGIC>MOL_PROPERTY
U
SciTegic.value.DoubleValue
7.601

@<SCITEGIC>MOL_PROPERTY
W
SciTegic.value.DoubleValue
-59.727

@<SCITEGIC>MOL_PROPERTY
W(PB)
SciTegic.value.DoubleValue
-61.964

@<SCITEGIC>MOL_PROPERTY
W(SA)
SciTegic.value.DoubleValue
2.236

@<SCITEGIC>MOL_PROPERTY
Valence
SciTegic.value.DoubleValue
9.602

@<SCITEGIC>MOL_PROPERTY
Coulomb
SciTegic.value.DoubleValue
-2.686

@<SCITEGIC>MOL_PROPERTY
VdW
SciTegic.value.DoubleValue
0.685

@<SCITEGIC>MOL_PROPERTY
VdW6
SciTegic.value.DoubleValue
-6.453

@<SCITEGIC>MOL_PROPERTY
VdW12
SciTegic.value.DoubleValue
7.139

@<SCITEGIC>MOL_PROPERTY
Bond
SciTegic.value.DoubleValue
0.125

@<SCITEGIC>MOL_PROPERTY
Angle
SciTegic.value.DoubleValue
2.485

@<SCITEGIC>MOL_PROPERTY
Pdih
SciTegic.value.DoubleValue
6.991

@<SCITEGIC>MOL_PROPERTY
Idih
SciTegic.value.DoubleValue
0.001

@<SCITEGIC>MOL_PROPERTY
Tether
SciTegic.value.DoubleValue
0.000

@<TRIPOS>MOLECULE
guest-s22_confgen4.mol2 : confsearch ligand conformer 205
          20          19           1
SMALL
USER_CHARGES
 
@<TRIPOS>ATOM
       1    C1      20.128365   20.923857   18.927697 C.2        1 MOL1        -0.2535
       2    H1      19.699934   20.100489   18.358409 H          1 MOL1         0.0845
       3    H2      20.124350   21.908912   18.464103 H          1 MOL1         0.0845
       4    C2      20.637777   20.737605   20.148137 C.2        1 MOL1        -0.1324
       5    H3      21.061087   21.575510   20.701657 H          1 MOL1         0.0833
       6    C3      20.678857   19.400960   20.854778 C.3        1 MOL1        -0.1813
       7    H4      21.687193   19.227216   21.253773 H          1 MOL1         0.0753
       8    H5      20.475754   18.588568   20.143787 H          1 MOL1         0.0753
       9    C4      19.651511   19.346969   22.004846 C.3        1 MOL1        -0.1855
      10    H6      19.858290   20.158995   22.715682 H          1 MOL1         0.0755
      11    H7      18.644817   19.525963   21.602604 H          1 MOL1         0.0755
      12    C5      19.682494   17.987870   22.739843 C.3        1 MOL1        -0.1855
      13    H8      20.685426   17.810519   23.152602 H          1 MOL1         0.0755
      14    H9      19.490284   17.181753   22.018862 H          1 MOL1         0.0755
      15    C6      18.635346   17.902878   23.880525 C.3        1 MOL1        -0.1958
      16    H10     17.631116   18.105442   23.488929 H          1 MOL1         0.0753
      17    H11     18.618179   16.884896   24.287212 H          1 MOL1         0.0753
      18    C7      18.906027   18.854013   25.042825 C.2        1 MOL1         0.6174
      19    O1      18.216301   19.849394   25.145131 O.co2      1 MOL1        -0.6695
      20    O2      19.793603   18.567421   25.822037 O.co2      1 MOL1        -0.6695
@<TRIPOS>BOND
    1     1     2    1
    2     1     3    1
    3     1     4    2
    4     4     5    1
    5     4     6    1
    6     6     7    1
    7     6     8    1
    8     6     9    1
    9     9    10    1
   10     9    11    1
   11     9    12    1
   12    12    13    1
   13    12    14    1
   14    12    15    1
   15    15    16    1
   16    15    17    1
   17    15    18    1
   18    18    19    1
   19    18    20    2
@<TRIPOS>SUBSTRUCTURE
       1 MOL1            1 RESIDUE      1      MOL     
@<SCITEGIC>MOL_PROPERTY
VConf Rank
SciTegic.value.IntegerValue
205

@<SCITEGIC>MOL_PROPERTY
Conf_Id
SciTegic.value.IntegerValue
58

@<SCITEGIC>MOL_PROPERTY
Delta U+W
SciTegic.value.DoubleValue
0.019

@<SCITEGIC>MOL_PROPERTY
U+W
SciTegic.value.DoubleValue
-51.727

@<SCITEGIC>MOL_PROPERTY
Grad RMS
SciTegic.value.DoubleValue
0.000000

@<SCITEGIC>MOL_PROPERTY
U
SciTegic.value.DoubleValue
8.963

@<SCITEGIC>MOL_PROPERTY
W
SciTegic.value.DoubleValue
-60.690

@<SCITEGIC>MOL_PROPERTY
W(PB)
SciTegic.value.DoubleValue
-62.934

@<SCITEGIC>MOL_PROPERTY
W(SA)
SciTegic.value.DoubleValue
2.244

@<SCITEGIC>MOL_PROPERTY
Valence
SciTegic.value.DoubleValue
9.327

@<SCITEGIC>MOL_PROPERTY
Coulomb
SciTegic.value.DoubleValue
-0.780

@<SCITEGIC>MOL_PROPERTY
VdW
SciTegic.value.DoubleValue
0.417

@<SCITEGIC>MOL_PROPERTY
VdW6
SciTegic.value.DoubleValue
-6.635

@<SCITEGIC>MOL_PROPERTY
VdW12
SciTegic.value.DoubleValue
7.052

@<SCITEGIC>MOL_PROPERTY
Bond
SciTegic.value.DoubleValue
0.105

@<SCITEGIC>MOL_PROPERTY
Angle
SciTegic.value.DoubleValue
2.399

@<SCITEGIC>MOL_PROPERTY
Pdih
SciTegic.value.DoubleValue
6.822

@<SCITEGIC>MOL_PROPERTY
Idih
SciTegic.value.DoubleValue
0.000

@<SCITEGIC>MOL_PROPERTY
Tether
SciTegic.value.DoubleValue
0.000

@<TRIPOS>MOLECULE
guest-s22_confgen4.mol2 : confsearch ligand conformer 206
          20          19           1
SMALL
USER_CHARGES
 
@<TRIPOS>ATOM
       1    C1      17.665826   16.437476   22.777664 C.2        1 MOL1        -0.2535
       2    H1      18.047113   16.349158   23.793733 H          1 MOL1         0.0845
       3    H2      17.203961   15.555315   22.337507 H          1 MOL1         0.0845
       4    C2      17.761252   17.580520   22.093549 C.2        1 MOL1        -0.1324
       5    H3      17.373998   17.647622   21.077089 H          1 MOL1         0.0833
       6    C3      18.387821   18.844790   22.638227 C.3        1 MOL1        -0.1813
       7    H4      18.512749   18.768717   23.726963 H          1 MOL1         0.0753
       8    H5      17.717363   19.695230   22.455564 H          1 MOL1         0.0753
       9    C4      19.757319   19.115776   21.980920 C.3        1 MOL1        -0.1855
      10    H6      20.423572   18.260971   22.161711 H          1 MOL1         0.0755
      11    H7      19.629248   19.193712   20.892363 H          1 MOL1         0.0755
      12    C5      20.410336   20.406672   22.524506 C.3        1 MOL1        -0.1855
      13    H8      20.519885   20.325867   23.614484 H          1 MOL1         0.0755
      14    H9      19.751123   21.265441   22.335703 H          1 MOL1         0.0755
      15    C6      21.802242   20.680251   21.897890 C.3        1 MOL1        -0.1958
      16    H10     22.269166   21.535034   22.401185 H          1 MOL1         0.0753
      17    H11     22.463866   19.819575   22.053935 H          1 MOL1         0.0753
      18    C7      21.758994   20.997275   20.405747 C.2        1 MOL1         0.6174
      19    O1      21.377543   22.100011   20.065801 O.co2      1 MOL1        -0.6695
      20    O2      22.117709   20.138785   19.623897 O.co2      1 MOL1        -0.6695
@<TRIPOS>BOND
    1     1     2    1
    2     1     3    1
    3     1     4    2
    4     4     5    1
    5     4     6    1
    6     6     7    1
    7     6     8    1
    8     6     9    1
    9     9    10    1
   10     9    11    1
   11     9    12    1
   12    12    13    1
   13    12    14    1
   14    12    15    1
   15    15    16    1
   16    15    17    1
   17    15    18    1
   18    18    19    1
   19    18    20    2
@<TRIPOS>SUBSTRUCTURE
       1 MOL1            1 RESIDUE      1      MOL     
@<SCITEGIC>MOL_PROPERTY
VConf Rank
SciTegic.value.IntegerValue
206

@<SCITEGIC>MOL_PROPERTY
Conf_Id
SciTegic.value.IntegerValue
54

@<SCITEGIC>MOL_PROPERTY
Delta U+W
SciTegic.value.DoubleValue
-0.048

@<SCITEGIC>MOL_PROPERTY
U+W
SciTegic.value.DoubleValue
-51.793

@<SCITEGIC>MOL_PROPERTY
Grad RMS
SciTegic.value.DoubleValue
0.000000

@<SCITEGIC>MOL_PROPERTY
U
SciTegic.value.DoubleValue
8.964

@<SCITEGIC>MOL_PROPERTY
W
SciTegic.value.DoubleValue
-60.756

@<SCITEGIC>MOL_PROPERTY
W(PB)
SciTegic.value.DoubleValue
-63.007

@<SCITEGIC>MOL_PROPERTY
W(SA)
SciTegic.value.DoubleValue
2.251

@<SCITEGIC>MOL_PROPERTY
Valence
SciTegic.value.DoubleValue
9.327

@<SCITEGIC>MOL_PROPERTY
Coulomb
SciTegic.value.DoubleValue
-0.780

@<SCITEGIC>MOL_PROPERTY
VdW
SciTegic.value.DoubleValue
0.417

@<SCITEGIC>MOL_PROPERTY
VdW6
SciTegic.value.DoubleValue
-6.635

@<SCITEGIC>MOL_PROPERTY
VdW12
SciTegic.value.DoubleValue
7.052

@<SCITEGIC>MOL_PROPERTY
Bond
SciTegic.value.DoubleValue
0.105

@<SCITEGIC>MOL_PROPERTY
Angle
SciTegic.value.DoubleValue
2.399

@<SCITEGIC>MOL_PROPERTY
Pdih
SciTegic.value.DoubleValue
6.822

@<SCITEGIC>MOL_PROPERTY
Idih
SciTegic.value.DoubleValue
0.000

@<SCITEGIC>MOL_PROPERTY
Tether
SciTegic.value.DoubleValue
0.000

@<TRIPOS>MOLECULE
guest-s22_confgen4.mol2 : confsearch ligand conformer 207
          20          19           1
SMALL
USER_CHARGES
 
@<TRIPOS>ATOM
       1    C1      21.549710   21.765089   20.951794 C.2        1 MOL1        -0.2535
       2    H1      21.630214   22.280184   19.996082 H          1 MOL1         0.0845
       3    H2      21.571440   22.375149   21.853383 H          1 MOL1         0.0845
       4    C2      21.426192   20.436616   21.011582 C.2        1 MOL1        -0.1324
       5    H3      21.410131   19.844578   20.096986 H          1 MOL1         0.0833
       6    C3      21.316528   19.652969   22.302209 C.3        1 MOL1        -0.1813
       7    H4      21.699961   20.257183   23.135538 H          1 MOL1         0.0753
       8    H5      21.952728   18.759182   22.252816 H          1 MOL1         0.0753
       9    C4      19.861384   19.240278   22.619136 C.3        1 MOL1        -0.1855
      10    H6      19.832106   18.801541   23.625931 H          1 MOL1         0.0755
      11    H7      19.225988   20.136082   22.649876 H          1 MOL1         0.0755
      12    C5      19.288199   18.225821   21.601079 C.3        1 MOL1        -0.1855
      13    H8      19.931561   17.335997   21.559428 H          1 MOL1         0.0755
      14    H9      19.296656   18.669660   20.596873 H          1 MOL1         0.0755
      15    C6      17.837641   17.795470   21.941463 C.3        1 MOL1        -0.1958
      16    H10     17.189706   18.676877   22.019780 H          1 MOL1         0.0753
      17    H11     17.438028   17.179007   21.127682 H          1 MOL1         0.0753
      18    C7      17.716250   16.985204   23.228929 C.2        1 MOL1         0.6174
      19    O1      17.268058   17.535308   24.215621 O.co2      1 MOL1        -0.6695
      20    O2      18.063719   15.820767   23.207339 O.co2      1 MOL1        -0.6695
@<TRIPOS>BOND
    1     1     2    1
    2     1     3    1
    3     1     4    2
    4     4     5    1
    5     4     6    1
    6     6     7    1
    7     6     8    1
    8     6     9    1
    9     9    10    1
   10     9    11    1
   11     9    12    1
   12    12    13    1
   13    12    14    1
   14    12    15    1
   15    15    16    1
   16    15    17    1
   17    15    18    1
   18    18    19    1
   19    18    20    2
@<TRIPOS>SUBSTRUCTURE
       1 MOL1            1 RESIDUE      1      MOL     
@<SCITEGIC>MOL_PROPERTY
VConf Rank
SciTegic.value.IntegerValue
207

@<SCITEGIC>MOL_PROPERTY
Conf_Id
SciTegic.value.IntegerValue
27

@<SCITEGIC>MOL_PROPERTY
Delta U+W
SciTegic.value.DoubleValue
0.478

@<SCITEGIC>MOL_PROPERTY
U+W
SciTegic.value.DoubleValue
-51.267

@<SCITEGIC>MOL_PROPERTY
Grad RMS
SciTegic.value.DoubleValue
0.000000

@<SCITEGIC>MOL_PROPERTY
U
SciTegic.value.DoubleValue
9.192

@<SCITEGIC>MOL_PROPERTY
W
SciTegic.value.DoubleValue
-60.459

@<SCITEGIC>MOL_PROPERTY
W(PB)
SciTegic.value.DoubleValue
-62.649

@<SCITEGIC>MOL_PROPERTY
W(SA)
SciTegic.value.DoubleValue
2.190

@<SCITEGIC>MOL_PROPERTY
Valence
SciTegic.value.DoubleValue
9.572

@<SCITEGIC>MOL_PROPERTY
Coulomb
SciTegic.value.DoubleValue
-0.884

@<SCITEGIC>MOL_PROPERTY
VdW
SciTegic.value.DoubleValue
0.504

@<SCITEGIC>MOL_PROPERTY
VdW6
SciTegic.value.DoubleValue
-7.168

@<SCITEGIC>MOL_PROPERTY
VdW12
SciTegic.value.DoubleValue
7.672

@<SCITEGIC>MOL_PROPERTY
Bond
SciTegic.value.DoubleValue
0.127

@<SCITEGIC>MOL_PROPERTY
Angle
SciTegic.value.DoubleValue
2.504

@<SCITEGIC>MOL_PROPERTY
Pdih
SciTegic.value.DoubleValue
6.941

@<SCITEGIC>MOL_PROPERTY
Idih
SciTegic.value.DoubleValue
0.001

@<SCITEGIC>MOL_PROPERTY
Tether
SciTegic.value.DoubleValue
0.000

@<TRIPOS>MOLECULE
guest-s22_confgen4.mol2 : confsearch ligand conformer 208
          20          19           1
SMALL
USER_CHARGES
 
@<TRIPOS>ATOM
       1    C1      21.651103   18.478872   24.620659 C.2        1 MOL1        -0.2535
       2    H1      21.879822   17.418601   24.715630 H          1 MOL1         0.0845
       3    H2      21.632004   19.071177   25.533900 H          1 MOL1         0.0845
       4    C2      21.399959   19.034407   23.432390 C.2        1 MOL1        -0.1324
       5    H3      21.176254   20.098333   23.359521 H          1 MOL1         0.0833
       6    C3      21.414965   18.276154   22.122189 C.3        1 MOL1        -0.1813
       7    H4      21.981104   17.342415   22.241238 H          1 MOL1         0.0753
       8    H5      21.943891   18.860741   21.357627 H          1 MOL1         0.0753
       9    C4      19.992648   17.932832   21.624993 C.3        1 MOL1        -0.1855
      10    H6      20.073520   17.274312   20.749385 H          1 MOL1         0.0755
      11    H7      19.463209   17.361780   22.400171 H          1 MOL1         0.0755
      12    C5      19.170549   19.185310   21.243557 C.3        1 MOL1        -0.1855
      13    H8      19.713444   19.768850   20.487182 H          1 MOL1         0.0755
      14    H9      19.048000   19.835004   22.120804 H          1 MOL1         0.0755
      15    C6      17.772402   18.810170   20.693544 C.3        1 MOL1        -0.1958
      16    H10     17.872299   18.174078   19.805883 H          1 MOL1         0.0753
      17    H11     17.212686   18.236869   21.442312 H          1 MOL1         0.0753
      18    C7      16.940504   20.029047   20.311008 C.2        1 MOL1         0.6174
      19    O1      16.226918   20.526069   21.159787 O.co2      1 MOL1        -0.6695
      20    O2      17.041386   20.459961   19.179268 O.co2      1 MOL1        -0.6695
@<TRIPOS>BOND
    1     1     2    1
    2     1     3    1
    3     1     4    2
    4     4     5    1
    5     4     6    1
    6     6     7    1
    7     6     8    1
    8     6     9    1
    9     9    10    1
   10     9    11    1
   11     9    12    1
   12    12    13    1
   13    12    14    1
   14    12    15    1
   15    15    16    1
   16    15    17    1
   17    15    18    1
   18    18    19    1
   19    18    20    2
@<TRIPOS>SUBSTRUCTURE
       1 MOL1            1 RESIDUE      1      MOL     
@<SCITEGIC>MOL_PROPERTY
VConf Rank
SciTegic.value.IntegerValue
208

@<SCITEGIC>MOL_PROPERTY
Conf_Id
SciTegic.value.IntegerValue
41

@<SCITEGIC>MOL_PROPERTY
Delta U+W
SciTegic.value.DoubleValue
-0.634

@<SCITEGIC>MOL_PROPERTY
U+W
SciTegic.value.DoubleValue
-52.379

@<SCITEGIC>MOL_PROPERTY
Grad RMS
SciTegic.value.DoubleValue
0.000000

@<SCITEGIC>MOL_PROPERTY
U
SciTegic.value.DoubleValue
7.828

@<SCITEGIC>MOL_PROPERTY
W
SciTegic.value.DoubleValue
-60.207

@<SCITEGIC>MOL_PROPERTY
W(PB)
SciTegic.value.DoubleValue
-62.449

@<SCITEGIC>MOL_PROPERTY
W(SA)
SciTegic.value.DoubleValue
2.242

@<SCITEGIC>MOL_PROPERTY
Valence
SciTegic.value.DoubleValue
9.300

@<SCITEGIC>MOL_PROPERTY
Coulomb
SciTegic.value.DoubleValue
-2.080

@<SCITEGIC>MOL_PROPERTY
VdW
SciTegic.value.DoubleValue
0.608

@<SCITEGIC>MOL_PROPERTY
VdW6
SciTegic.value.DoubleValue
-6.341

@<SCITEGIC>MOL_PROPERTY
VdW12
SciTegic.value.DoubleValue
6.949

@<SCITEGIC>MOL_PROPERTY
Bond
SciTegic.value.DoubleValue
0.103

@<SCITEGIC>MOL_PROPERTY
Angle
SciTegic.value.DoubleValue
2.334

@<SCITEGIC>MOL_PROPERTY
Pdih
SciTegic.value.DoubleValue
6.862

@<SCITEGIC>MOL_PROPERTY
Idih
SciTegic.value.DoubleValue
0.001

@<SCITEGIC>MOL_PROPERTY
Tether
SciTegic.value.DoubleValue
0.000

@<TRIPOS>MOLECULE
guest-s22_confgen4.mol2 : confsearch ligand conformer 209
          20          19           1
SMALL
USER_CHARGES
 
@<TRIPOS>ATOM
       1    C1      21.470217   20.248029   19.311778 C.2        1 MOL1        -0.2535
       2    H1      22.294499   20.194895   18.602571 H          1 MOL1         0.0845
       3    H2      20.585643   20.807125   19.010959 H          1 MOL1         0.0845
       4    C2      21.544410   19.647486   20.502391 C.2        1 MOL1        -0.1324
       5    H3      22.438624   19.092008   20.784333 H          1 MOL1         0.0833
       6    C3      20.442487   19.678289   21.537966 C.3        1 MOL1        -0.1813
       7    H4      19.706886   20.454537   21.287557 H          1 MOL1         0.0753
       8    H5      20.871794   19.947369   22.511746 H          1 MOL1         0.0753
       9    C4      19.734524   18.308460   21.635610 C.3        1 MOL1        -0.1855
      10    H6      19.399727   18.010138   20.632577 H          1 MOL1         0.0755
      11    H7      20.455029   17.544929   21.959879 H          1 MOL1         0.0755
      12    C5      18.509846   18.311036   22.583422 C.3        1 MOL1        -0.1855
      13    H8      18.022801   17.327280   22.534456 H          1 MOL1         0.0755
      14    H9      17.771679   19.037976   22.218628 H          1 MOL1         0.0755
      15    C6      18.846074   18.627393   24.066422 C.3        1 MOL1        -0.1958
      16    H10     19.266242   19.635045   24.161822 H          1 MOL1         0.0753
      17    H11     17.922805   18.619442   24.657367 H          1 MOL1         0.0753
      18    C7      19.807156   17.633882   24.712947 C.2        1 MOL1         0.6174
      19    O1      19.391260   16.521819   24.973236 O.co2      1 MOL1        -0.6695
      20    O2      20.939497   18.002438   24.955692 O.co2      1 MOL1        -0.6695
@<TRIPOS>BOND
    1     1     2    1
    2     1     3    1
    3     1     4    2
    4     4     5    1
    5     4     6    1
    6     6     7    1
    7     6     8    1
    8     6     9    1
    9     9    10    1
   10     9    11    1
   11     9    12    1
   12    12    13    1
   13    12    14    1
   14    12    15    1
   15    15    16    1
   16    15    17    1
   17    15    18    1
   18    18    19    1
   19    18    20    2
@<TRIPOS>SUBSTRUCTURE
       1 MOL1            1 RESIDUE      1      MOL     
@<SCITEGIC>MOL_PROPERTY
VConf Rank
SciTegic.value.IntegerValue
209

@<SCITEGIC>MOL_PROPERTY
Conf_Id
SciTegic.value.IntegerValue
84

@<SCITEGIC>MOL_PROPERTY
Delta U+W
SciTegic.value.DoubleValue
0.942

@<SCITEGIC>MOL_PROPERTY
U+W
SciTegic.value.DoubleValue
-50.803

@<SCITEGIC>MOL_PROPERTY
Grad RMS
SciTegic.value.DoubleValue
0.000000

@<SCITEGIC>MOL_PROPERTY
U
SciTegic.value.DoubleValue
10.196

@<SCITEGIC>MOL_PROPERTY
W
SciTegic.value.DoubleValue
-60.999

@<SCITEGIC>MOL_PROPERTY
W(PB)
SciTegic.value.DoubleValue
-63.182

@<SCITEGIC>MOL_PROPERTY
W(SA)
SciTegic.value.DoubleValue
2.182

@<SCITEGIC>MOL_PROPERTY
Valence
SciTegic.value.DoubleValue
9.837

@<SCITEGIC>MOL_PROPERTY
Coulomb
SciTegic.value.DoubleValue
0.032

@<SCITEGIC>MOL_PROPERTY
VdW
SciTegic.value.DoubleValue
0.328

@<SCITEGIC>MOL_PROPERTY
VdW6
SciTegic.value.DoubleValue
-7.642

@<SCITEGIC>MOL_PROPERTY
VdW12
SciTegic.value.DoubleValue
7.969

@<SCITEGIC>MOL_PROPERTY
Bond
SciTegic.value.DoubleValue
0.151

@<SCITEGIC>MOL_PROPERTY
Angle
SciTegic.value.DoubleValue
2.748

@<SCITEGIC>MOL_PROPERTY
Pdih
SciTegic.value.DoubleValue
6.937

@<SCITEGIC>MOL_PROPERTY
Idih
SciTegic.value.DoubleValue
0.001

@<SCITEGIC>MOL_PROPERTY
Tether
SciTegic.value.DoubleValue
0.000

@<TRIPOS>MOLECULE
guest-s22_confgen4.mol2 : confsearch ligand conformer 210
          20          19           1
SMALL
USER_CHARGES
 
@<TRIPOS>ATOM
       1    C1      18.193966   19.097462   18.920527 C.2        1 MOL1        -0.2535
       2    H1      17.263195   19.049560   18.357824 H          1 MOL1         0.0845
       3    H2      18.942131   19.816690   18.591071 H          1 MOL1         0.0845
       4    C2      18.404703   18.304932   19.974637 C.2        1 MOL1        -0.1324
       5    H3      17.642359   17.592246   20.288558 H          1 MOL1         0.0833
       6    C3      19.670374   18.314204   20.802681 C.3        1 MOL1        -0.1813
       7    H4      20.465691   18.858682   20.275611 H          1 MOL1         0.0753
       8    H5      20.028165   17.284764   20.938032 H          1 MOL1         0.0753
       9    C4      19.429779   18.964404   22.181236 C.3        1 MOL1        -0.1855
      10    H6      19.066045   19.991498   22.038220 H          1 MOL1         0.0755
      11    H7      18.637282   18.417869   22.710668 H          1 MOL1         0.0755
      12    C5      20.713455   18.978669   23.041647 C.3        1 MOL1        -0.1855
      13    H8      21.504213   19.536791   22.521153 H          1 MOL1         0.0755
      14    H9      21.079813   17.950245   23.162877 H          1 MOL1         0.0755
      15    C6      20.484598   19.599792   24.444043 C.3        1 MOL1        -0.1958
      16    H10     19.678624   19.070060   24.966196 H          1 MOL1         0.0753
      17    H11     21.389602   19.478235   25.050812 H          1 MOL1         0.0753
      18    C7      20.150787   21.088642   24.415984 C.2        1 MOL1         0.6174
      19    O1      19.001062   21.424994   24.620856 O.co2      1 MOL1        -0.6695
      20    O2      21.053729   21.873673   24.202609 O.co2      1 MOL1        -0.6695
@<TRIPOS>BOND
    1     1     2    1
    2     1     3    1
    3     1     4    2
    4     4     5    1
    5     4     6    1
    6     6     7    1
    7     6     8    1
    8     6     9    1
    9     9    10    1
   10     9    11    1
   11     9    12    1
   12    12    13    1
   13    12    14    1
   14    12    15    1
   15    15    16    1
   16    15    17    1
   17    15    18    1
   18    18    19    1
   19    18    20    2
@<TRIPOS>SUBSTRUCTURE
       1 MOL1            1 RESIDUE      1      MOL     
@<SCITEGIC>MOL_PROPERTY
VConf Rank
SciTegic.value.IntegerValue
210

@<SCITEGIC>MOL_PROPERTY
Conf_Id
SciTegic.value.IntegerValue
81

@<SCITEGIC>MOL_PROPERTY
Delta U+W
SciTegic.value.DoubleValue
-0.051

@<SCITEGIC>MOL_PROPERTY
U+W
SciTegic.value.DoubleValue
-51.796

@<SCITEGIC>MOL_PROPERTY
Grad RMS
SciTegic.value.DoubleValue
0.000000

@<SCITEGIC>MOL_PROPERTY
U
SciTegic.value.DoubleValue
9.412

@<SCITEGIC>MOL_PROPERTY
W
SciTegic.value.DoubleValue
-61.209

@<SCITEGIC>MOL_PROPERTY
W(PB)
SciTegic.value.DoubleValue
-63.452

@<SCITEGIC>MOL_PROPERTY
W(SA)
SciTegic.value.DoubleValue
2.243

@<SCITEGIC>MOL_PROPERTY
Valence
SciTegic.value.DoubleValue
9.329

@<SCITEGIC>MOL_PROPERTY
Coulomb
SciTegic.value.DoubleValue
-0.323

@<SCITEGIC>MOL_PROPERTY
VdW
SciTegic.value.DoubleValue
0.406

@<SCITEGIC>MOL_PROPERTY
VdW6
SciTegic.value.DoubleValue
-6.640

@<SCITEGIC>MOL_PROPERTY
VdW12
SciTegic.value.DoubleValue
7.046

@<SCITEGIC>MOL_PROPERTY
Bond
SciTegic.value.DoubleValue
0.105

@<SCITEGIC>MOL_PROPERTY
Angle
SciTegic.value.DoubleValue
2.401

@<SCITEGIC>MOL_PROPERTY
Pdih
SciTegic.value.DoubleValue
6.823

@<SCITEGIC>MOL_PROPERTY
Idih
SciTegic.value.DoubleValue
0.000

@<SCITEGIC>MOL_PROPERTY
Tether
SciTegic.value.DoubleValue
0.000

@<TRIPOS>MOLECULE
guest-s22_confgen4.mol2 : confsearch ligand conformer 211
          20          19           1
SMALL
USER_CHARGES
 
@<TRIPOS>ATOM
       1    C1      19.705718   17.938410   25.066119 C.2        1 MOL1        -0.2535
       2    H1      20.750076   17.807886   25.344936 H          1 MOL1         0.0845
       3    H2      18.968300   17.929701   25.866920 H          1 MOL1         0.0845
       4    C2      19.339681   18.105917   23.792684 C.2        1 MOL1        -0.1324
       5    H3      18.288664   18.232518   23.534692 H          1 MOL1         0.0833
       6    C3      20.306113   18.123647   22.627686 C.3        1 MOL1        -0.1813
       7    H4      19.914949   17.511913   21.804458 H          1 MOL1         0.0753
       8    H5      21.253283   17.654040   22.925268 H          1 MOL1         0.0753
       9    C4      20.604677   19.557841   22.129036 C.3        1 MOL1        -0.1855
      10    H6      21.074999   20.124780   22.944028 H          1 MOL1         0.0755
      11    H7      21.350675   19.506726   21.324147 H          1 MOL1         0.0755
      12    C5      19.364195   20.341032   21.627133 C.3        1 MOL1        -0.1855
      13    H8      19.682743   21.348089   21.324570 H          1 MOL1         0.0755
      14    H9      18.659592   20.482417   22.457338 H          1 MOL1         0.0755
      15    C6      18.622087   19.675003   20.436389 C.3        1 MOL1        -0.1958
      16    H10     18.223941   18.696513   20.728073 H          1 MOL1         0.0753
      17    H11     17.758950   20.290181   20.156824 H          1 MOL1         0.0753
      18    C7      19.480120   19.501054   19.186563 C.2        1 MOL1         0.6174
      19    O1      19.833443   18.378896   18.881589 O.co2      1 MOL1        -0.6695
      20    O2      19.758024   20.492476   18.540565 O.co2      1 MOL1        -0.6695
@<TRIPOS>BOND
    1     1     2    1
    2     1     3    1
    3     1     4    2
    4     4     5    1
    5     4     6    1
    6     6     7    1
    7     6     8    1
    8     6     9    1
    9     9    10    1
   10     9    11    1
   11     9    12    1
   12    12    13    1
   13    12    14    1
   14    12    15    1
   15    15    16    1
   16    15    17    1
   17    15    18    1
   18    18    19    1
   19    18    20    2
@<TRIPOS>SUBSTRUCTURE
       1 MOL1            1 RESIDUE      1      MOL     
@<SCITEGIC>MOL_PROPERTY
VConf Rank
SciTegic.value.IntegerValue
211

@<SCITEGIC>MOL_PROPERTY
Conf_Id
SciTegic.value.IntegerValue
86

@<SCITEGIC>MOL_PROPERTY
Delta U+W
SciTegic.value.DoubleValue
1.248

@<SCITEGIC>MOL_PROPERTY
U+W
SciTegic.value.DoubleValue
-50.498

@<SCITEGIC>MOL_PROPERTY
Grad RMS
SciTegic.value.DoubleValue
0.000000

@<SCITEGIC>MOL_PROPERTY
U
SciTegic.value.DoubleValue
10.404

@<SCITEGIC>MOL_PROPERTY
W
SciTegic.value.DoubleValue
-60.901

@<SCITEGIC>MOL_PROPERTY
W(PB)
SciTegic.value.DoubleValue
-63.061

@<SCITEGIC>MOL_PROPERTY
W(SA)
SciTegic.value.DoubleValue
2.159

@<SCITEGIC>MOL_PROPERTY
Valence
SciTegic.value.DoubleValue
10.021

@<SCITEGIC>MOL_PROPERTY
Coulomb
SciTegic.value.DoubleValue
0.094

@<SCITEGIC>MOL_PROPERTY
VdW
SciTegic.value.DoubleValue
0.289

@<SCITEGIC>MOL_PROPERTY
VdW6
SciTegic.value.DoubleValue
-8.409

@<SCITEGIC>MOL_PROPERTY
VdW12
SciTegic.value.DoubleValue
8.698

@<SCITEGIC>MOL_PROPERTY
Bond
SciTegic.value.DoubleValue
0.179

@<SCITEGIC>MOL_PROPERTY
Angle
SciTegic.value.DoubleValue
2.939

@<SCITEGIC>MOL_PROPERTY
Pdih
SciTegic.value.DoubleValue
6.902

@<SCITEGIC>MOL_PROPERTY
Idih
SciTegic.value.DoubleValue
0.001

@<SCITEGIC>MOL_PROPERTY
Tether
SciTegic.value.DoubleValue
0.000

@<TRIPOS>MOLECULE
guest-s22_confgen4.mol2 : confsearch ligand conformer 212
          20          19           1
SMALL
USER_CHARGES
 
@<TRIPOS>ATOM
       1    C1      18.457687   16.892835   20.214239 C.2        1 MOL1        -0.2535
       2    H1      17.476563   16.441173   20.078224 H          1 MOL1         0.0845
       3    H2      18.911262   17.375878   19.350316 H          1 MOL1         0.0845
       4    C2      19.076137   16.856832   21.397560 C.2        1 MOL1        -0.1324
       5    H3      18.603775   16.370176   22.250454 H          1 MOL1         0.0833
       6    C3      20.438260   17.462032   21.662902 C.3        1 MOL1        -0.1813
       7    H4      20.925272   17.747180   20.720474 H          1 MOL1         0.0753
       8    H5      21.082903   16.704170   22.127554 H          1 MOL1         0.0753
       9    C4      20.362250   18.691227   22.596371 C.3        1 MOL1        -0.1855
      10    H6      19.871763   18.407847   23.537669 H          1 MOL1         0.0755
      11    H7      21.384025   18.999838   22.856650 H          1 MOL1         0.0755
      12    C5      19.614165   19.883349   21.953865 C.3        1 MOL1        -0.1855
      13    H8      18.590334   19.578252   21.699398 H          1 MOL1         0.0755
      14    H9      20.102756   20.164014   21.010542 H          1 MOL1         0.0755
      15    C6      19.549108   21.119927   22.887499 C.3        1 MOL1        -0.1958
      16    H10     18.907612   21.885989   22.436307 H          1 MOL1         0.0753
      17    H11     19.091672   20.846955   23.846152 H          1 MOL1         0.0753
      18    C7      20.905550   21.763625   23.160344 C.2        1 MOL1         0.6174
      19    O1      21.400736   22.447832   22.286400 O.co2      1 MOL1        -0.6695
      20    O2      21.425877   21.574025   24.242194 O.co2      1 MOL1        -0.6695
@<TRIPOS>BOND
    1     1     2    1
    2     1     3    1
    3     1     4    2
    4     4     5    1
    5     4     6    1
    6     6     7    1
    7     6     8    1
    8     6     9    1
    9     9    10    1
   10     9    11    1
   11     9    12    1
   12    12    13    1
   13    12    14    1
   14    12    15    1
   15    15    16    1
   16    15    17    1
   17    15    18    1
   18    18    19    1
   19    18    20    2
@<TRIPOS>SUBSTRUCTURE
       1 MOL1            1 RESIDUE      1      MOL     
@<SCITEGIC>MOL_PROPERTY
VConf Rank
SciTegic.value.IntegerValue
212

@<SCITEGIC>MOL_PROPERTY
Conf_Id
SciTegic.value.IntegerValue
28

@<SCITEGIC>MOL_PROPERTY
Delta U+W
SciTegic.value.DoubleValue
0.446

@<SCITEGIC>MOL_PROPERTY
U+W
SciTegic.value.DoubleValue
-51.299

@<SCITEGIC>MOL_PROPERTY
Grad RMS
SciTegic.value.DoubleValue
0.000000

@<SCITEGIC>MOL_PROPERTY
U
SciTegic.value.DoubleValue
9.295

@<SCITEGIC>MOL_PROPERTY
W
SciTegic.value.DoubleValue
-60.594

@<SCITEGIC>MOL_PROPERTY
W(PB)
SciTegic.value.DoubleValue
-62.806

@<SCITEGIC>MOL_PROPERTY
W(SA)
SciTegic.value.DoubleValue
2.212

@<SCITEGIC>MOL_PROPERTY
Valence
SciTegic.value.DoubleValue
9.495

@<SCITEGIC>MOL_PROPERTY
Coulomb
SciTegic.value.DoubleValue
-0.610

@<SCITEGIC>MOL_PROPERTY
VdW
SciTegic.value.DoubleValue
0.409

@<SCITEGIC>MOL_PROPERTY
VdW6
SciTegic.value.DoubleValue
-7.332

@<SCITEGIC>MOL_PROPERTY
VdW12
SciTegic.value.DoubleValue
7.741

@<SCITEGIC>MOL_PROPERTY
Bond
SciTegic.value.DoubleValue
0.126

@<SCITEGIC>MOL_PROPERTY
Angle
SciTegic.value.DoubleValue
2.497

@<SCITEGIC>MOL_PROPERTY
Pdih
SciTegic.value.DoubleValue
6.872

@<SCITEGIC>MOL_PROPERTY
Idih
SciTegic.value.DoubleValue
0.000

@<SCITEGIC>MOL_PROPERTY
Tether
SciTegic.value.DoubleValue
0.000

@<TRIPOS>MOLECULE
guest-s22_confgen4.mol2 : confsearch ligand conformer 213
          20          19           1
SMALL
USER_CHARGES
 
@<TRIPOS>ATOM
       1    C1      16.787131   18.426125   22.272128 C.2        1 MOL1        -0.2535
       2    H1      16.839331   19.500000   22.438144 H          1 MOL1         0.0845
       3    H2      15.795051   17.996346   22.144820 H          1 MOL1         0.0845
       4    C2      17.878277   17.653710   22.219655 C.2        1 MOL1        -0.1324
       5    H3      17.762179   16.583857   22.047970 H          1 MOL1         0.0833
       6    C3      19.320431   18.105423   22.379660 C.3        1 MOL1        -0.1813
       7    H4      19.857816   17.884035   21.448605 H          1 MOL1         0.0753
       8    H5      19.797111   17.490248   23.154315 H          1 MOL1         0.0753
       9    C4      19.500297   19.600304   22.742398 C.3        1 MOL1        -0.1855
      10    H6      19.105672   20.227106   21.930879 H          1 MOL1         0.0755
      11    H7      18.900750   19.826545   23.634615 H          1 MOL1         0.0755
      12    C5      20.969927   19.992250   23.035017 C.3        1 MOL1        -0.1855
      13    H8      21.341859   19.397021   23.879859 H          1 MOL1         0.0755
      14    H9      20.996979   21.040722   23.362711 H          1 MOL1         0.0755
      15    C6      21.934464   19.823047   21.829324 C.3        1 MOL1        -0.1958
      16    H10     22.947505   20.112120   22.132378 H          1 MOL1         0.0753
      17    H11     21.991098   18.772468   21.522770 H          1 MOL1         0.0753
      18    C7      21.567248   20.668478   20.613058 C.2        1 MOL1         0.6174
      19    O1      21.721746   21.872003   20.684553 O.co2      1 MOL1        -0.6695
      20    O2      21.156831   20.100934   19.619927 O.co2      1 MOL1        -0.6695
@<TRIPOS>BOND
    1     1     2    1
    2     1     3    1
    3     1     4    2
    4     4     5    1
    5     4     6    1
    6     6     7    1
    7     6     8    1
    8     6     9    1
    9     9    10    1
   10     9    11    1
   11     9    12    1
   12    12    13    1
   13    12    14    1
   14    12    15    1
   15    15    16    1
   16    15    17    1
   17    15    18    1
   18    18    19    1
   19    18    20    2
@<TRIPOS>SUBSTRUCTURE
       1 MOL1            1 RESIDUE      1      MOL     
@<SCITEGIC>MOL_PROPERTY
VConf Rank
SciTegic.value.IntegerValue
213

@<SCITEGIC>MOL_PROPERTY
Conf_Id
SciTegic.value.IntegerValue
53

@<SCITEGIC>MOL_PROPERTY
Delta U+W
SciTegic.value.DoubleValue
0.549

@<SCITEGIC>MOL_PROPERTY
U+W
SciTegic.value.DoubleValue
-51.197

@<SCITEGIC>MOL_PROPERTY
Grad RMS
SciTegic.value.DoubleValue
0.000000

@<SCITEGIC>MOL_PROPERTY
U
SciTegic.value.DoubleValue
10.870

@<SCITEGIC>MOL_PROPERTY
W
SciTegic.value.DoubleValue
-62.067

@<SCITEGIC>MOL_PROPERTY
W(PB)
SciTegic.value.DoubleValue
-64.228

@<SCITEGIC>MOL_PROPERTY
W(SA)
SciTegic.value.DoubleValue
2.161

@<SCITEGIC>MOL_PROPERTY
Valence
SciTegic.value.DoubleValue
8.803

@<SCITEGIC>MOL_PROPERTY
Coulomb
SciTegic.value.DoubleValue
1.020

@<SCITEGIC>MOL_PROPERTY
VdW
SciTegic.value.DoubleValue
1.048

@<SCITEGIC>MOL_PROPERTY
VdW6
SciTegic.value.DoubleValue
-8.312

@<SCITEGIC>MOL_PROPERTY
VdW12
SciTegic.value.DoubleValue
9.360

@<SCITEGIC>MOL_PROPERTY
Bond
SciTegic.value.DoubleValue
0.212

@<SCITEGIC>MOL_PROPERTY
Angle
SciTegic.value.DoubleValue
3.379

@<SCITEGIC>MOL_PROPERTY
Pdih
SciTegic.value.DoubleValue
5.211

@<SCITEGIC>MOL_PROPERTY
Idih
SciTegic.value.DoubleValue
0.001

@<SCITEGIC>MOL_PROPERTY
Tether
SciTegic.value.DoubleValue
0.000

@<TRIPOS>MOLECULE
guest-s22_confgen4.mol2 : confsearch ligand conformer 214
          20          19           1
SMALL
USER_CHARGES
 
@<TRIPOS>ATOM
       1    C1      21.528200   20.060918   23.824074 C.2        1 MOL1        -0.2535
       2    H1      20.680935   19.919294   24.491445 H          1 MOL1         0.0845
       3    H2      22.199101   20.888894   24.046046 H          1 MOL1         0.0845
       4    C2      21.752374   19.258556   22.777835 C.2        1 MOL1        -0.1324
       5    H3      22.617962   19.442660   22.142095 H          1 MOL1         0.0833
       6    C3      20.899797   18.075574   22.349401 C.3        1 MOL1        -0.1813
       7    H4      21.363034   17.153715   22.724886 H          1 MOL1         0.0753
       8    H5      20.940546   17.983247   21.256517 H          1 MOL1         0.0753
       9    C4      19.413749   18.116262   22.791871 C.3        1 MOL1        -0.1855
      10    H6      18.932098   17.177721   22.485287 H          1 MOL1         0.0755
      11    H7      19.359622   18.130465   23.888316 H          1 MOL1         0.0755
      12    C5      18.598465   19.307205   22.222818 C.3        1 MOL1        -0.1855
      13    H8      19.025745   20.252313   22.581646 H          1 MOL1         0.0755
      14    H9      17.578578   19.260779   22.628644 H          1 MOL1         0.0755
      15    C6      18.514958   19.348619   20.672453 C.3        1 MOL1        -0.1958
      16    H10     17.927271   20.221119   20.364341 H          1 MOL1         0.0753
      17    H11     19.511856   19.477425   20.235869 H          1 MOL1         0.0753
      18    C7      17.862193   18.118153   20.049334 C.2        1 MOL1         0.6174
      19    O1      18.567958   17.335268   19.444235 O.co2      1 MOL1        -0.6695
      20    O2      16.660126   17.984598   20.170597 O.co2      1 MOL1        -0.6695
@<TRIPOS>BOND
    1     1     2    1
    2     1     3    1
    3     1     4    2
    4     4     5    1
    5     4     6    1
    6     6     7    1
    7     6     8    1
    8     6     9    1
    9     9    10    1
   10     9    11    1
   11     9    12    1
   12    12    13    1
   13    12    14    1
   14    12    15    1
   15    15    16    1
   16    15    17    1
   17    15    18    1
   18    18    19    1
   19    18    20    2
@<TRIPOS>SUBSTRUCTURE
       1 MOL1            1 RESIDUE      1      MOL     
@<SCITEGIC>MOL_PROPERTY
VConf Rank
SciTegic.value.IntegerValue
214

@<SCITEGIC>MOL_PROPERTY
Conf_Id
SciTegic.value.IntegerValue
66

@<SCITEGIC>MOL_PROPERTY
Delta U+W
SciTegic.value.DoubleValue
1.737

@<SCITEGIC>MOL_PROPERTY
U+W
SciTegic.value.DoubleValue
-50.008

@<SCITEGIC>MOL_PROPERTY
Grad RMS
SciTegic.value.DoubleValue
0.000000

@<SCITEGIC>MOL_PROPERTY
U
SciTegic.value.DoubleValue
11.091

@<SCITEGIC>MOL_PROPERTY
W
SciTegic.value.DoubleValue
-61.099

@<SCITEGIC>MOL_PROPERTY
W(PB)
SciTegic.value.DoubleValue
-63.213

@<SCITEGIC>MOL_PROPERTY
W(SA)
SciTegic.value.DoubleValue
2.114

@<SCITEGIC>MOL_PROPERTY
Valence
SciTegic.value.DoubleValue
9.664

@<SCITEGIC>MOL_PROPERTY
Coulomb
SciTegic.value.DoubleValue
0.658

@<SCITEGIC>MOL_PROPERTY
VdW
SciTegic.value.DoubleValue
0.769

@<SCITEGIC>MOL_PROPERTY
VdW6
SciTegic.value.DoubleValue
-9.171

@<SCITEGIC>MOL_PROPERTY
VdW12
SciTegic.value.DoubleValue
9.940

@<SCITEGIC>MOL_PROPERTY
Bond
SciTegic.value.DoubleValue
0.244

@<SCITEGIC>MOL_PROPERTY
Angle
SciTegic.value.DoubleValue
3.658

@<SCITEGIC>MOL_PROPERTY
Pdih
SciTegic.value.DoubleValue
5.762

@<SCITEGIC>MOL_PROPERTY
Idih
SciTegic.value.DoubleValue
0.001

@<SCITEGIC>MOL_PROPERTY
Tether
SciTegic.value.DoubleValue
0.000

@<TRIPOS>MOLECULE
guest-s22_confgen4.mol2 : confsearch ligand conformer 215
          20          19           1
SMALL
USER_CHARGES
 
@<TRIPOS>ATOM
       1    C1      22.216331   19.295575   22.507871 C.2        1 MOL1        -0.2535
       2    H1      21.781912   19.986863   23.226610 H          1 MOL1         0.0845
       3    H2      23.106237   18.752508   22.821053 H          1 MOL1         0.0845
       4    C2      21.696453   19.113902   21.289019 C.2        1 MOL1        -0.1324
       5    H3      22.173904   18.410305   20.607599 H          1 MOL1         0.0833
       6    C3      20.461855   19.795232   20.721431 C.3        1 MOL1        -0.1813
       7    H4      19.940842   19.092128   20.059736 H          1 MOL1         0.0753
       8    H5      20.784605   20.612744   20.063336 H          1 MOL1         0.0753
       9    C4      19.453535   20.348568   21.762310 C.3        1 MOL1        -0.1855
      10    H6      19.953094   21.096644   22.391846 H          1 MOL1         0.0755
      11    H7      18.660908   20.891625   21.229900 H          1 MOL1         0.0755
      12    C5      18.797780   19.272351   22.664775 C.3        1 MOL1        -0.1855
      13    H8      18.173157   19.777727   23.414189 H          1 MOL1         0.0755
      14    H9      19.567867   18.725926   23.225117 H          1 MOL1         0.0755
      15    C6      17.917513   18.261755   21.884555 C.3        1 MOL1        -0.1958
      16    H10     17.174423   18.794305   21.279278 H          1 MOL1         0.0753
      17    H11     18.531123   17.666119   21.199324 H          1 MOL1         0.0753
      18    C7      17.174845   17.296165   22.801248 C.2        1 MOL1         0.6174
      19    O1      17.708647   16.240074   23.077796 O.co2      1 MOL1        -0.6695
      20    O2      16.087066   17.631861   23.226662 O.co2      1 MOL1        -0.6695
@<TRIPOS>BOND
    1     1     2    1
    2     1     3    1
    3     1     4    2
    4     4     5    1
    5     4     6    1
    6     6     7    1
    7     6     8    1
    8     6     9    1
    9     9    10    1
   10     9    11    1
   11     9    12    1
   12    12    13    1
   13    12    14    1
   14    12    15    1
   15    15    16    1
   16    15    17    1
   17    15    18    1
   18    18    19    1
   19    18    20    2
@<TRIPOS>SUBSTRUCTURE
       1 MOL1            1 RESIDUE      1      MOL     
@<SCITEGIC>MOL_PROPERTY
VConf Rank
SciTegic.value.IntegerValue
215

@<SCITEGIC>MOL_PROPERTY
Conf_Id
SciTegic.value.IntegerValue
64

@<SCITEGIC>MOL_PROPERTY
Delta U+W
SciTegic.value.DoubleValue
0.366

@<SCITEGIC>MOL_PROPERTY
U+W
SciTegic.value.DoubleValue
-51.379

@<SCITEGIC>MOL_PROPERTY
Grad RMS
SciTegic.value.DoubleValue
0.000000

@<SCITEGIC>MOL_PROPERTY
U
SciTegic.value.DoubleValue
10.000

@<SCITEGIC>MOL_PROPERTY
W
SciTegic.value.DoubleValue
-61.379

@<SCITEGIC>MOL_PROPERTY
W(PB)
SciTegic.value.DoubleValue
-63.541

@<SCITEGIC>MOL_PROPERTY
W(SA)
SciTegic.value.DoubleValue
2.162

@<SCITEGIC>MOL_PROPERTY
Valence
SciTegic.value.DoubleValue
9.398

@<SCITEGIC>MOL_PROPERTY
Coulomb
SciTegic.value.DoubleValue
-0.504

@<SCITEGIC>MOL_PROPERTY
VdW
SciTegic.value.DoubleValue
1.105

@<SCITEGIC>MOL_PROPERTY
VdW6
SciTegic.value.DoubleValue
-7.975

@<SCITEGIC>MOL_PROPERTY
VdW12
SciTegic.value.DoubleValue
9.080

@<SCITEGIC>MOL_PROPERTY
Bond
SciTegic.value.DoubleValue
0.216

@<SCITEGIC>MOL_PROPERTY
Angle
SciTegic.value.DoubleValue
3.417

@<SCITEGIC>MOL_PROPERTY
Pdih
SciTegic.value.DoubleValue
5.765

@<SCITEGIC>MOL_PROPERTY
Idih
SciTegic.value.DoubleValue
0.001

@<SCITEGIC>MOL_PROPERTY
Tether
SciTegic.value.DoubleValue
0.000

@<TRIPOS>MOLECULE
guest-s22_confgen4.mol2 : confsearch ligand conformer 216
          20          19           1
SMALL
USER_CHARGES
 
@<TRIPOS>ATOM
       1    C1      16.955075   19.397314   22.084819 C.2        1 MOL1        -0.2535
       2    H1      16.895202   18.339042   22.333605 H          1 MOL1         0.0845
       3    H2      16.213246   19.792218   21.392832 H          1 MOL1         0.0845
       4    C2      17.902771   20.182948   22.603147 C.2        1 MOL1        -0.1324
       5    H3      17.946629   21.239256   22.339173 H          1 MOL1         0.0833
       6    C3      18.966598   19.706420   23.569155 C.3        1 MOL1        -0.1813
       7    H4      18.731649   18.698189   23.936502 H          1 MOL1         0.0753
       8    H5      18.972049   20.363099   24.449261 H          1 MOL1         0.0753
       9    C4      20.376335   19.709370   22.936246 C.3        1 MOL1        -0.1855
      10    H6      20.610943   20.717652   22.568265 H          1 MOL1         0.0755
      11    H7      21.115494   19.479034   23.715651 H          1 MOL1         0.0755
      12    C5      20.515661   18.686383   21.785738 C.3        1 MOL1        -0.1855
      13    H8      19.799143   18.922075   20.986813 H          1 MOL1         0.0755
      14    H9      20.264058   17.681376   22.151724 H          1 MOL1         0.0755
      15    C6      21.947589   18.673428   21.196302 C.3        1 MOL1        -0.1958
      16    H10     22.208710   19.667943   20.815063 H          1 MOL1         0.0753
      17    H11     22.676372   18.423249   21.976541 H          1 MOL1         0.0753
      18    C7      22.110239   17.671764   20.058626 C.2        1 MOL1         0.6174
      19    O1      22.425111   16.531968   20.338752 O.co2      1 MOL1        -0.6695
      20    O2      21.904251   18.053885   18.923618 O.co2      1 MOL1        -0.6695
@<TRIPOS>BOND
    1     1     2    1
    2     1     3    1
    3     1     4    2
    4     4     5    1
    5     4     6    1
    6     6     7    1
    7     6     8    1
    8     6     9    1
    9     9    10    1
   10     9    11    1
   11     9    12    1
   12    12    13    1
   13    12    14    1
   14    12    15    1
   15    15    16    1
   16    15    17    1
   17    15    18    1
   18    18    19    1
   19    18    20    2
@<TRIPOS>SUBSTRUCTURE
       1 MOL1            1 RESIDUE      1      MOL     
@<SCITEGIC>MOL_PROPERTY
VConf Rank
SciTegic.value.IntegerValue
216

@<SCITEGIC>MOL_PROPERTY
Conf_Id
SciTegic.value.IntegerValue
42

@<SCITEGIC>MOL_PROPERTY
Delta U+W
SciTegic.value.DoubleValue
-0.601

@<SCITEGIC>MOL_PROPERTY
U+W
SciTegic.value.DoubleValue
-52.347

@<SCITEGIC>MOL_PROPERTY
Grad RMS
SciTegic.value.DoubleValue
0.000000

@<SCITEGIC>MOL_PROPERTY
U
SciTegic.value.DoubleValue
8.428

@<SCITEGIC>MOL_PROPERTY
W
SciTegic.value.DoubleValue
-60.774

@<SCITEGIC>MOL_PROPERTY
W(PB)
SciTegic.value.DoubleValue
-62.982

@<SCITEGIC>MOL_PROPERTY
W(SA)
SciTegic.value.DoubleValue
2.208

@<SCITEGIC>MOL_PROPERTY
Valence
SciTegic.value.DoubleValue
9.231

@<SCITEGIC>MOL_PROPERTY
Coulomb
SciTegic.value.DoubleValue
-1.304

@<SCITEGIC>MOL_PROPERTY
VdW
SciTegic.value.DoubleValue
0.501

@<SCITEGIC>MOL_PROPERTY
VdW6
SciTegic.value.DoubleValue
-6.515

@<SCITEGIC>MOL_PROPERTY
VdW12
SciTegic.value.DoubleValue
7.016

@<SCITEGIC>MOL_PROPERTY
Bond
SciTegic.value.DoubleValue
0.103

@<SCITEGIC>MOL_PROPERTY
Angle
SciTegic.value.DoubleValue
2.328

@<SCITEGIC>MOL_PROPERTY
Pdih
SciTegic.value.DoubleValue
6.799

@<SCITEGIC>MOL_PROPERTY
Idih
SciTegic.value.DoubleValue
0.000

@<SCITEGIC>MOL_PROPERTY
Tether
SciTegic.value.DoubleValue
0.000

@<TRIPOS>MOLECULE
guest-s22_confgen4.mol2 : confsearch ligand conformer 217
          20          19           1
SMALL
USER_CHARGES
 
@<TRIPOS>ATOM
       1    C1      21.452253   19.555454   24.486421 C.2        1 MOL1        -0.2535
       2    H1      21.208915   18.573774   24.889518 H          1 MOL1         0.0845
       3    H2      21.585000   20.369938   25.196413 H          1 MOL1         0.0845
       4    C2      21.579840   19.757645   23.172319 C.2        1 MOL1        -0.1324
       5    H3      21.821007   20.748821   22.789153 H          1 MOL1         0.0833
       6    C3      21.408819   18.676899   22.126067 C.3        1 MOL1        -0.1813
       7    H4      21.363973   17.685784   22.597542 H          1 MOL1         0.0753
       8    H5      22.290208   18.668727   21.471164 H          1 MOL1         0.0753
       9    C4      20.147259   18.894518   21.260580 C.3        1 MOL1        -0.1855
      10    H6      20.197437   19.883602   20.784625 H          1 MOL1         0.0755
      11    H7      20.142332   18.155996   20.447376 H          1 MOL1         0.0755
      12    C5      18.836875   18.765395   22.072671 C.3        1 MOL1        -0.1855
      13    H8      18.809427   19.526690   22.864523 H          1 MOL1         0.0755
      14    H9      18.816865   17.788466   22.574110 H          1 MOL1         0.0755
      15    C6      17.571120   18.904108   21.187545 C.3        1 MOL1        -0.1958
      16    H10     17.592874   18.166509   20.376249 H          1 MOL1         0.0753
      17    H11     16.679170   18.689506   21.787846 H          1 MOL1         0.0753
      18    C7      17.389663   20.291757   20.579010 C.2        1 MOL1         0.6174
      19    O1      17.667247   20.446874   19.405958 O.co2      1 MOL1        -0.6695
      20    O2      16.957683   21.177086   21.290825 O.co2      1 MOL1        -0.6695
@<TRIPOS>BOND
    1     1     2    1
    2     1     3    1
    3     1     4    2
    4     4     5    1
    5     4     6    1
    6     6     7    1
    7     6     8    1
    8     6     9    1
    9     9    10    1
   10     9    11    1
   11     9    12    1
   12    12    13    1
   13    12    14    1
   14    12    15    1
   15    15    16    1
   16    15    17    1
   17    15    18    1
   18    18    19    1
   19    18    20    2
@<TRIPOS>SUBSTRUCTURE
       1 MOL1            1 RESIDUE      1      MOL     
@<SCITEGIC>MOL_PROPERTY
VConf Rank
SciTegic.value.IntegerValue
217

@<SCITEGIC>MOL_PROPERTY
Conf_Id
SciTegic.value.IntegerValue
68

@<SCITEGIC>MOL_PROPERTY
Delta U+W
SciTegic.value.DoubleValue
0.492

@<SCITEGIC>MOL_PROPERTY
U+W
SciTegic.value.DoubleValue
-51.253

@<SCITEGIC>MOL_PROPERTY
Grad RMS
SciTegic.value.DoubleValue
0.000000

@<SCITEGIC>MOL_PROPERTY
U
SciTegic.value.DoubleValue
10.179

@<SCITEGIC>MOL_PROPERTY
W
SciTegic.value.DoubleValue
-61.432

@<SCITEGIC>MOL_PROPERTY
W(PB)
SciTegic.value.DoubleValue
-63.627

@<SCITEGIC>MOL_PROPERTY
W(SA)
SciTegic.value.DoubleValue
2.195

@<SCITEGIC>MOL_PROPERTY
Valence
SciTegic.value.DoubleValue
9.483

@<SCITEGIC>MOL_PROPERTY
Coulomb
SciTegic.value.DoubleValue
0.361

@<SCITEGIC>MOL_PROPERTY
VdW
SciTegic.value.DoubleValue
0.335

@<SCITEGIC>MOL_PROPERTY
VdW6
SciTegic.value.DoubleValue
-7.385

@<SCITEGIC>MOL_PROPERTY
VdW12
SciTegic.value.DoubleValue
7.720

@<SCITEGIC>MOL_PROPERTY
Bond
SciTegic.value.DoubleValue
0.125

@<SCITEGIC>MOL_PROPERTY
Angle
SciTegic.value.DoubleValue
2.487

@<SCITEGIC>MOL_PROPERTY
Pdih
SciTegic.value.DoubleValue
6.870

@<SCITEGIC>MOL_PROPERTY
Idih
SciTegic.value.DoubleValue
0.001

@<SCITEGIC>MOL_PROPERTY
Tether
SciTegic.value.DoubleValue
0.000

@<TRIPOS>MOLECULE
guest-s22_confgen4.mol2 : confsearch ligand conformer 218
          20          19           1
SMALL
USER_CHARGES
 
@<TRIPOS>ATOM
       1    C1      18.587517   17.664792   24.653588 C.2        1 MOL1        -0.2535
       2    H1      17.762117   17.082997   24.246503 H          1 MOL1         0.0845
       3    H2      18.504295   17.997830   25.686709 H          1 MOL1         0.0845
       4    C2      19.660473   17.963447   23.916521 C.2        1 MOL1        -0.1324
       5    H3      20.476615   18.544728   24.344620 H          1 MOL1         0.0833
       6    C3      19.847835   17.530451   22.478053 C.3        1 MOL1        -0.1813
       7    H4      19.177036   16.690085   22.253704 H          1 MOL1         0.0753
       8    H5      20.869545   17.155962   22.330188 H          1 MOL1         0.0753
       9    C4      19.561178   18.673157   21.477937 C.3        1 MOL1        -0.1855
      10    H6      19.585697   18.265747   20.458054 H          1 MOL1         0.0755
      11    H7      18.541752   19.050281   21.639640 H          1 MOL1         0.0755
      12    C5      20.577180   19.835065   21.584888 C.3        1 MOL1        -0.1855
      13    H8      21.594928   19.438207   21.470859 H          1 MOL1         0.0755
      14    H9      20.524570   20.290380   22.583255 H          1 MOL1         0.0755
      15    C6      20.341715   20.931558   20.513854 C.3        1 MOL1        -0.1958
      16    H10     21.153033   21.667602   20.558672 H          1 MOL1         0.0753
      17    H11     20.366793   20.492320   19.509262 H          1 MOL1         0.0753
      18    C7      19.027619   21.689183   20.681167 C.2        1 MOL1         0.6174
      19    O1      18.966101   22.545114   21.541808 O.co2      1 MOL1        -0.6695
      20    O2      18.107475   21.417886   19.934938 O.co2      1 MOL1        -0.6695
@<TRIPOS>BOND
    1     1     2    1
    2     1     3    1
    3     1     4    2
    4     4     5    1
    5     4     6    1
    6     6     7    1
    7     6     8    1
    8     6     9    1
    9     9    10    1
   10     9    11    1
   11     9    12    1
   12    12    13    1
   13    12    14    1
   14    12    15    1
   15    15    16    1
   16    15    17    1
   17    15    18    1
   18    18    19    1
   19    18    20    2
@<TRIPOS>SUBSTRUCTURE
       1 MOL1            1 RESIDUE      1      MOL     
@<SCITEGIC>MOL_PROPERTY
VConf Rank
SciTegic.value.IntegerValue
218

@<SCITEGIC>MOL_PROPERTY
Conf_Id
SciTegic.value.IntegerValue
87

@<SCITEGIC>MOL_PROPERTY
Delta U+W
SciTegic.value.DoubleValue
0.339

@<SCITEGIC>MOL_PROPERTY
U+W
SciTegic.value.DoubleValue
-51.407

@<SCITEGIC>MOL_PROPERTY
Grad RMS
SciTegic.value.DoubleValue
0.000000

@<SCITEGIC>MOL_PROPERTY
U
SciTegic.value.DoubleValue
10.461

@<SCITEGIC>MOL_PROPERTY
W
SciTegic.value.DoubleValue
-61.867

@<SCITEGIC>MOL_PROPERTY
W(PB)
SciTegic.value.DoubleValue
-64.045

@<SCITEGIC>MOL_PROPERTY
W(SA)
SciTegic.value.DoubleValue
2.178

@<SCITEGIC>MOL_PROPERTY
Valence
SciTegic.value.DoubleValue
9.555

@<SCITEGIC>MOL_PROPERTY
Coulomb
SciTegic.value.DoubleValue
0.483

@<SCITEGIC>MOL_PROPERTY
VdW
SciTegic.value.DoubleValue
0.423

@<SCITEGIC>MOL_PROPERTY
VdW6
SciTegic.value.DoubleValue
-7.223

@<SCITEGIC>MOL_PROPERTY
VdW12
SciTegic.value.DoubleValue
7.646

@<SCITEGIC>MOL_PROPERTY
Bond
SciTegic.value.DoubleValue
0.126

@<SCITEGIC>MOL_PROPERTY
Angle
SciTegic.value.DoubleValue
2.492

@<SCITEGIC>MOL_PROPERTY
Pdih
SciTegic.value.DoubleValue
6.936

@<SCITEGIC>MOL_PROPERTY
Idih
SciTegic.value.DoubleValue
0.001

@<SCITEGIC>MOL_PROPERTY
Tether
SciTegic.value.DoubleValue
0.000

@<TRIPOS>MOLECULE
guest-s22_confgen4.mol2 : confsearch ligand conformer 219
          20          19           1
SMALL
USER_CHARGES
 
@<TRIPOS>ATOM
       1    C1      20.044920   19.431855   19.207635 C.2        1 MOL1        -0.2535
       2    H1      20.120664   18.432662   18.781849 H          1 MOL1         0.0845
       3    H2      19.573449   20.202284   18.600039 H          1 MOL1         0.0845
       4    C2      20.509913   19.703788   20.429743 C.2        1 MOL1        -0.1324
       5    H3      20.433021   20.712079   20.834990 H          1 MOL1         0.0833
       6    C3      21.186934   18.686214   21.322936 C.3        1 MOL1        -0.1813
       7    H4      21.778884   19.193166   22.096584 H          1 MOL1         0.0753
       8    H5      21.908694   18.119375   20.719477 H          1 MOL1         0.0753
       9    C4      20.203028   17.685734   21.978784 C.3        1 MOL1        -0.1855
      10    H6      19.486682   17.318451   21.231198 H          1 MOL1         0.0755
      11    H7      20.779578   16.807602   22.300044 H          1 MOL1         0.0755
      12    C5      19.447550   18.230360   23.217224 C.3        1 MOL1        -0.1855
      13    H8      20.166464   18.609387   23.956508 H          1 MOL1         0.0755
      14    H9      18.925425   17.391701   23.698395 H          1 MOL1         0.0755
      15    C6      18.406144   19.332418   22.894416 C.3        1 MOL1        -0.1958
      16    H10     18.904678   20.244104   22.550363 H          1 MOL1         0.0753
      17    H11     17.738894   19.000471   22.090107 H          1 MOL1         0.0753
      18    C7      17.548969   19.704902   24.098632 C.2        1 MOL1         0.6174
      19    O1      17.951576   20.577947   24.841995 O.co2      1 MOL1        -0.6695
      20    O2      16.510888   19.097813   24.273879 O.co2      1 MOL1        -0.6695
@<TRIPOS>BOND
    1     1     2    1
    2     1     3    1
    3     1     4    2
    4     4     5    1
    5     4     6    1
    6     6     7    1
    7     6     8    1
    8     6     9    1
    9     9    10    1
   10     9    11    1
   11     9    12    1
   12    12    13    1
   13    12    14    1
   14    12    15    1
   15    15    16    1
   16    15    17    1
   17    15    18    1
   18    18    19    1
   19    18    20    2
@<TRIPOS>SUBSTRUCTURE
       1 MOL1            1 RESIDUE      1      MOL     
@<SCITEGIC>MOL_PROPERTY
VConf Rank
SciTegic.value.IntegerValue
219

@<SCITEGIC>MOL_PROPERTY
Conf_Id
SciTegic.value.IntegerValue
51

@<SCITEGIC>MOL_PROPERTY
Delta U+W
SciTegic.value.DoubleValue
1.709

@<SCITEGIC>MOL_PROPERTY
U+W
SciTegic.value.DoubleValue
-50.036

@<SCITEGIC>MOL_PROPERTY
Grad RMS
SciTegic.value.DoubleValue
0.000000

@<SCITEGIC>MOL_PROPERTY
U
SciTegic.value.DoubleValue
10.643

@<SCITEGIC>MOL_PROPERTY
W
SciTegic.value.DoubleValue
-60.679

@<SCITEGIC>MOL_PROPERTY
W(PB)
SciTegic.value.DoubleValue
-62.882

@<SCITEGIC>MOL_PROPERTY
W(SA)
SciTegic.value.DoubleValue
2.203

@<SCITEGIC>MOL_PROPERTY
Valence
SciTegic.value.DoubleValue
11.231

@<SCITEGIC>MOL_PROPERTY
Coulomb
SciTegic.value.DoubleValue
-1.077

@<SCITEGIC>MOL_PROPERTY
VdW
SciTegic.value.DoubleValue
0.489

@<SCITEGIC>MOL_PROPERTY
VdW6
SciTegic.value.DoubleValue
-7.546

@<SCITEGIC>MOL_PROPERTY
VdW12
SciTegic.value.DoubleValue
8.035

@<SCITEGIC>MOL_PROPERTY
Bond
SciTegic.value.DoubleValue
0.159

@<SCITEGIC>MOL_PROPERTY
Angle
SciTegic.value.DoubleValue
3.005

@<SCITEGIC>MOL_PROPERTY
Pdih
SciTegic.value.DoubleValue
8.065

@<SCITEGIC>MOL_PROPERTY
Idih
SciTegic.value.DoubleValue
0.002

@<SCITEGIC>MOL_PROPERTY
Tether
SciTegic.value.DoubleValue
0.000

@<TRIPOS>MOLECULE
guest-s22_confgen4.mol2 : confsearch ligand conformer 220
          20          19           1
SMALL
USER_CHARGES
 
@<TRIPOS>ATOM
       1    C1      17.583444   19.066473   19.980900 C.2        1 MOL1        -0.2535
       2    H1      16.869859   19.804037   20.344509 H          1 MOL1         0.0845
       3    H2      17.184708   18.187517   19.477445 H          1 MOL1         0.0845
       4    C2      18.898395   19.230423   20.147445 C.2        1 MOL1        -0.1324
       5    H3      19.597222   18.485514   19.768569 H          1 MOL1         0.0833
       6    C3      19.521860   20.431694   20.825560 C.3        1 MOL1        -0.1813
       7    H4      19.035025   21.338762   20.442641 H          1 MOL1         0.0753
       8    H5      20.579792   20.520504   20.544794 H          1 MOL1         0.0753
       9    C4      19.382429   20.413984   22.368095 C.3        1 MOL1        -0.1855
      10    H6      19.530151   21.440030   22.731612 H          1 MOL1         0.0755
      11    H7      18.356500   20.139730   22.649494 H          1 MOL1         0.0755
      12    C5      20.397591   19.503994   23.104622 C.3        1 MOL1        -0.1855
      13    H8      20.324496   19.708021   24.181896 H          1 MOL1         0.0755
      14    H9      21.421587   19.771786   22.810076 H          1 MOL1         0.0755
      15    C6      20.173320   17.986679   22.879394 C.3        1 MOL1        -0.1958
      16    H10     19.128147   17.723293   23.080801 H          1 MOL1         0.0753
      17    H11     20.384099   17.716619   21.839815 H          1 MOL1         0.0753
      18    C7      21.060241   17.121166   23.767020 C.2        1 MOL1         0.6174
      19    O1      22.163344   16.818998   23.356233 O.co2      1 MOL1        -0.6695
      20    O2      20.633033   16.788554   24.855021 O.co2      1 MOL1        -0.6695
@<TRIPOS>BOND
    1     1     2    1
    2     1     3    1
    3     1     4    2
    4     4     5    1
    5     4     6    1
    6     6     7    1
    7     6     8    1
    8     6     9    1
    9     9    10    1
   10     9    11    1
   11     9    12    1
   12    12    13    1
   13    12    14    1
   14    12    15    1
   15    15    16    1
   16    15    17    1
   17    15    18    1
   18    18    19    1
   19    18    20    2
@<TRIPOS>SUBSTRUCTURE
       1 MOL1            1 RESIDUE      1      MOL     
@<SCITEGIC>MOL_PROPERTY
VConf Rank
SciTegic.value.IntegerValue
220

@<SCITEGIC>MOL_PROPERTY
Conf_Id
SciTegic.value.IntegerValue
91

@<SCITEGIC>MOL_PROPERTY
Delta U+W
SciTegic.value.DoubleValue
1.604

@<SCITEGIC>MOL_PROPERTY
U+W
SciTegic.value.DoubleValue
-50.141

@<SCITEGIC>MOL_PROPERTY
Grad RMS
SciTegic.value.DoubleValue
0.000000

@<SCITEGIC>MOL_PROPERTY
U
SciTegic.value.DoubleValue
10.644

@<SCITEGIC>MOL_PROPERTY
W
SciTegic.value.DoubleValue
-60.786

@<SCITEGIC>MOL_PROPERTY
W(PB)
SciTegic.value.DoubleValue
-62.965

@<SCITEGIC>MOL_PROPERTY
W(SA)
SciTegic.value.DoubleValue
2.179

@<SCITEGIC>MOL_PROPERTY
Valence
SciTegic.value.DoubleValue
11.230

@<SCITEGIC>MOL_PROPERTY
Coulomb
SciTegic.value.DoubleValue
-1.075

@<SCITEGIC>MOL_PROPERTY
VdW
SciTegic.value.DoubleValue
0.489

@<SCITEGIC>MOL_PROPERTY
VdW6
SciTegic.value.DoubleValue
-7.547

@<SCITEGIC>MOL_PROPERTY
VdW12
SciTegic.value.DoubleValue
8.036

@<SCITEGIC>MOL_PROPERTY
Bond
SciTegic.value.DoubleValue
0.159

@<SCITEGIC>MOL_PROPERTY
Angle
SciTegic.value.DoubleValue
3.006

@<SCITEGIC>MOL_PROPERTY
Pdih
SciTegic.value.DoubleValue
8.064

@<SCITEGIC>MOL_PROPERTY
Idih
SciTegic.value.DoubleValue
0.002

@<SCITEGIC>MOL_PROPERTY
Tether
SciTegic.value.DoubleValue
0.000

@<TRIPOS>MOLECULE
guest-s22_confgen4.mol2 : confsearch ligand conformer 221
          20          19           1
SMALL
USER_CHARGES
 
@<TRIPOS>ATOM
       1    C1      22.239822   17.130408   23.919978 C.2        1 MOL1        -0.2535
       2    H1      21.423704   16.865520   24.590334 H          1 MOL1         0.0845
       3    H2      23.253265   17.055796   24.310673 H          1 MOL1         0.0845
       4    C2      22.010970   17.533967   22.667613 C.2        1 MOL1        -0.1324
       5    H3      22.842131   17.795231   22.012961 H          1 MOL1         0.0833
       6    C3      20.633373   17.660991   22.056275 C.3        1 MOL1        -0.1813
       7    H4      19.892085   17.140065   22.677510 H          1 MOL1         0.0753
       8    H5      20.621130   17.171895   21.073026 H          1 MOL1         0.0753
       9    C4      20.226179   19.141398   21.903107 C.3        1 MOL1        -0.1855
      10    H6      20.244113   19.626917   22.888670 H          1 MOL1         0.0755
      11    H7      20.965403   19.660898   21.277944 H          1 MOL1         0.0755
      12    C5      18.822121   19.289493   21.277165 C.3        1 MOL1        -0.1855
      13    H8      18.082115   18.770547   21.902168 H          1 MOL1         0.0755
      14    H9      18.803190   18.803040   20.292010 H          1 MOL1         0.0755
      15    C6      18.412679   20.778548   21.123965 C.3        1 MOL1        -0.1958
      16    H10     18.423217   21.268677   22.104565 H          1 MOL1         0.0753
      17    H11     19.143563   21.301297   20.495912 H          1 MOL1         0.0753
      18    C7      17.031849   21.015686   20.510457 C.2        1 MOL1         0.6174
      19    O1      16.676780   22.169489   20.373334 O.co2      1 MOL1        -0.6695
      20    O2      16.345389   20.066078   20.185398 O.co2      1 MOL1        -0.6695
@<TRIPOS>BOND
    1     1     2    1
    2     1     3    1
    3     1     4    2
    4     4     5    1
    5     4     6    1
    6     6     7    1
    7     6     8    1
    8     6     9    1
    9     9    10    1
   10     9    11    1
   11     9    12    1
   12    12    13    1
   13    12    14    1
   14    12    15    1
   15    15    16    1
   16    15    17    1
   17    15    18    1
   18    18    19    1
   19    18    20    2
@<TRIPOS>SUBSTRUCTURE
       1 MOL1            1 RESIDUE      1      MOL     
@<SCITEGIC>MOL_PROPERTY
VConf Rank
SciTegic.value.IntegerValue
221

@<SCITEGIC>MOL_PROPERTY
Conf_Id
SciTegic.value.IntegerValue
33

@<SCITEGIC>MOL_PROPERTY
Delta U+W
SciTegic.value.DoubleValue
0.000

@<SCITEGIC>MOL_PROPERTY
U+W
SciTegic.value.DoubleValue
-51.745

@<SCITEGIC>MOL_PROPERTY
Grad RMS
SciTegic.value.DoubleValue
0.000000

@<SCITEGIC>MOL_PROPERTY
U
SciTegic.value.DoubleValue
7.593

@<SCITEGIC>MOL_PROPERTY
W
SciTegic.value.DoubleValue
-59.338

@<SCITEGIC>MOL_PROPERTY
W(PB)
SciTegic.value.DoubleValue
-61.574

@<SCITEGIC>MOL_PROPERTY
W(SA)
SciTegic.value.DoubleValue
2.236

@<SCITEGIC>MOL_PROPERTY
Valence
SciTegic.value.DoubleValue
9.570

@<SCITEGIC>MOL_PROPERTY
Coulomb
SciTegic.value.DoubleValue
-3.091

@<SCITEGIC>MOL_PROPERTY
VdW
SciTegic.value.DoubleValue
1.114

@<SCITEGIC>MOL_PROPERTY
VdW6
SciTegic.value.DoubleValue
-6.064

@<SCITEGIC>MOL_PROPERTY
VdW12
SciTegic.value.DoubleValue
7.178

@<SCITEGIC>MOL_PROPERTY
Bond
SciTegic.value.DoubleValue
0.117

@<SCITEGIC>MOL_PROPERTY
Angle
SciTegic.value.DoubleValue
2.692

@<SCITEGIC>MOL_PROPERTY
Pdih
SciTegic.value.DoubleValue
6.761

@<SCITEGIC>MOL_PROPERTY
Idih
SciTegic.value.DoubleValue
0.000

@<SCITEGIC>MOL_PROPERTY
Tether
SciTegic.value.DoubleValue
0.000

@<TRIPOS>MOLECULE
guest-s22_confgen4.mol2 : confsearch ligand conformer 222
          20          19           1
SMALL
USER_CHARGES
 
@<TRIPOS>ATOM
       1    C1      17.076572   16.599497   21.347820 C.2        1 MOL1        -0.2535
       2    H1      16.829942   16.636684   22.407711 H          1 MOL1         0.0845
       3    H2      16.604110   15.821477   20.750557 H          1 MOL1         0.0845
       4    C2      17.926790   17.470667   20.798396 C.2        1 MOL1        -0.1324
       5    H3      18.160904   17.415657   19.735477 H          1 MOL1         0.0833
       6    C3      18.619556   18.576636   21.563008 C.3        1 MOL1        -0.1813
       7    H4      18.140562   18.719620   22.541127 H          1 MOL1         0.0753
       8    H5      18.506561   19.519570   21.013319 H          1 MOL1         0.0753
       9    C4      20.117714   18.256818   21.765610 C.3        1 MOL1        -0.1855
      10    H6      20.207372   17.270279   22.241050 H          1 MOL1         0.0755
      11    H7      20.613900   18.176423   20.788712 H          1 MOL1         0.0755
      12    C5      20.857700   19.295717   22.641560 C.3        1 MOL1        -0.1855
      13    H8      21.879069   18.935705   22.827812 H          1 MOL1         0.0755
      14    H9      20.370529   19.367578   23.623850 H          1 MOL1         0.0755
      15    C6      20.935928   20.704497   21.997981 C.3        1 MOL1        -0.1958
      16    H10     21.381939   20.639820   20.998344 H          1 MOL1         0.0753
      17    H11     19.933905   21.132189   21.880621 H          1 MOL1         0.0753
      18    C7      21.763825   21.683570   22.822584 C.2        1 MOL1         0.6174
      19    O1      21.198583   22.332207   23.680767 O.co2      1 MOL1        -0.6695
      20    O2      22.955902   21.757439   22.598461 O.co2      1 MOL1        -0.6695
@<TRIPOS>BOND
    1     1     2    1
    2     1     3    1
    3     1     4    2
    4     4     5    1
    5     4     6    1
    6     6     7    1
    7     6     8    1
    8     6     9    1
    9     9    10    1
   10     9    11    1
   11     9    12    1
   12    12    13    1
   13    12    14    1
   14    12    15    1
   15    15    16    1
   16    15    17    1
   17    15    18    1
   18    18    19    1
   19    18    20    2
@<TRIPOS>SUBSTRUCTURE
       1 MOL1            1 RESIDUE      1      MOL     
@<SCITEGIC>MOL_PROPERTY
VConf Rank
SciTegic.value.IntegerValue
222

@<SCITEGIC>MOL_PROPERTY
Conf_Id
SciTegic.value.IntegerValue
37

@<SCITEGIC>MOL_PROPERTY
Delta U+W
SciTegic.value.DoubleValue
-0.384

@<SCITEGIC>MOL_PROPERTY
U+W
SciTegic.value.DoubleValue
-52.130

@<SCITEGIC>MOL_PROPERTY
Grad RMS
SciTegic.value.DoubleValue
0.000000

@<SCITEGIC>MOL_PROPERTY
U
SciTegic.value.DoubleValue
7.491

@<SCITEGIC>MOL_PROPERTY
W
SciTegic.value.DoubleValue
-59.621

@<SCITEGIC>MOL_PROPERTY
W(PB)
SciTegic.value.DoubleValue
-61.853

@<SCITEGIC>MOL_PROPERTY
W(SA)
SciTegic.value.DoubleValue
2.232

@<SCITEGIC>MOL_PROPERTY
Valence
SciTegic.value.DoubleValue
9.604

@<SCITEGIC>MOL_PROPERTY
Coulomb
SciTegic.value.DoubleValue
-2.799

@<SCITEGIC>MOL_PROPERTY
VdW
SciTegic.value.DoubleValue
0.686

@<SCITEGIC>MOL_PROPERTY
VdW6
SciTegic.value.DoubleValue
-6.435

@<SCITEGIC>MOL_PROPERTY
VdW12
SciTegic.value.DoubleValue
7.121

@<SCITEGIC>MOL_PROPERTY
Bond
SciTegic.value.DoubleValue
0.124

@<SCITEGIC>MOL_PROPERTY
Angle
SciTegic.value.DoubleValue
2.493

@<SCITEGIC>MOL_PROPERTY
Pdih
SciTegic.value.DoubleValue
6.986

@<SCITEGIC>MOL_PROPERTY
Idih
SciTegic.value.DoubleValue
0.001

@<SCITEGIC>MOL_PROPERTY
Tether
SciTegic.value.DoubleValue
0.000

@<TRIPOS>MOLECULE
guest-s22_confgen4.mol2 : confsearch ligand conformer 223
          20          19           1
SMALL
USER_CHARGES
 
@<TRIPOS>ATOM
       1    C1      19.286693   21.386135   19.590401 C.2        1 MOL1        -0.2535
       2    H1      19.142405   22.160207   18.838613 H          1 MOL1         0.0845
       3    H2      18.392408   20.891721   19.963707 H          1 MOL1         0.0845
       4    C2      20.513808   21.072744   20.021548 C.2        1 MOL1        -0.1324
       5    H3      21.371804   21.603663   19.609728 H          1 MOL1         0.0833
       6    C3      20.871265   20.022163   21.059585 C.3        1 MOL1        -0.1813
       7    H4      21.430357   20.505025   21.872232 H          1 MOL1         0.0753
       8    H5      21.567404   19.302643   20.608125 H          1 MOL1         0.0753
       9    C4      19.667600   19.256655   21.657224 C.3        1 MOL1        -0.1855
      10    H6      18.977161   19.969222   22.129060 H          1 MOL1         0.0755
      11    H7      19.115678   18.753815   20.851233 H          1 MOL1         0.0755
      12    C5      20.115907   18.210402   22.700966 C.3        1 MOL1        -0.1855
      13    H8      20.668903   18.707293   23.510226 H          1 MOL1         0.0755
      14    H9      20.807140   17.494381   22.235009 H          1 MOL1         0.0755
      15    C6      18.912387   17.442481   23.300900 C.3        1 MOL1        -0.1958
      16    H10     18.218515   18.142107   23.782217 H          1 MOL1         0.0753
      17    H11     18.356702   16.929236   22.506925 H          1 MOL1         0.0753
      18    C7      19.329604   16.402842   24.334857 C.2        1 MOL1         0.6174
      19    O1      19.412506   16.750244   25.496359 O.co2      1 MOL1        -0.6695
      20    O2      19.579814   15.278161   23.948676 O.co2      1 MOL1        -0.6695
@<TRIPOS>BOND
    1     1     2    1
    2     1     3    1
    3     1     4    2
    4     4     5    1
    5     4     6    1
    6     6     7    1
    7     6     8    1
    8     6     9    1
    9     9    10    1
   10     9    11    1
   11     9    12    1
   12    12    13    1
   13    12    14    1
   14    12    15    1
   15    15    16    1
   16    15    17    1
   17    15    18    1
   18    18    19    1
   19    18    20    2
@<TRIPOS>SUBSTRUCTURE
       1 MOL1            1 RESIDUE      1      MOL     
@<SCITEGIC>MOL_PROPERTY
VConf Rank
SciTegic.value.IntegerValue
223

@<SCITEGIC>MOL_PROPERTY
Conf_Id
SciTegic.value.IntegerValue
44

@<SCITEGIC>MOL_PROPERTY
Delta U+W
SciTegic.value.DoubleValue
-1.440

@<SCITEGIC>MOL_PROPERTY
U+W
SciTegic.value.DoubleValue
-53.185

@<SCITEGIC>MOL_PROPERTY
Grad RMS
SciTegic.value.DoubleValue
0.000000

@<SCITEGIC>MOL_PROPERTY
U
SciTegic.value.DoubleValue
6.572

@<SCITEGIC>MOL_PROPERTY
W
SciTegic.value.DoubleValue
-59.757

@<SCITEGIC>MOL_PROPERTY
W(PB)
SciTegic.value.DoubleValue
-62.007

@<SCITEGIC>MOL_PROPERTY
W(SA)
SciTegic.value.DoubleValue
2.249

@<SCITEGIC>MOL_PROPERTY
Valence
SciTegic.value.DoubleValue
7.989

@<SCITEGIC>MOL_PROPERTY
Coulomb
SciTegic.value.DoubleValue
-2.697

@<SCITEGIC>MOL_PROPERTY
VdW
SciTegic.value.DoubleValue
1.281

@<SCITEGIC>MOL_PROPERTY
VdW6
SciTegic.value.DoubleValue
-6.467

@<SCITEGIC>MOL_PROPERTY
VdW12
SciTegic.value.DoubleValue
7.748

@<SCITEGIC>MOL_PROPERTY
Bond
SciTegic.value.DoubleValue
0.136

@<SCITEGIC>MOL_PROPERTY
Angle
SciTegic.value.DoubleValue
2.854

@<SCITEGIC>MOL_PROPERTY
Pdih
SciTegic.value.DoubleValue
4.997

@<SCITEGIC>MOL_PROPERTY
Idih
SciTegic.value.DoubleValue
0.001

@<SCITEGIC>MOL_PROPERTY
Tether
SciTegic.value.DoubleValue
0.000

@<TRIPOS>MOLECULE
guest-s22_confgen4.mol2 : confsearch ligand conformer 224
          20          19           1
SMALL
USER_CHARGES
 
@<TRIPOS>ATOM
       1    C1      17.642093   19.212940   19.224162 C.2        1 MOL1        -0.2535
       2    H1      16.909279   19.123397   20.024501 H          1 MOL1         0.0845
       3    H2      17.292202   19.057881   18.204953 H          1 MOL1         0.0845
       4    C2      18.921617   19.498984   19.478553 C.2        1 MOL1        -0.1324
       5    H3      19.639285   19.583574   18.662812 H          1 MOL1         0.0833
       6    C3      19.479558   19.728406   20.865623 C.3        1 MOL1        -0.1813
       7    H4      18.658458   19.892521   21.575173 H          1 MOL1         0.0753
       8    H5      20.089307   20.641711   20.869071 H          1 MOL1         0.0753
       9    C4      20.339873   18.529061   21.323215 C.3        1 MOL1        -0.1855
      10    H6      19.715577   17.626249   21.371970 H          1 MOL1         0.0755
      11    H7      21.109179   18.333078   20.563713 H          1 MOL1         0.0755
      12    C5      21.038341   18.753969   22.685523 C.3        1 MOL1        -0.1855
      13    H8      21.670685   19.651180   22.635264 H          1 MOL1         0.0755
      14    H9      21.713946   17.909071   22.878414 H          1 MOL1         0.0755
      15    C6      20.050448   18.882407   23.874064 C.3        1 MOL1        -0.1958
      16    H10     19.420021   19.771207   23.758748 H          1 MOL1         0.0753
      17    H11     19.384018   18.012285   23.908056 H          1 MOL1         0.0753
      18    C7      20.758662   18.988387   25.219847 C.2        1 MOL1         0.6174
      19    O1      21.002991   17.961470   25.821909 O.co2      1 MOL1        -0.6695
      20    O2      21.065243   20.093568   25.621464 O.co2      1 MOL1        -0.6695
@<TRIPOS>BOND
    1     1     2    1
    2     1     3    1
    3     1     4    2
    4     4     5    1
    5     4     6    1
    6     6     7    1
    7     6     8    1
    8     6     9    1
    9     9    10    1
   10     9    11    1
   11     9    12    1
   12    12    13    1
   13    12    14    1
   14    12    15    1
   15    15    16    1
   16    15    17    1
   17    15    18    1
   18    18    19    1
   19    18    20    2
@<TRIPOS>SUBSTRUCTURE
       1 MOL1            1 RESIDUE      1      MOL     
@<SCITEGIC>MOL_PROPERTY
VConf Rank
SciTegic.value.IntegerValue
224

@<SCITEGIC>MOL_PROPERTY
Conf_Id
SciTegic.value.IntegerValue
38

@<SCITEGIC>MOL_PROPERTY
Delta U+W
SciTegic.value.DoubleValue
-0.381

@<SCITEGIC>MOL_PROPERTY
U+W
SciTegic.value.DoubleValue
-52.126

@<SCITEGIC>MOL_PROPERTY
Grad RMS
SciTegic.value.DoubleValue
0.000000

@<SCITEGIC>MOL_PROPERTY
U
SciTegic.value.DoubleValue
7.601

@<SCITEGIC>MOL_PROPERTY
W
SciTegic.value.DoubleValue
-59.727

@<SCITEGIC>MOL_PROPERTY
W(PB)
SciTegic.value.DoubleValue
-61.964

@<SCITEGIC>MOL_PROPERTY
W(SA)
SciTegic.value.DoubleValue
2.236

@<SCITEGIC>MOL_PROPERTY
Valence
SciTegic.value.DoubleValue
9.602

@<SCITEGIC>MOL_PROPERTY
Coulomb
SciTegic.value.DoubleValue
-2.686

@<SCITEGIC>MOL_PROPERTY
VdW
SciTegic.value.DoubleValue
0.685

@<SCITEGIC>MOL_PROPERTY
VdW6
SciTegic.value.DoubleValue
-6.453

@<SCITEGIC>MOL_PROPERTY
VdW12
SciTegic.value.DoubleValue
7.139

@<SCITEGIC>MOL_PROPERTY
Bond
SciTegic.value.DoubleValue
0.125

@<SCITEGIC>MOL_PROPERTY
Angle
SciTegic.value.DoubleValue
2.485

@<SCITEGIC>MOL_PROPERTY
Pdih
SciTegic.value.DoubleValue
6.991

@<SCITEGIC>MOL_PROPERTY
Idih
SciTegic.value.DoubleValue
0.001

@<SCITEGIC>MOL_PROPERTY
Tether
SciTegic.value.DoubleValue
0.000

@<TRIPOS>MOLECULE
guest-s22_confgen4.mol2 : confsearch ligand conformer 225
          20          19           1
SMALL
USER_CHARGES
 
@<TRIPOS>ATOM
       1    C1      20.707748   18.642671   25.410046 C.2        1 MOL1        -0.2535
       2    H1      21.699939   18.302286   25.118030 H          1 MOL1         0.0845
       3    H2      20.580726   18.998988   26.430914 H          1 MOL1         0.0845
       4    C2      19.684397   18.627601   24.552030 C.2        1 MOL1        -0.1324
       5    H3      18.699257   18.973624   24.864162 H          1 MOL1         0.0833
       6    C3      19.784520   18.147091   23.121389 C.3        1 MOL1        -0.1813
       7    H4      18.962860   17.449813   22.909721 H          1 MOL1         0.0753
       8    H5      20.719042   17.589297   22.972135 H          1 MOL1         0.0753
       9    C4      19.727231   19.329252   22.131325 C.3        1 MOL1        -0.1855
      10    H6      18.790627   19.884031   22.281075 H          1 MOL1         0.0755
      11    H7      20.547652   20.026883   22.349249 H          1 MOL1         0.0755
      12    C5      19.825373   18.855077   20.663723 C.3        1 MOL1        -0.1855
      13    H8      18.999920   18.165181   20.439297 H          1 MOL1         0.0755
      14    H9      20.756629   18.288666   20.527620 H          1 MOL1         0.0755
      15    C6      19.800082   20.031790   19.653969 C.3        1 MOL1        -0.1958
      16    H10     20.601948   20.744354   19.882271 H          1 MOL1         0.0753
      17    H11     19.991168   19.651821   18.643481 H          1 MOL1         0.0753
      18    C7      18.474308   20.786529   19.614463 C.2        1 MOL1         0.6174
      19    O1      18.417863   21.879607   20.142634 O.co2      1 MOL1        -0.6695
      20    O2      17.535425   20.264668   19.045906 O.co2      1 MOL1        -0.6695
@<TRIPOS>BOND
    1     1     2    1
    2     1     3    1
    3     1     4    2
    4     4     5    1
    5     4     6    1
    6     6     7    1
    7     6     8    1
    8     6     9    1
    9     9    10    1
   10     9    11    1
   11     9    12    1
   12    12    13    1
   13    12    14    1
   14    12    15    1
   15    15    16    1
   16    15    17    1
   17    15    18    1
   18    18    19    1
   19    18    20    2
@<TRIPOS>SUBSTRUCTURE
       1 MOL1            1 RESIDUE      1      MOL     
@<SCITEGIC>MOL_PROPERTY
VConf Rank
SciTegic.value.IntegerValue
225

@<SCITEGIC>MOL_PROPERTY
Conf_Id
SciTegic.value.IntegerValue
58

@<SCITEGIC>MOL_PROPERTY
Delta U+W
SciTegic.value.DoubleValue
0.019

@<SCITEGIC>MOL_PROPERTY
U+W
SciTegic.value.DoubleValue
-51.727

@<SCITEGIC>MOL_PROPERTY
Grad RMS
SciTegic.value.DoubleValue
0.000000

@<SCITEGIC>MOL_PROPERTY
U
SciTegic.value.DoubleValue
8.963

@<SCITEGIC>MOL_PROPERTY
W
SciTegic.value.DoubleValue
-60.690

@<SCITEGIC>MOL_PROPERTY
W(PB)
SciTegic.value.DoubleValue
-62.934

@<SCITEGIC>MOL_PROPERTY
W(SA)
SciTegic.value.DoubleValue
2.244

@<SCITEGIC>MOL_PROPERTY
Valence
SciTegic.value.DoubleValue
9.327

@<SCITEGIC>MOL_PROPERTY
Coulomb
SciTegic.value.DoubleValue
-0.780

@<SCITEGIC>MOL_PROPERTY
VdW
SciTegic.value.DoubleValue
0.417

@<SCITEGIC>MOL_PROPERTY
VdW6
SciTegic.value.DoubleValue
-6.635

@<SCITEGIC>MOL_PROPERTY
VdW12
SciTegic.value.DoubleValue
7.052

@<SCITEGIC>MOL_PROPERTY
Bond
SciTegic.value.DoubleValue
0.105

@<SCITEGIC>MOL_PROPERTY
Angle
SciTegic.value.DoubleValue
2.399

@<SCITEGIC>MOL_PROPERTY
Pdih
SciTegic.value.DoubleValue
6.822

@<SCITEGIC>MOL_PROPERTY
Idih
SciTegic.value.DoubleValue
0.000

@<SCITEGIC>MOL_PROPERTY
Tether
SciTegic.value.DoubleValue
0.000

@<TRIPOS>MOLECULE
guest-s22_confgen4.mol2 : confsearch ligand conformer 226
          20          19           1
SMALL
USER_CHARGES
 
@<TRIPOS>ATOM
       1    C1      21.085251   21.199047   19.385606 C.2        1 MOL1        -0.2535
       2    H1      22.044588   21.323640   19.885332 H          1 MOL1         0.0845
       3    H2      20.820196   21.927677   18.621334 H          1 MOL1         0.0845
       4    C2      20.261746   20.194704   19.696734 C.2        1 MOL1        -0.1324
       5    H3      19.305378   20.088447   19.185139 H          1 MOL1         0.0833
       6    C3      20.561593   19.146083   20.744650 C.3        1 MOL1        -0.1813
       7    H4      21.625113   19.175100   21.018187 H          1 MOL1         0.0753
       8    H5      20.368753   18.147331   20.330604 H          1 MOL1         0.0753
       9    C4      19.699745   19.357545   22.006994 C.3        1 MOL1        -0.1855
      10    H6      19.891829   20.359293   22.415499 H          1 MOL1         0.0755
      11    H7      18.636595   19.325784   21.731066 H          1 MOL1         0.0755
      12    C5      19.991782   18.291839   23.087417 C.3        1 MOL1        -0.1855
      13    H8      21.059145   18.320543   23.345283 H          1 MOL1         0.0755
      14    H9      19.790399   17.289085   22.685393 H          1 MOL1         0.0755
      15    C6      19.156825   18.505408   24.376653 C.3        1 MOL1        -0.1958
      16    H10     19.486616   17.799587   25.148036 H          1 MOL1         0.0753
      17    H11     19.325891   19.513159   24.775039 H          1 MOL1         0.0753
      18    C7      17.656527   18.302922   24.184365 C.2        1 MOL1         0.6174
      19    O1      17.240020   17.165025   24.090519 O.co2      1 MOL1        -0.6695
      20    O2      16.943094   19.285978   24.144587 O.co2      1 MOL1        -0.6695
@<TRIPOS>BOND
    1     1     2    1
    2     1     3    1
    3     1     4    2
    4     4     5    1
    5     4     6    1
    6     6     7    1
    7     6     8    1
    8     6     9    1
    9     9    10    1
   10     9    11    1
   11     9    12    1
   12    12    13    1
   13    12    14    1
   14    12    15    1
   15    15    16    1
   16    15    17    1
   17    15    18    1
   18    18    19    1
   19    18    20    2
@<TRIPOS>SUBSTRUCTURE
       1 MOL1            1 RESIDUE      1      MOL     
@<SCITEGIC>MOL_PROPERTY
VConf Rank
SciTegic.value.IntegerValue
226

@<SCITEGIC>MOL_PROPERTY
Conf_Id
SciTegic.value.IntegerValue
54

@<SCITEGIC>MOL_PROPERTY
Delta U+W
SciTegic.value.DoubleValue
-0.048

@<SCITEGIC>MOL_PROPERTY
U+W
SciTegic.value.DoubleValue
-51.793

@<SCITEGIC>MOL_PROPERTY
Grad RMS
SciTegic.value.DoubleValue
0.000000

@<SCITEGIC>MOL_PROPERTY
U
SciTegic.value.DoubleValue
8.964

@<SCITEGIC>MOL_PROPERTY
W
SciTegic.value.DoubleValue
-60.756

@<SCITEGIC>MOL_PROPERTY
W(PB)
SciTegic.value.DoubleValue
-63.007

@<SCITEGIC>MOL_PROPERTY
W(SA)
SciTegic.value.DoubleValue
2.251

@<SCITEGIC>MOL_PROPERTY
Valence
SciTegic.value.DoubleValue
9.327

@<SCITEGIC>MOL_PROPERTY
Coulomb
SciTegic.value.DoubleValue
-0.780

@<SCITEGIC>MOL_PROPERTY
VdW
SciTegic.value.DoubleValue
0.417

@<SCITEGIC>MOL_PROPERTY
VdW6
SciTegic.value.DoubleValue
-6.635

@<SCITEGIC>MOL_PROPERTY
VdW12
SciTegic.value.DoubleValue
7.052

@<SCITEGIC>MOL_PROPERTY
Bond
SciTegic.value.DoubleValue
0.105

@<SCITEGIC>MOL_PROPERTY
Angle
SciTegic.value.DoubleValue
2.399

@<SCITEGIC>MOL_PROPERTY
Pdih
SciTegic.value.DoubleValue
6.822

@<SCITEGIC>MOL_PROPERTY
Idih
SciTegic.value.DoubleValue
0.000

@<SCITEGIC>MOL_PROPERTY
Tether
SciTegic.value.DoubleValue
0.000

@<TRIPOS>MOLECULE
guest-s22_confgen4.mol2 : confsearch ligand conformer 227
          20          19           1
SMALL
USER_CHARGES
 
@<TRIPOS>ATOM
       1    C1      20.117103   18.631875   25.329005 C.2        1 MOL1        -0.2535
       2    H1      20.664068   17.908606   25.931415 H          1 MOL1         0.0845
       3    H2      20.075642   19.657483   25.692210 H          1 MOL1         0.0845
       4    C2      19.523965   18.271739   24.187882 C.2        1 MOL1        -0.1324
       5    H3      19.574827   17.238957   23.844331 H          1 MOL1         0.0833
       6    C3      18.741806   19.219393   23.303560 C.3        1 MOL1        -0.1813
       7    H4      18.439426   20.101888   23.883474 H          1 MOL1         0.0753
       8    H5      17.812773   18.738694   22.969088 H          1 MOL1         0.0753
       9    C4      19.556660   19.688900   22.077274 C.3        1 MOL1        -0.1855
      10    H6      18.989233   20.473325   21.557962 H          1 MOL1         0.0755
      11    H7      20.492929   20.152975   22.416644 H          1 MOL1         0.0755
      12    C5      19.869145   18.541626   21.087213 C.3        1 MOL1        -0.1855
      13    H8      18.933655   18.067796   20.758912 H          1 MOL1         0.0755
      14    H9      20.454479   17.765792   21.598055 H          1 MOL1         0.0755
      15    C6      20.662917   19.025791   19.845967 C.3        1 MOL1        -0.1958
      16    H10     21.584286   19.531464   20.159344 H          1 MOL1         0.0753
      17    H11     20.964621   18.160675   19.243884 H          1 MOL1         0.0753
      18    C7      19.877715   19.964237   18.934040 C.2        1 MOL1         0.6174
      19    O1      20.142593   21.150023   18.962338 O.co2      1 MOL1        -0.6695
      20    O2      19.028357   19.481723   18.210931 O.co2      1 MOL1        -0.6695
@<TRIPOS>BOND
    1     1     2    1
    2     1     3    1
    3     1     4    2
    4     4     5    1
    5     4     6    1
    6     6     7    1
    7     6     8    1
    8     6     9    1
    9     9    10    1
   10     9    11    1
   11     9    12    1
   12    12    13    1
   13    12    14    1
   14    12    15    1
   15    15    16    1
   16    15    17    1
   17    15    18    1
   18    18    19    1
   19    18    20    2
@<TRIPOS>SUBSTRUCTURE
       1 MOL1            1 RESIDUE      1      MOL     
@<SCITEGIC>MOL_PROPERTY
VConf Rank
SciTegic.value.IntegerValue
227

@<SCITEGIC>MOL_PROPERTY
Conf_Id
SciTegic.value.IntegerValue
27

@<SCITEGIC>MOL_PROPERTY
Delta U+W
SciTegic.value.DoubleValue
0.478

@<SCITEGIC>MOL_PROPERTY
U+W
SciTegic.value.DoubleValue
-51.267

@<SCITEGIC>MOL_PROPERTY
Grad RMS
SciTegic.value.DoubleValue
0.000000

@<SCITEGIC>MOL_PROPERTY
U
SciTegic.value.DoubleValue
9.192

@<SCITEGIC>MOL_PROPERTY
W
SciTegic.value.DoubleValue
-60.459

@<SCITEGIC>MOL_PROPERTY
W(PB)
SciTegic.value.DoubleValue
-62.649

@<SCITEGIC>MOL_PROPERTY
W(SA)
SciTegic.value.DoubleValue
2.190

@<SCITEGIC>MOL_PROPERTY
Valence
SciTegic.value.DoubleValue
9.572

@<SCITEGIC>MOL_PROPERTY
Coulomb
SciTegic.value.DoubleValue
-0.884

@<SCITEGIC>MOL_PROPERTY
VdW
SciTegic.value.DoubleValue
0.504

@<SCITEGIC>MOL_PROPERTY
VdW6
SciTegic.value.DoubleValue
-7.168

@<SCITEGIC>MOL_PROPERTY
VdW12
SciTegic.value.DoubleValue
7.672

@<SCITEGIC>MOL_PROPERTY
Bond
SciTegic.value.DoubleValue
0.127

@<SCITEGIC>MOL_PROPERTY
Angle
SciTegic.value.DoubleValue
2.504

@<SCITEGIC>MOL_PROPERTY
Pdih
SciTegic.value.DoubleValue
6.941

@<SCITEGIC>MOL_PROPERTY
Idih
SciTegic.value.DoubleValue
0.001

@<SCITEGIC>MOL_PROPERTY
Tether
SciTegic.value.DoubleValue
0.000

@<TRIPOS>MOLECULE
guest-s22_confgen4.mol2 : confsearch ligand conformer 228
          20          19           1
SMALL
USER_CHARGES
 
@<TRIPOS>ATOM
       1    C1      18.966581   19.559472   18.742720 C.2        1 MOL1        -0.2535
       2    H1      19.885337   19.933360   18.293718 H          1 MOL1         0.0845
       3    H2      18.025372   19.933985   18.343892 H          1 MOL1         0.0845
       4    C2      18.989060   18.678206   19.745985 C.2        1 MOL1        -0.1324
       5    H3      18.057570   18.314578   20.178875 H          1 MOL1         0.0833
       6    C3      20.257178   18.109680   20.346363 C.3        1 MOL1        -0.1813
       7    H4      21.090944   18.241193   19.643445 H          1 MOL1         0.0753
       8    H5      20.148243   17.026992   20.494618 H          1 MOL1         0.0753
       9    C4      20.627814   18.784946   21.686029 C.3        1 MOL1        -0.1855
      10    H6      21.617271   18.426240   22.000960 H          1 MOL1         0.0755
      11    H7      20.719902   19.869348   21.534706 H          1 MOL1         0.0755
      12    C5      19.603422   18.497606   22.807679 C.3        1 MOL1        -0.1855
      13    H8      19.493244   17.412377   22.939958 H          1 MOL1         0.0755
      14    H9      18.616353   18.886469   22.522788 H          1 MOL1         0.0755
      15    C6      20.028918   19.136169   24.152763 C.3        1 MOL1        -0.1958
      16    H10     21.006185   18.748307   24.464289 H          1 MOL1         0.0753
      17    H11     20.131637   20.222167   24.040218 H          1 MOL1         0.0753
      18    C7      19.033610   18.868271   25.275991 C.2        1 MOL1         0.6174
      19    O1      18.128257   19.661692   25.441765 O.co2      1 MOL1        -0.6695
      20    O2      19.179770   17.863924   25.944289 O.co2      1 MOL1        -0.6695
@<TRIPOS>BOND
    1     1     2    1
    2     1     3    1
    3     1     4    2
    4     4     5    1
    5     4     6    1
    6     6     7    1
    7     6     8    1
    8     6     9    1
    9     9    10    1
   10     9    11    1
   11     9    12    1
   12    12    13    1
   13    12    14    1
   14    12    15    1
   15    15    16    1
   16    15    17    1
   17    15    18    1
   18    18    19    1
   19    18    20    2
@<TRIPOS>SUBSTRUCTURE
       1 MOL1            1 RESIDUE      1      MOL     
@<SCITEGIC>MOL_PROPERTY
VConf Rank
SciTegic.value.IntegerValue
228

@<SCITEGIC>MOL_PROPERTY
Conf_Id
SciTegic.value.IntegerValue
41

@<SCITEGIC>MOL_PROPERTY
Delta U+W
SciTegic.value.DoubleValue
-0.634

@<SCITEGIC>MOL_PROPERTY
U+W
SciTegic.value.DoubleValue
-52.379

@<SCITEGIC>MOL_PROPERTY
Grad RMS
SciTegic.value.DoubleValue
0.000000

@<SCITEGIC>MOL_PROPERTY
U
SciTegic.value.DoubleValue
7.828

@<SCITEGIC>MOL_PROPERTY
W
SciTegic.value.DoubleValue
-60.207

@<SCITEGIC>MOL_PROPERTY
W(PB)
SciTegic.value.DoubleValue
-62.449

@<SCITEGIC>MOL_PROPERTY
W(SA)
SciTegic.value.DoubleValue
2.242

@<SCITEGIC>MOL_PROPERTY
Valence
SciTegic.value.DoubleValue
9.300

@<SCITEGIC>MOL_PROPERTY
Coulomb
SciTegic.value.DoubleValue
-2.080

@<SCITEGIC>MOL_PROPERTY
VdW
SciTegic.value.DoubleValue
0.608

@<SCITEGIC>MOL_PROPERTY
VdW6
SciTegic.value.DoubleValue
-6.341

@<SCITEGIC>MOL_PROPERTY
VdW12
SciTegic.value.DoubleValue
6.949

@<SCITEGIC>MOL_PROPERTY
Bond
SciTegic.value.DoubleValue
0.103

@<SCITEGIC>MOL_PROPERTY
Angle
SciTegic.value.DoubleValue
2.334

@<SCITEGIC>MOL_PROPERTY
Pdih
SciTegic.value.DoubleValue
6.862

@<SCITEGIC>MOL_PROPERTY
Idih
SciTegic.value.DoubleValue
0.001

@<SCITEGIC>MOL_PROPERTY
Tether
SciTegic.value.DoubleValue
0.000

@<TRIPOS>MOLECULE
guest-s22_confgen4.mol2 : confsearch ligand conformer 229
          20          19           1
SMALL
USER_CHARGES
 
@<TRIPOS>ATOM
       1    C1      19.283486   16.826593   24.846254 C.2        1 MOL1        -0.2535
       2    H1      19.358638   15.828661   25.274883 H          1 MOL1         0.0845
       3    H2      19.097072   17.652984   25.530272 H          1 MOL1         0.0845
       4    C2      19.417600   17.025244   23.532380 C.2        1 MOL1        -0.1324
       5    H3      19.604533   16.184629   22.864481 H          1 MOL1         0.0833
       6    C3      19.324814   18.379625   22.865565 C.3        1 MOL1        -0.1813
       7    H4      18.886708   19.113771   23.555106 H          1 MOL1         0.0753
       8    H5      18.650153   18.309873   22.002477 H          1 MOL1         0.0753
       9    C4      20.716816   18.868710   22.406978 C.3        1 MOL1        -0.1855
      10    H6      21.403947   18.836252   23.263692 H          1 MOL1         0.0755
      11    H7      21.122748   18.172976   21.659695 H          1 MOL1         0.0755
      12    C5      20.709619   20.307913   21.835284 C.3        1 MOL1        -0.1855
      13    H8      21.743269   20.603097   21.607646 H          1 MOL1         0.0755
      14    H9      20.354810   21.002524   22.608611 H          1 MOL1         0.0755
      15    C6      19.847108   20.486539   20.555992 C.3        1 MOL1        -0.1958
      16    H10     18.793216   20.271928   20.766366 H          1 MOL1         0.0753
      17    H11     19.891527   21.532756   20.231705 H          1 MOL1         0.0753
      18    C7      20.295158   19.626820   19.377488 C.2        1 MOL1         0.6174
      19    O1      21.325404   19.928945   18.807646 O.co2      1 MOL1        -0.6695
      20    O2      19.594576   18.689735   19.048839 O.co2      1 MOL1        -0.6695
@<TRIPOS>BOND
    1     1     2    1
    2     1     3    1
    3     1     4    2
    4     4     5    1
    5     4     6    1
    6     6     7    1
    7     6     8    1
    8     6     9    1
    9     9    10    1
   10     9    11    1
   11     9    12    1
   12    12    13    1
   13    12    14    1
   14    12    15    1
   15    15    16    1
   16    15    17    1
   17    15    18    1
   18    18    19    1
   19    18    20    2
@<TRIPOS>SUBSTRUCTURE
       1 MOL1            1 RESIDUE      1      MOL     
@<SCITEGIC>MOL_PROPERTY
VConf Rank
SciTegic.value.IntegerValue
229

@<SCITEGIC>MOL_PROPERTY
Conf_Id
SciTegic.value.IntegerValue
84

@<SCITEGIC>MOL_PROPERTY
Delta U+W
SciTegic.value.DoubleValue
0.942

@<SCITEGIC>MOL_PROPERTY
U+W
SciTegic.value.DoubleValue
-50.803

@<SCITEGIC>MOL_PROPERTY
Grad RMS
SciTegic.value.DoubleValue
0.000000

@<SCITEGIC>MOL_PROPERTY
U
SciTegic.value.DoubleValue
10.196

@<SCITEGIC>MOL_PROPERTY
W
SciTegic.value.DoubleValue
-60.999

@<SCITEGIC>MOL_PROPERTY
W(PB)
SciTegic.value.DoubleValue
-63.182

@<SCITEGIC>MOL_PROPERTY
W(SA)
SciTegic.value.DoubleValue
2.182

@<SCITEGIC>MOL_PROPERTY
Valence
SciTegic.value.DoubleValue
9.837

@<SCITEGIC>MOL_PROPERTY
Coulomb
SciTegic.value.DoubleValue
0.032

@<SCITEGIC>MOL_PROPERTY
VdW
SciTegic.value.DoubleValue
0.328

@<SCITEGIC>MOL_PROPERTY
VdW6
SciTegic.value.DoubleValue
-7.642

@<SCITEGIC>MOL_PROPERTY
VdW12
SciTegic.value.DoubleValue
7.969

@<SCITEGIC>MOL_PROPERTY
Bond
SciTegic.value.DoubleValue
0.151

@<SCITEGIC>MOL_PROPERTY
Angle
SciTegic.value.DoubleValue
2.748

@<SCITEGIC>MOL_PROPERTY
Pdih
SciTegic.value.DoubleValue
6.937

@<SCITEGIC>MOL_PROPERTY
Idih
SciTegic.value.DoubleValue
0.001

@<SCITEGIC>MOL_PROPERTY
Tether
SciTegic.value.DoubleValue
0.000

@<TRIPOS>MOLECULE
guest-s22_confgen4.mol2 : confsearch ligand conformer 230
          20          19           1
SMALL
USER_CHARGES
 
@<TRIPOS>ATOM
       1    C1      18.253677   16.396021   23.518304 C.2        1 MOL1        -0.2535
       2    H1      17.365964   15.771729   23.604838 H          1 MOL1         0.0845
       3    H2      19.204409   15.893958   23.346185 H          1 MOL1         0.0845
       4    C2      18.174730   17.725529   23.617495 C.2        1 MOL1        -0.1324
       5    H3      17.213001   18.208514   23.789071 H          1 MOL1         0.0833
       6    C3      19.362395   18.655763   23.508949 C.3        1 MOL1        -0.1813
       7    H4      20.299049   18.088465   23.596365 H          1 MOL1         0.0753
       8    H5      19.346566   19.370298   24.342779 H          1 MOL1         0.0753
       9    C4      19.349512   19.422187   22.169737 C.3        1 MOL1        -0.1855
      10    H6      19.359001   18.701326   21.340310 H          1 MOL1         0.0755
      11    H7      18.414793   19.993062   22.083424 H          1 MOL1         0.0755
      12    C5      20.555602   20.380303   22.044463 C.3        1 MOL1        -0.1855
      13    H8      21.492585   19.810548   22.116256 H          1 MOL1         0.0755
      14    H9      20.548261   21.084196   22.887702 H          1 MOL1         0.0755
      15    C6      20.543681   21.183913   20.718208 C.3        1 MOL1        -0.1958
      16    H10     19.602073   21.737422   20.618936 H          1 MOL1         0.0753
      17    H11     21.349072   21.927619   20.733089 H          1 MOL1         0.0753
      18    C7      20.738150   20.325813   19.471315 C.2        1 MOL1         0.6174
      19    O1      19.770959   20.100335   18.770833 O.co2      1 MOL1        -0.6695
      20    O2      21.856094   19.916411   19.226983 O.co2      1 MOL1        -0.6695
@<TRIPOS>BOND
    1     1     2    1
    2     1     3    1
    3     1     4    2
    4     4     5    1
    5     4     6    1
    6     6     7    1
    7     6     8    1
    8     6     9    1
    9     9    10    1
   10     9    11    1
   11     9    12    1
   12    12    13    1
   13    12    14    1
   14    12    15    1
   15    15    16    1
   16    15    17    1
   17    15    18    1
   18    18    19    1
   19    18    20    2
@<TRIPOS>SUBSTRUCTURE
       1 MOL1            1 RESIDUE      1      MOL     
@<SCITEGIC>MOL_PROPERTY
VConf Rank
SciTegic.value.IntegerValue
230

@<SCITEGIC>MOL_PROPERTY
Conf_Id
SciTegic.value.IntegerValue
81

@<SCITEGIC>MOL_PROPERTY
Delta U+W
SciTegic.value.DoubleValue
-0.051

@<SCITEGIC>MOL_PROPERTY
U+W
SciTegic.value.DoubleValue
-51.796

@<SCITEGIC>MOL_PROPERTY
Grad RMS
SciTegic.value.DoubleValue
0.000000

@<SCITEGIC>MOL_PROPERTY
U
SciTegic.value.DoubleValue
9.412

@<SCITEGIC>MOL_PROPERTY
W
SciTegic.value.DoubleValue
-61.209

@<SCITEGIC>MOL_PROPERTY
W(PB)
SciTegic.value.DoubleValue
-63.452

@<SCITEGIC>MOL_PROPERTY
W(SA)
SciTegic.value.DoubleValue
2.243

@<SCITEGIC>MOL_PROPERTY
Valence
SciTegic.value.DoubleValue
9.329

@<SCITEGIC>MOL_PROPERTY
Coulomb
SciTegic.value.DoubleValue
-0.323

@<SCITEGIC>MOL_PROPERTY
VdW
SciTegic.value.DoubleValue
0.406

@<SCITEGIC>MOL_PROPERTY
VdW6
SciTegic.value.DoubleValue
-6.640

@<SCITEGIC>MOL_PROPERTY
VdW12
SciTegic.value.DoubleValue
7.046

@<SCITEGIC>MOL_PROPERTY
Bond
SciTegic.value.DoubleValue
0.105

@<SCITEGIC>MOL_PROPERTY
Angle
SciTegic.value.DoubleValue
2.401

@<SCITEGIC>MOL_PROPERTY
Pdih
SciTegic.value.DoubleValue
6.823

@<SCITEGIC>MOL_PROPERTY
Idih
SciTegic.value.DoubleValue
0.000

@<SCITEGIC>MOL_PROPERTY
Tether
SciTegic.value.DoubleValue
0.000

@<TRIPOS>MOLECULE
guest-s22_confgen4.mol2 : confsearch ligand conformer 231
          20          19           1
SMALL
USER_CHARGES
 
@<TRIPOS>ATOM
       1    C1      21.296707   21.540530   20.710329 C.2        1 MOL1        -0.2535
       2    H1      20.926953   22.461072   21.159043 H          1 MOL1         0.0845
       3    H2      22.240816   21.590040   20.170560 H          1 MOL1         0.0845
       4    C2      20.622750   20.392557   20.818115 C.2        1 MOL1        -0.1324
       5    H3      21.009169   19.482851   20.359487 H          1 MOL1         0.0833
       6    C3      19.303831   20.248554   21.546979 C.3        1 MOL1        -0.1813
       7    H4      18.603937   19.654302   20.945361 H          1 MOL1         0.0753
       8    H5      18.835372   21.235112   21.663016 H          1 MOL1         0.0753
       9    C4      19.469441   19.615786   22.949436 C.3        1 MOL1        -0.1855
      10    H6      20.103319   20.272365   23.560941 H          1 MOL1         0.0755
      11    H7      18.489879   19.589983   23.446189 H          1 MOL1         0.0755
      12    C5      20.080231   18.190646   22.949595 C.3        1 MOL1        -0.1855
      13    H8      20.177939   17.849924   23.989568 H          1 MOL1         0.0755
      14    H9      21.100656   18.229312   22.545944 H          1 MOL1         0.0755
      15    C6      19.257698   17.138747   22.156412 C.3        1 MOL1        -0.1958
      16    H10     19.204560   17.409754   21.095859 H          1 MOL1         0.0753
      17    H11     19.766873   16.169147   22.203568 H          1 MOL1         0.0753
      18    C7      17.839315   16.933201   22.680324 C.2        1 MOL1         0.6174
      19    O1      16.912725   17.352829   22.015171 O.co2      1 MOL1        -0.6695
      20    O2      17.698058   16.342328   23.733119 O.co2      1 MOL1        -0.6695
@<TRIPOS>BOND
    1     1     2    1
    2     1     3    1
    3     1     4    2
    4     4     5    1
    5     4     6    1
    6     6     7    1
    7     6     8    1
    8     6     9    1
    9     9    10    1
   10     9    11    1
   11     9    12    1
   12    12    13    1
   13    12    14    1
   14    12    15    1
   15    15    16    1
   16    15    17    1
   17    15    18    1
   18    18    19    1
   19    18    20    2
@<TRIPOS>SUBSTRUCTURE
       1 MOL1            1 RESIDUE      1      MOL     
@<SCITEGIC>MOL_PROPERTY
VConf Rank
SciTegic.value.IntegerValue
231

@<SCITEGIC>MOL_PROPERTY
Conf_Id
SciTegic.value.IntegerValue
86

@<SCITEGIC>MOL_PROPERTY
Delta U+W
SciTegic.value.DoubleValue
1.248

@<SCITEGIC>MOL_PROPERTY
U+W
SciTegic.value.DoubleValue
-50.498

@<SCITEGIC>MOL_PROPERTY
Grad RMS
SciTegic.value.DoubleValue
0.000000

@<SCITEGIC>MOL_PROPERTY
U
SciTegic.value.DoubleValue
10.404

@<SCITEGIC>MOL_PROPERTY
W
SciTegic.value.DoubleValue
-60.901

@<SCITEGIC>MOL_PROPERTY
W(PB)
SciTegic.value.DoubleValue
-63.061

@<SCITEGIC>MOL_PROPERTY
W(SA)
SciTegic.value.DoubleValue
2.159

@<SCITEGIC>MOL_PROPERTY
Valence
SciTegic.value.DoubleValue
10.021

@<SCITEGIC>MOL_PROPERTY
Coulomb
SciTegic.value.DoubleValue
0.094

@<SCITEGIC>MOL_PROPERTY
VdW
SciTegic.value.DoubleValue
0.289

@<SCITEGIC>MOL_PROPERTY
VdW6
SciTegic.value.DoubleValue
-8.409

@<SCITEGIC>MOL_PROPERTY
VdW12
SciTegic.value.DoubleValue
8.698

@<SCITEGIC>MOL_PROPERTY
Bond
SciTegic.value.DoubleValue
0.179

@<SCITEGIC>MOL_PROPERTY
Angle
SciTegic.value.DoubleValue
2.939

@<SCITEGIC>MOL_PROPERTY
Pdih
SciTegic.value.DoubleValue
6.902

@<SCITEGIC>MOL_PROPERTY
Idih
SciTegic.value.DoubleValue
0.001

@<SCITEGIC>MOL_PROPERTY
Tether
SciTegic.value.DoubleValue
0.000

@<TRIPOS>MOLECULE
guest-s22_confgen4.mol2 : confsearch ligand conformer 232
          20          19           1
SMALL
USER_CHARGES
 
@<TRIPOS>ATOM
       1    C1      22.782375   19.292874   21.080293 C.2        1 MOL1        -0.2535
       2    H1      23.751381   18.862980   21.327926 H          1 MOL1         0.0845
       3    H2      22.433315   19.184623   20.054690 H          1 MOL1         0.0845
       4    C2      22.051477   19.924685   22.002588 C.2        1 MOL1        -0.1324
       5    H3      22.418148   20.020205   23.024262 H          1 MOL1         0.0833
       6    C3      20.697444   20.546334   21.733885 C.3        1 MOL1        -0.1813
       7    H4      20.496670   20.584961   20.654599 H          1 MOL1         0.0753
       8    H5      20.704674   21.586810   22.084853 H          1 MOL1         0.0753
       9    C4      19.552935   19.789090   22.444337 C.3        1 MOL1        -0.1855
      10    H6      19.754909   19.746592   23.523375 H          1 MOL1         0.0755
      11    H7      18.622933   20.361156   22.322493 H          1 MOL1         0.0755
      12    C5      19.351098   18.357991   21.892233 C.3        1 MOL1        -0.1855
      13    H8      20.277940   17.782837   22.019629 H          1 MOL1         0.0755
      14    H9      19.152898   18.400662   20.812304 H          1 MOL1         0.0755
      15    C6      18.194508   17.603795   22.598293 C.3        1 MOL1        -0.1958
      16    H10     18.175095   16.561890   22.257708 H          1 MOL1         0.0753
      17    H11     18.363222   17.580700   23.681704 H          1 MOL1         0.0753
      18    C7      16.813623   18.196442   22.332491 C.2        1 MOL1         0.6174
      19    O1      16.296607   17.982094   21.253660 O.co2      1 MOL1        -0.6695
      20    O2      16.286454   18.846435   23.213791 O.co2      1 MOL1        -0.6695
@<TRIPOS>BOND
    1     1     2    1
    2     1     3    1
    3     1     4    2
    4     4     5    1
    5     4     6    1
    6     6     7    1
    7     6     8    1
    8     6     9    1
    9     9    10    1
   10     9    11    1
   11     9    12    1
   12    12    13    1
   13    12    14    1
   14    12    15    1
   15    15    16    1
   16    15    17    1
   17    15    18    1
   18    18    19    1
   19    18    20    2
@<TRIPOS>SUBSTRUCTURE
       1 MOL1            1 RESIDUE      1      MOL     
@<SCITEGIC>MOL_PROPERTY
VConf Rank
SciTegic.value.IntegerValue
232

@<SCITEGIC>MOL_PROPERTY
Conf_Id
SciTegic.value.IntegerValue
28

@<SCITEGIC>MOL_PROPERTY
Delta U+W
SciTegic.value.DoubleValue
0.446

@<SCITEGIC>MOL_PROPERTY
U+W
SciTegic.value.DoubleValue
-51.299

@<SCITEGIC>MOL_PROPERTY
Grad RMS
SciTegic.value.DoubleValue
0.000000

@<SCITEGIC>MOL_PROPERTY
U
SciTegic.value.DoubleValue
9.295

@<SCITEGIC>MOL_PROPERTY
W
SciTegic.value.DoubleValue
-60.594

@<SCITEGIC>MOL_PROPERTY
W(PB)
SciTegic.value.DoubleValue
-62.806

@<SCITEGIC>MOL_PROPERTY
W(SA)
SciTegic.value.DoubleValue
2.212

@<SCITEGIC>MOL_PROPERTY
Valence
SciTegic.value.DoubleValue
9.495

@<SCITEGIC>MOL_PROPERTY
Coulomb
SciTegic.value.DoubleValue
-0.610

@<SCITEGIC>MOL_PROPERTY
VdW
SciTegic.value.DoubleValue
0.409

@<SCITEGIC>MOL_PROPERTY
VdW6
SciTegic.value.DoubleValue
-7.332

@<SCITEGIC>MOL_PROPERTY
VdW12
SciTegic.value.DoubleValue
7.741

@<SCITEGIC>MOL_PROPERTY
Bond
SciTegic.value.DoubleValue
0.126

@<SCITEGIC>MOL_PROPERTY
Angle
SciTegic.value.DoubleValue
2.497

@<SCITEGIC>MOL_PROPERTY
Pdih
SciTegic.value.DoubleValue
6.872

@<SCITEGIC>MOL_PROPERTY
Idih
SciTegic.value.DoubleValue
0.000

@<SCITEGIC>MOL_PROPERTY
Tether
SciTegic.value.DoubleValue
0.000

@<TRIPOS>MOLECULE
guest-s22_confgen4.mol2 : confsearch ligand conformer 233
          20          19           1
SMALL
USER_CHARGES
 
@<TRIPOS>ATOM
       1    C1      17.899595   17.739374   20.182198 C.2        1 MOL1        -0.2535
       2    H1      18.351230   18.562988   19.633398 H          1 MOL1         0.0845
       3    H2      17.312327   17.027610   19.604574 H          1 MOL1         0.0845
       4    C2      18.049940   17.588506   21.503034 C.2        1 MOL1        -0.1324
       5    H3      17.574816   16.741214   21.996890 H          1 MOL1         0.0833
       6    C3      18.833532   18.494560   22.438184 C.3        1 MOL1        -0.1813
       7    H4      19.644341   17.908277   22.889316 H          1 MOL1         0.0753
       8    H5      18.179866   18.790997   23.269208 H          1 MOL1         0.0753
       9    C4      19.416618   19.768054   21.777258 C.3        1 MOL1        -0.1855
      10    H6      20.140986   19.482885   21.001924 H          1 MOL1         0.0755
      11    H7      18.607573   20.309286   21.268132 H          1 MOL1         0.0755
      12    C5      20.086422   20.735235   22.784722 C.3        1 MOL1        -0.1855
      13    H8      19.343491   21.055426   23.527635 H          1 MOL1         0.0755
      14    H9      20.396327   21.643402   22.249371 H          1 MOL1         0.0755
      15    C6      21.320958   20.146060   23.520556 C.3        1 MOL1        -0.1958
      16    H10     21.718896   20.893746   24.216450 H          1 MOL1         0.0753
      17    H11     21.033495   19.280254   24.127716 H          1 MOL1         0.0753
      18    C7      22.462709   19.736733   22.594401 C.2        1 MOL1         0.6174
      19    O1      23.096390   20.615694   22.043648 O.co2      1 MOL1        -0.6695
      20    O2      22.702192   18.552442   22.464173 O.co2      1 MOL1        -0.6695
@<TRIPOS>BOND
    1     1     2    1
    2     1     3    1
    3     1     4    2
    4     4     5    1
    5     4     6    1
    6     6     7    1
    7     6     8    1
    8     6     9    1
    9     9    10    1
   10     9    11    1
   11     9    12    1
   12    12    13    1
   13    12    14    1
   14    12    15    1
   15    15    16    1
   16    15    17    1
   17    15    18    1
   18    18    19    1
   19    18    20    2
@<TRIPOS>SUBSTRUCTURE
       1 MOL1            1 RESIDUE      1      MOL     
@<SCITEGIC>MOL_PROPERTY
VConf Rank
SciTegic.value.IntegerValue
233

@<SCITEGIC>MOL_PROPERTY
Conf_Id
SciTegic.value.IntegerValue
53

@<SCITEGIC>MOL_PROPERTY
Delta U+W
SciTegic.value.DoubleValue
0.549

@<SCITEGIC>MOL_PROPERTY
U+W
SciTegic.value.DoubleValue
-51.197

@<SCITEGIC>MOL_PROPERTY
Grad RMS
SciTegic.value.DoubleValue
0.000000

@<SCITEGIC>MOL_PROPERTY
U
SciTegic.value.DoubleValue
10.870

@<SCITEGIC>MOL_PROPERTY
W
SciTegic.value.DoubleValue
-62.067

@<SCITEGIC>MOL_PROPERTY
W(PB)
SciTegic.value.DoubleValue
-64.228

@<SCITEGIC>MOL_PROPERTY
W(SA)
SciTegic.value.DoubleValue
2.161

@<SCITEGIC>MOL_PROPERTY
Valence
SciTegic.value.DoubleValue
8.803

@<SCITEGIC>MOL_PROPERTY
Coulomb
SciTegic.value.DoubleValue
1.020

@<SCITEGIC>MOL_PROPERTY
VdW
SciTegic.value.DoubleValue
1.048

@<SCITEGIC>MOL_PROPERTY
VdW6
SciTegic.value.DoubleValue
-8.312

@<SCITEGIC>MOL_PROPERTY
VdW12
SciTegic.value.DoubleValue
9.360

@<SCITEGIC>MOL_PROPERTY
Bond
SciTegic.value.DoubleValue
0.212

@<SCITEGIC>MOL_PROPERTY
Angle
SciTegic.value.DoubleValue
3.379

@<SCITEGIC>MOL_PROPERTY
Pdih
SciTegic.value.DoubleValue
5.211

@<SCITEGIC>MOL_PROPERTY
Idih
SciTegic.value.DoubleValue
0.001

@<SCITEGIC>MOL_PROPERTY
Tether
SciTegic.value.DoubleValue
0.000

@<TRIPOS>MOLECULE
guest-s22_confgen4.mol2 : confsearch ligand conformer 234
          20          19           1
SMALL
USER_CHARGES
 
@<TRIPOS>ATOM
       1    C1      20.908564   17.419084   24.128681 C.2        1 MOL1        -0.2535
       2    H1      21.365923   18.393543   24.285366 H          1 MOL1         0.0845
       3    H2      21.484529   16.547800   24.435361 H          1 MOL1         0.0845
       4    C2      19.691851   17.281816   23.590700 C.2        1 MOL1        -0.1324
       5    H3      19.278431   16.282395   23.458244 H          1 MOL1         0.0833
       6    C3      18.784272   18.404129   23.114671 C.3        1 MOL1        -0.1813
       7    H4      18.043941   18.614049   23.897771 H          1 MOL1         0.0753
       8    H5      18.193869   18.048053   22.260731 H          1 MOL1         0.0753
       9    C4      19.492799   19.724939   22.715643 C.3        1 MOL1        -0.1855
      10    H6      18.726168   20.470441   22.463963 H          1 MOL1         0.0755
      11    H7      20.024230   20.131468   23.586067 H          1 MOL1         0.0755
      12    C5      20.479619   19.599255   21.525162 C.3        1 MOL1        -0.1855
      13    H8      21.292912   18.911746   21.790566 H          1 MOL1         0.0755
      14    H9      20.950979   20.576886   21.354646 H          1 MOL1         0.0755
      15    C6      19.830062   19.122422   20.197372 C.3        1 MOL1        -0.1958
      16    H10     20.599819   19.059369   19.419514 H          1 MOL1         0.0753
      17    H11     19.420296   18.112216   20.309525 H          1 MOL1         0.0753
      18    C7      18.730387   20.042220   19.674771 C.2        1 MOL1         0.6174
      19    O1      17.579038   19.658129   19.738222 O.co2      1 MOL1        -0.6695
      20    O2      19.056879   21.112827   19.200732 O.co2      1 MOL1        -0.6695
@<TRIPOS>BOND
    1     1     2    1
    2     1     3    1
    3     1     4    2
    4     4     5    1
    5     4     6    1
    6     6     7    1
    7     6     8    1
    8     6     9    1
    9     9    10    1
   10     9    11    1
   11     9    12    1
   12    12    13    1
   13    12    14    1
   14    12    15    1
   15    15    16    1
   16    15    17    1
   17    15    18    1
   18    18    19    1
   19    18    20    2
@<TRIPOS>SUBSTRUCTURE
       1 MOL1            1 RESIDUE      1      MOL     
@<SCITEGIC>MOL_PROPERTY
VConf Rank
SciTegic.value.IntegerValue
234

@<SCITEGIC>MOL_PROPERTY
Conf_Id
SciTegic.value.IntegerValue
66

@<SCITEGIC>MOL_PROPERTY
Delta U+W
SciTegic.value.DoubleValue
1.737

@<SCITEGIC>MOL_PROPERTY
U+W
SciTegic.value.DoubleValue
-50.008

@<SCITEGIC>MOL_PROPERTY
Grad RMS
SciTegic.value.DoubleValue
0.000000

@<SCITEGIC>MOL_PROPERTY
U
SciTegic.value.DoubleValue
11.091

@<SCITEGIC>MOL_PROPERTY
W
SciTegic.value.DoubleValue
-61.099

@<SCITEGIC>MOL_PROPERTY
W(PB)
SciTegic.value.DoubleValue
-63.213

@<SCITEGIC>MOL_PROPERTY
W(SA)
SciTegic.value.DoubleValue
2.114

@<SCITEGIC>MOL_PROPERTY
Valence
SciTegic.value.DoubleValue
9.664

@<SCITEGIC>MOL_PROPERTY
Coulomb
SciTegic.value.DoubleValue
0.658

@<SCITEGIC>MOL_PROPERTY
VdW
SciTegic.value.DoubleValue
0.769

@<SCITEGIC>MOL_PROPERTY
VdW6
SciTegic.value.DoubleValue
-9.171

@<SCITEGIC>MOL_PROPERTY
VdW12
SciTegic.value.DoubleValue
9.940

@<SCITEGIC>MOL_PROPERTY
Bond
SciTegic.value.DoubleValue
0.244

@<SCITEGIC>MOL_PROPERTY
Angle
SciTegic.value.DoubleValue
3.658

@<SCITEGIC>MOL_PROPERTY
Pdih
SciTegic.value.DoubleValue
5.762

@<SCITEGIC>MOL_PROPERTY
Idih
SciTegic.value.DoubleValue
0.001

@<SCITEGIC>MOL_PROPERTY
Tether
SciTegic.value.DoubleValue
0.000

@<TRIPOS>MOLECULE
guest-s22_confgen4.mol2 : confsearch ligand conformer 235
          20          19           1
SMALL
USER_CHARGES
 
@<TRIPOS>ATOM
       1    C1      20.638559   17.906144   19.759791 C.2        1 MOL1        -0.2535
       2    H1      20.948786   18.942168   19.643184 H          1 MOL1         0.0845
       3    H2      21.329454   17.141548   19.409087 H          1 MOL1         0.0845
       4    C2      19.462865   17.570407   20.301921 C.2        1 MOL1        -0.1324
       5    H3      19.201474   16.516438   20.392278 H          1 MOL1         0.0833
       6    C3      18.407845   18.525069   20.836852 C.3        1 MOL1        -0.1813
       7    H4      17.912928   18.060551   21.698786 H          1 MOL1         0.0753
       8    H5      17.616763   18.630678   20.082784 H          1 MOL1         0.0753
       9    C4      18.912396   19.934041   21.244950 C.3        1 MOL1        -0.1855
      10    H6      19.357598   20.428874   20.371778 H          1 MOL1         0.0755
      11    H7      18.047052   20.550025   21.524900 H          1 MOL1         0.0755
      12    C5      19.928492   19.944469   22.415480 C.3        1 MOL1        -0.1855
      13    H8      20.281260   20.974485   22.563139 H          1 MOL1         0.0755
      14    H9      20.814645   19.350975   22.154526 H          1 MOL1         0.0755
      15    C6      19.339106   19.424953   23.752508 C.3        1 MOL1        -0.1958
      16    H10     18.423643   19.974214   24.002288 H          1 MOL1         0.0753
      17    H11     19.072186   18.365396   23.669233 H          1 MOL1         0.0753
      18    C7      20.309010   19.568989   24.919891 C.2        1 MOL1         0.6174
      19    O1      21.049709   18.638733   25.170371 O.co2      1 MOL1        -0.6695
      20    O2      20.308328   20.614222   25.539909 O.co2      1 MOL1        -0.6695
@<TRIPOS>BOND
    1     1     2    1
    2     1     3    1
    3     1     4    2
    4     4     5    1
    5     4     6    1
    6     6     7    1
    7     6     8    1
    8     6     9    1
    9     9    10    1
   10     9    11    1
   11     9    12    1
   12    12    13    1
   13    12    14    1
   14    12    15    1
   15    15    16    1
   16    15    17    1
   17    15    18    1
   18    18    19    1
   19    18    20    2
@<TRIPOS>SUBSTRUCTURE
       1 MOL1            1 RESIDUE      1      MOL     
@<SCITEGIC>MOL_PROPERTY
VConf Rank
SciTegic.value.IntegerValue
235

@<SCITEGIC>MOL_PROPERTY
Conf_Id
SciTegic.value.IntegerValue
64

@<SCITEGIC>MOL_PROPERTY
Delta U+W
SciTegic.value.DoubleValue
0.366

@<SCITEGIC>MOL_PROPERTY
U+W
SciTegic.value.DoubleValue
-51.379

@<SCITEGIC>MOL_PROPERTY
Grad RMS
SciTegic.value.DoubleValue
0.000000

@<SCITEGIC>MOL_PROPERTY
U
SciTegic.value.DoubleValue
10.000

@<SCITEGIC>MOL_PROPERTY
W
SciTegic.value.DoubleValue
-61.379

@<SCITEGIC>MOL_PROPERTY
W(PB)
SciTegic.value.DoubleValue
-63.541

@<SCITEGIC>MOL_PROPERTY
W(SA)
SciTegic.value.DoubleValue
2.162

@<SCITEGIC>MOL_PROPERTY
Valence
SciTegic.value.DoubleValue
9.398

@<SCITEGIC>MOL_PROPERTY
Coulomb
SciTegic.value.DoubleValue
-0.504

@<SCITEGIC>MOL_PROPERTY
VdW
SciTegic.value.DoubleValue
1.105

@<SCITEGIC>MOL_PROPERTY
VdW6
SciTegic.value.DoubleValue
-7.975

@<SCITEGIC>MOL_PROPERTY
VdW12
SciTegic.value.DoubleValue
9.080

@<SCITEGIC>MOL_PROPERTY
Bond
SciTegic.value.DoubleValue
0.216

@<SCITEGIC>MOL_PROPERTY
Angle
SciTegic.value.DoubleValue
3.417

@<SCITEGIC>MOL_PROPERTY
Pdih
SciTegic.value.DoubleValue
5.765

@<SCITEGIC>MOL_PROPERTY
Idih
SciTegic.value.DoubleValue
0.001

@<SCITEGIC>MOL_PROPERTY
Tether
SciTegic.value.DoubleValue
0.000

@<TRIPOS>MOLECULE
guest-s22_confgen4.mol2 : confsearch ligand conformer 236
          20          19           1
SMALL
USER_CHARGES
 
@<TRIPOS>ATOM
       1    C1      17.071974   19.794127   22.547616 C.2        1 MOL1        -0.2535
       2    H1      16.931895   18.773819   22.900840 H          1 MOL1         0.0845
       3    H2      16.271931   20.233326   21.954203 H          1 MOL1         0.0845
       4    C2      18.182488   20.482106   22.825929 C.2        1 MOL1        -0.1324
       5    H3      18.304008   21.501508   22.460631 H          1 MOL1         0.0833
       6    C3      19.335797   19.939133   23.642653 C.3        1 MOL1        -0.1813
       7    H4      19.051455   19.000065   24.136592 H          1 MOL1         0.0753
       8    H5      19.574019   20.650786   24.444303 H          1 MOL1         0.0753
       9    C4      20.602215   19.709321   22.787484 C.3        1 MOL1        -0.1855
      10    H6      20.886118   20.648439   22.292974 H          1 MOL1         0.0755
      11    H7      21.434555   19.439438   23.451755 H          1 MOL1         0.0755
      12    C5      20.414415   18.596904   21.730677 C.3        1 MOL1        -0.1855
      13    H8      19.601396   18.867672   21.042990 H          1 MOL1         0.0755
      14    H9      20.113941   17.663137   22.225737 H          1 MOL1         0.0755
      15    C6      21.708293   18.351545   20.916000 C.3        1 MOL1        -0.1958
      16    H10     22.014137   19.272580   20.405370 H          1 MOL1         0.0753
      17    H11     22.528289   18.063484   21.584666 H          1 MOL1         0.0753
      18    C7      21.548073   17.258029   19.865930 C.2        1 MOL1         0.6174
      19    O1      21.770054   16.109605   20.195469 O.co2      1 MOL1        -0.6695
      20    O2      21.192074   17.581588   18.750015 O.co2      1 MOL1        -0.6695
@<TRIPOS>BOND
    1     1     2    1
    2     1     3    1
    3     1     4    2
    4     4     5    1
    5     4     6    1
    6     6     7    1
    7     6     8    1
    8     6     9    1
    9     9    10    1
   10     9    11    1
   11     9    12    1
   12    12    13    1
   13    12    14    1
   14    12    15    1
   15    15    16    1
   16    15    17    1
   17    15    18    1
   18    18    19    1
   19    18    20    2
@<TRIPOS>SUBSTRUCTURE
       1 MOL1            1 RESIDUE      1      MOL     
@<SCITEGIC>MOL_PROPERTY
VConf Rank
SciTegic.value.IntegerValue
236

@<SCITEGIC>MOL_PROPERTY
Conf_Id
SciTegic.value.IntegerValue
42

@<SCITEGIC>MOL_PROPERTY
Delta U+W
SciTegic.value.DoubleValue
-0.601

@<SCITEGIC>MOL_PROPERTY
U+W
SciTegic.value.DoubleValue
-52.347

@<SCITEGIC>MOL_PROPERTY
Grad RMS
SciTegic.value.DoubleValue
0.000000

@<SCITEGIC>MOL_PROPERTY
U
SciTegic.value.DoubleValue
8.428

@<SCITEGIC>MOL_PROPERTY
W
SciTegic.value.DoubleValue
-60.774

@<SCITEGIC>MOL_PROPERTY
W(PB)
SciTegic.value.DoubleValue
-62.982

@<SCITEGIC>MOL_PROPERTY
W(SA)
SciTegic.value.DoubleValue
2.208

@<SCITEGIC>MOL_PROPERTY
Valence
SciTegic.value.DoubleValue
9.231

@<SCITEGIC>MOL_PROPERTY
Coulomb
SciTegic.value.DoubleValue
-1.304

@<SCITEGIC>MOL_PROPERTY
VdW
SciTegic.value.DoubleValue
0.501

@<SCITEGIC>MOL_PROPERTY
VdW6
SciTegic.value.DoubleValue
-6.515

@<SCITEGIC>MOL_PROPERTY
VdW12
SciTegic.value.DoubleValue
7.016

@<SCITEGIC>MOL_PROPERTY
Bond
SciTegic.value.DoubleValue
0.103

@<SCITEGIC>MOL_PROPERTY
Angle
SciTegic.value.DoubleValue
2.328

@<SCITEGIC>MOL_PROPERTY
Pdih
SciTegic.value.DoubleValue
6.799

@<SCITEGIC>MOL_PROPERTY
Idih
SciTegic.value.DoubleValue
0.000

@<SCITEGIC>MOL_PROPERTY
Tether
SciTegic.value.DoubleValue
0.000

@<TRIPOS>MOLECULE
guest-s22_confgen4.mol2 : confsearch ligand conformer 237
          20          19           1
SMALL
USER_CHARGES
 
@<TRIPOS>ATOM
       1    C1      21.195792   18.323221   24.509735 C.2        1 MOL1        -0.2535
       2    H1      21.554334   17.409426   24.038756 H          1 MOL1         0.0845
       3    H2      20.927820   18.272041   25.563617 H          1 MOL1         0.0845
       4    C2      21.083784   19.463746   23.823674 C.2        1 MOL1        -0.1324
       5    H3      20.719975   20.366704   24.313282 H          1 MOL1         0.0833
       6    C3      21.434929   19.611640   22.358502 C.3        1 MOL1        -0.1813
       7    H4      21.970687   18.723206   21.997591 H          1 MOL1         0.0753
       8    H5      22.123396   20.458604   22.238192 H          1 MOL1         0.0753
       9    C4      20.187585   19.854970   21.479363 C.3        1 MOL1        -0.1855
      10    H6      19.657016   20.747880   21.837895 H          1 MOL1         0.0755
      11    H7      20.513154   20.075417   20.453620 H          1 MOL1         0.0755
      12    C5      19.226588   18.642817   21.458395 C.3        1 MOL1        -0.1855
      13    H8      18.859823   18.436947   22.473508 H          1 MOL1         0.0755
      14    H9      19.778036   17.749572   21.135518 H          1 MOL1         0.0755
      15    C6      18.016587   18.857912   20.512639 C.3        1 MOL1        -0.1958
      16    H10     18.364185   19.088358   19.498343 H          1 MOL1         0.0753
      17    H11     17.434690   17.931127   20.445886 H          1 MOL1         0.0753
      18    C7      17.066033   19.963051   20.964220 C.2        1 MOL1         0.6174
      19    O1      17.116945   21.035052   20.393794 O.co2      1 MOL1        -0.6695
      20    O2      16.286611   19.715861   21.863383 O.co2      1 MOL1        -0.6695
@<TRIPOS>BOND
    1     1     2    1
    2     1     3    1
    3     1     4    2
    4     4     5    1
    5     4     6    1
    6     6     7    1
    7     6     8    1
    8     6     9    1
    9     9    10    1
   10     9    11    1
   11     9    12    1
   12    12    13    1
   13    12    14    1
   14    12    15    1
   15    15    16    1
   16    15    17    1
   17    15    18    1
   18    18    19    1
   19    18    20    2
@<TRIPOS>SUBSTRUCTURE
       1 MOL1            1 RESIDUE      1      MOL     
@<SCITEGIC>MOL_PROPERTY
VConf Rank
SciTegic.value.IntegerValue
237

@<SCITEGIC>MOL_PROPERTY
Conf_Id
SciTegic.value.IntegerValue
68

@<SCITEGIC>MOL_PROPERTY
Delta U+W
SciTegic.value.DoubleValue
0.492

@<SCITEGIC>MOL_PROPERTY
U+W
SciTegic.value.DoubleValue
-51.253

@<SCITEGIC>MOL_PROPERTY
Grad RMS
SciTegic.value.DoubleValue
0.000000

@<SCITEGIC>MOL_PROPERTY
U
SciTegic.value.DoubleValue
10.179

@<SCITEGIC>MOL_PROPERTY
W
SciTegic.value.DoubleValue
-61.432

@<SCITEGIC>MOL_PROPERTY
W(PB)
SciTegic.value.DoubleValue
-63.627

@<SCITEGIC>MOL_PROPERTY
W(SA)
SciTegic.value.DoubleValue
2.195

@<SCITEGIC>MOL_PROPERTY
Valence
SciTegic.value.DoubleValue
9.483

@<SCITEGIC>MOL_PROPERTY
Coulomb
SciTegic.value.DoubleValue
0.361

@<SCITEGIC>MOL_PROPERTY
VdW
SciTegic.value.DoubleValue
0.335

@<SCITEGIC>MOL_PROPERTY
VdW6
SciTegic.value.DoubleValue
-7.385

@<SCITEGIC>MOL_PROPERTY
VdW12
SciTegic.value.DoubleValue
7.720

@<SCITEGIC>MOL_PROPERTY
Bond
SciTegic.value.DoubleValue
0.125

@<SCITEGIC>MOL_PROPERTY
Angle
SciTegic.value.DoubleValue
2.487

@<SCITEGIC>MOL_PROPERTY
Pdih
SciTegic.value.DoubleValue
6.870

@<SCITEGIC>MOL_PROPERTY
Idih
SciTegic.value.DoubleValue
0.001

@<SCITEGIC>MOL_PROPERTY
Tether
SciTegic.value.DoubleValue
0.000

@<TRIPOS>MOLECULE
guest-s22_confgen4.mol2 : confsearch ligand conformer 238
          20          19           1
SMALL
USER_CHARGES
 
@<TRIPOS>ATOM
       1    C1      18.583534   21.805530   20.512453 C.2        1 MOL1        -0.2535
       2    H1      18.078646   22.373269   21.292356 H          1 MOL1         0.0845
       3    H2      18.183182   21.875772   19.502521 H          1 MOL1         0.0845
       4    C2      19.650554   21.048437   20.780734 C.2        1 MOL1        -0.1324
       5    H3      20.142452   20.490405   19.984566 H          1 MOL1         0.0833
       6    C3      20.265227   20.907270   22.156971 C.3        1 MOL1        -0.1813
       7    H4      19.941932   21.741283   22.794483 H          1 MOL1         0.0753
       8    H5      21.358808   20.979686   22.087440 H          1 MOL1         0.0753
       9    C4      19.872876   19.579142   22.842768 C.3        1 MOL1        -0.1855
      10    H6      20.238080   19.593995   23.878698 H          1 MOL1         0.0755
      11    H7      18.777639   19.508607   22.898250 H          1 MOL1         0.0755
      12    C5      20.446085   18.336885   22.120300 C.3        1 MOL1        -0.1855
      13    H8      21.535367   18.442273   22.027204 H          1 MOL1         0.0755
      14    H9      20.045082   18.276843   21.099316 H          1 MOL1         0.0755
      15    C6      20.130473   17.015537   22.868153 C.3        1 MOL1        -0.1958
      16    H10     20.654394   16.184775   22.380970 H          1 MOL1         0.0753
      17    H11     20.502420   17.064634   23.898691 H          1 MOL1         0.0753
      18    C7      18.646257   16.662336   22.902676 C.2        1 MOL1         0.6174
      19    O1      18.146803   16.190581   21.900131 O.co2      1 MOL1        -0.6695
      20    O2      18.033662   16.849531   23.935541 O.co2      1 MOL1        -0.6695
@<TRIPOS>BOND
    1     1     2    1
    2     1     3    1
    3     1     4    2
    4     4     5    1
    5     4     6    1
    6     6     7    1
    7     6     8    1
    8     6     9    1
    9     9    10    1
   10     9    11    1
   11     9    12    1
   12    12    13    1
   13    12    14    1
   14    12    15    1
   15    15    16    1
   16    15    17    1
   17    15    18    1
   18    18    19    1
   19    18    20    2
@<TRIPOS>SUBSTRUCTURE
       1 MOL1            1 RESIDUE      1      MOL     
@<SCITEGIC>MOL_PROPERTY
VConf Rank
SciTegic.value.IntegerValue
238

@<SCITEGIC>MOL_PROPERTY
Conf_Id
SciTegic.value.IntegerValue
87

@<SCITEGIC>MOL_PROPERTY
Delta U+W
SciTegic.value.DoubleValue
0.339

@<SCITEGIC>MOL_PROPERTY
U+W
SciTegic.value.DoubleValue
-51.407

@<SCITEGIC>MOL_PROPERTY
Grad RMS
SciTegic.value.DoubleValue
0.000000

@<SCITEGIC>MOL_PROPERTY
U
SciTegic.value.DoubleValue
10.461

@<SCITEGIC>MOL_PROPERTY
W
SciTegic.value.DoubleValue
-61.867

@<SCITEGIC>MOL_PROPERTY
W(PB)
SciTegic.value.DoubleValue
-64.045

@<SCITEGIC>MOL_PROPERTY
W(SA)
SciTegic.value.DoubleValue
2.178

@<SCITEGIC>MOL_PROPERTY
Valence
SciTegic.value.DoubleValue
9.555

@<SCITEGIC>MOL_PROPERTY
Coulomb
SciTegic.value.DoubleValue
0.483

@<SCITEGIC>MOL_PROPERTY
VdW
SciTegic.value.DoubleValue
0.423

@<SCITEGIC>MOL_PROPERTY
VdW6
SciTegic.value.DoubleValue
-7.223

@<SCITEGIC>MOL_PROPERTY
VdW12
SciTegic.value.DoubleValue
7.646

@<SCITEGIC>MOL_PROPERTY
Bond
SciTegic.value.DoubleValue
0.126

@<SCITEGIC>MOL_PROPERTY
Angle
SciTegic.value.DoubleValue
2.492

@<SCITEGIC>MOL_PROPERTY
Pdih
SciTegic.value.DoubleValue
6.936

@<SCITEGIC>MOL_PROPERTY
Idih
SciTegic.value.DoubleValue
0.001

@<SCITEGIC>MOL_PROPERTY
Tether
SciTegic.value.DoubleValue
0.000

@<TRIPOS>MOLECULE
guest-s22_confgen4.mol2 : confsearch ligand conformer 239
          20          19           1
SMALL
USER_CHARGES
 
@<TRIPOS>ATOM
       1    C1      18.467447   21.214227   20.714372 C.2        1 MOL1        -0.2535
       2    H1      19.176650   22.000845   20.966718 H          1 MOL1         0.0845
       3    H2      17.996619   21.258125   19.733855 H          1 MOL1         0.0845
       4    C2      18.186048   20.230434   21.572673 C.2        1 MOL1        -0.1324
       5    H3      17.466704   19.457207   21.305367 H          1 MOL1         0.0833
       6    C3      18.792705   20.114394   22.954740 C.3        1 MOL1        -0.1813
       7    H4      18.176594   19.461309   23.587055 H          1 MOL1         0.0753
       8    H5      18.763986   21.103568   23.431308 H          1 MOL1         0.0753
       9    C4      20.259124   19.615662   22.947685 C.3        1 MOL1        -0.1855
      10    H6      20.833204   20.147623   22.176721 H          1 MOL1         0.0755
      11    H7      20.714435   19.894214   23.907807 H          1 MOL1         0.0755
      12    C5      20.426899   18.084954   22.774819 C.3        1 MOL1        -0.1855
      13    H8      19.840441   17.556237   23.538734 H          1 MOL1         0.0755
      14    H9      21.478898   17.830260   22.964339 H          1 MOL1         0.0755
      15    C6      20.042959   17.556730   21.368820 C.3        1 MOL1        -0.1958
      16    H10     18.966122   17.657734   21.200592 H          1 MOL1         0.0753
      17    H11     20.551960   18.139761   20.592086 H          1 MOL1         0.0753
      18    C7      20.402229   16.088467   21.171948 C.2        1 MOL1         0.6174
      19    O1      19.584986   15.249053   21.495039 O.co2      1 MOL1        -0.6695
      20    O2      21.498343   15.821506   20.720119 O.co2      1 MOL1        -0.6695
@<TRIPOS>BOND
    1     1     2    1
    2     1     3    1
    3     1     4    2
    4     4     5    1
    5     4     6    1
    6     6     7    1
    7     6     8    1
    8     6     9    1
    9     9    10    1
   10     9    11    1
   11     9    12    1
   12    12    13    1
   13    12    14    1
   14    12    15    1
   15    15    16    1
   16    15    17    1
   17    15    18    1
   18    18    19    1
   19    18    20    2
@<TRIPOS>SUBSTRUCTURE
       1 MOL1            1 RESIDUE      1      MOL     
@<SCITEGIC>MOL_PROPERTY
VConf Rank
SciTegic.value.IntegerValue
239

@<SCITEGIC>MOL_PROPERTY
Conf_Id
SciTegic.value.IntegerValue
51

@<SCITEGIC>MOL_PROPERTY
Delta U+W
SciTegic.value.DoubleValue
1.709

@<SCITEGIC>MOL_PROPERTY
U+W
SciTegic.value.DoubleValue
-50.036

@<SCITEGIC>MOL_PROPERTY
Grad RMS
SciTegic.value.DoubleValue
0.000000

@<SCITEGIC>MOL_PROPERTY
U
SciTegic.value.DoubleValue
10.643

@<SCITEGIC>MOL_PROPERTY
W
SciTegic.value.DoubleValue
-60.679

@<SCITEGIC>MOL_PROPERTY
W(PB)
SciTegic.value.DoubleValue
-62.882

@<SCITEGIC>MOL_PROPERTY
W(SA)
SciTegic.value.DoubleValue
2.203

@<SCITEGIC>MOL_PROPERTY
Valence
SciTegic.value.DoubleValue
11.231

@<SCITEGIC>MOL_PROPERTY
Coulomb
SciTegic.value.DoubleValue
-1.077

@<SCITEGIC>MOL_PROPERTY
VdW
SciTegic.value.DoubleValue
0.489

@<SCITEGIC>MOL_PROPERTY
VdW6
SciTegic.value.DoubleValue
-7.546

@<SCITEGIC>MOL_PROPERTY
VdW12
SciTegic.value.DoubleValue
8.035

@<SCITEGIC>MOL_PROPERTY
Bond
SciTegic.value.DoubleValue
0.159

@<SCITEGIC>MOL_PROPERTY
Angle
SciTegic.value.DoubleValue
3.005

@<SCITEGIC>MOL_PROPERTY
Pdih
SciTegic.value.DoubleValue
8.065

@<SCITEGIC>MOL_PROPERTY
Idih
SciTegic.value.DoubleValue
0.002

@<SCITEGIC>MOL_PROPERTY
Tether
SciTegic.value.DoubleValue
0.000

@<TRIPOS>MOLECULE
guest-s22_confgen4.mol2 : confsearch ligand conformer 240
          20          19           1
SMALL
USER_CHARGES
 
@<TRIPOS>ATOM
       1    C1      20.683136   20.038162   19.505971 C.2        1 MOL1        -0.2535
       2    H1      21.682812   19.606929   19.495793 H          1 MOL1         0.0845
       3    H2      20.560036   21.030956   19.076754 H          1 MOL1         0.0845
       4    C2      19.646220   19.377181   20.027146 C.2        1 MOL1        -0.1324
       5    H3      18.651666   19.821709   20.019951 H          1 MOL1         0.0833
       6    C3      19.742324   17.991081   20.628054 C.3        1 MOL1        -0.1813
       7    H4      20.341412   17.361594   19.956306 H          1 MOL1         0.0753
       8    H5      18.749354   17.523732   20.667184 H          1 MOL1         0.0753
       9    C4      20.394502   17.968713   22.032809 C.3        1 MOL1        -0.1855
      10    H6      20.738197   16.943864   22.228497 H          1 MOL1         0.0755
      11    H7      21.297066   18.595037   22.038040 H          1 MOL1         0.0755
      12    C5      19.455219   18.379086   23.194897 C.3        1 MOL1        -0.1855
      13    H8      19.962535   18.154492   24.143410 H          1 MOL1         0.0755
      14    H9      18.547593   17.760243   23.177972 H          1 MOL1         0.0755
      15    C6      19.060625   19.878273   23.196035 C.3        1 MOL1        -0.1958
      16    H10     19.955886   20.506635   23.118625 H          1 MOL1         0.0753
      17    H11     18.423678   20.109252   22.336366 H          1 MOL1         0.0753
      18    C7      18.301059   20.287346   24.452753 C.2        1 MOL1         0.6174
      19    O1      17.091329   20.171453   24.455785 O.co2      1 MOL1        -0.6695
      20    O2      18.940596   20.692040   25.403594 O.co2      1 MOL1        -0.6695
@<TRIPOS>BOND
    1     1     2    1
    2     1     3    1
    3     1     4    2
    4     4     5    1
    5     4     6    1
    6     6     7    1
    7     6     8    1
    8     6     9    1
    9     9    10    1
   10     9    11    1
   11     9    12    1
   12    12    13    1
   13    12    14    1
   14    12    15    1
   15    15    16    1
   16    15    17    1
   17    15    18    1
   18    18    19    1
   19    18    20    2
@<TRIPOS>SUBSTRUCTURE
       1 MOL1            1 RESIDUE      1      MOL     
@<SCITEGIC>MOL_PROPERTY
VConf Rank
SciTegic.value.IntegerValue
240

@<SCITEGIC>MOL_PROPERTY
Conf_Id
SciTegic.value.IntegerValue
91

@<SCITEGIC>MOL_PROPERTY
Delta U+W
SciTegic.value.DoubleValue
1.604

@<SCITEGIC>MOL_PROPERTY
U+W
SciTegic.value.DoubleValue
-50.141

@<SCITEGIC>MOL_PROPERTY
Grad RMS
SciTegic.value.DoubleValue
0.000000

@<SCITEGIC>MOL_PROPERTY
U
SciTegic.value.DoubleValue
10.644

@<SCITEGIC>MOL_PROPERTY
W
SciTegic.value.DoubleValue
-60.786

@<SCITEGIC>MOL_PROPERTY
W(PB)
SciTegic.value.DoubleValue
-62.965

@<SCITEGIC>MOL_PROPERTY
W(SA)
SciTegic.value.DoubleValue
2.179

@<SCITEGIC>MOL_PROPERTY
Valence
SciTegic.value.DoubleValue
11.230

@<SCITEGIC>MOL_PROPERTY
Coulomb
SciTegic.value.DoubleValue
-1.075

@<SCITEGIC>MOL_PROPERTY
VdW
SciTegic.value.DoubleValue
0.489

@<SCITEGIC>MOL_PROPERTY
VdW6
SciTegic.value.DoubleValue
-7.547

@<SCITEGIC>MOL_PROPERTY
VdW12
SciTegic.value.DoubleValue
8.036

@<SCITEGIC>MOL_PROPERTY
Bond
SciTegic.value.DoubleValue
0.159

@<SCITEGIC>MOL_PROPERTY
Angle
SciTegic.value.DoubleValue
3.006

@<SCITEGIC>MOL_PROPERTY
Pdih
SciTegic.value.DoubleValue
8.064

@<SCITEGIC>MOL_PROPERTY
Idih
SciTegic.value.DoubleValue
0.002

@<SCITEGIC>MOL_PROPERTY
Tether
SciTegic.value.DoubleValue
0.000

@<TRIPOS>MOLECULE
guest-s22_confgen4.mol2 : confsearch ligand conformer 241
          20          19           1
SMALL
USER_CHARGES
 
@<TRIPOS>ATOM
       1    C1      17.615630   21.933890   22.426898 C.2        1 MOL1        -0.2535
       2    H1      17.844007   22.252377   21.411024 H          1 MOL1         0.0845
       3    H2      17.238350   22.688113   23.115436 H          1 MOL1         0.0845
       4    C2      17.792342   20.669163   22.817907 C.2        1 MOL1        -0.1324
       5    H3      17.558279   20.371138   23.839697 H          1 MOL1         0.0833
       6    C3      18.310550   19.568540   21.919168 C.3        1 MOL1        -0.1813
       7    H4      18.270003   19.885143   20.868015 H          1 MOL1         0.0753
       8    H5      17.663178   18.685876   22.008370 H          1 MOL1         0.0753
       9    C4      19.760010   19.186498   22.285205 C.3        1 MOL1        -0.1855
      10    H6      20.402466   20.073687   22.198429 H          1 MOL1         0.0755
      11    H7      19.799230   18.865564   23.335264 H          1 MOL1         0.0755
      12    C5      20.304207   18.061038   21.378395 C.3        1 MOL1        -0.1855
      13    H8      20.265753   18.381493   20.327979 H          1 MOL1         0.0755
      14    H9      19.661394   17.173895   21.463792 H          1 MOL1         0.0755
      15    C6      21.762271   17.677609   21.746402 C.3        1 MOL1        -0.1958
      16    H10     22.410655   18.557118   21.657084 H          1 MOL1         0.0753
      17    H11     21.807023   17.350618   22.791859 H          1 MOL1         0.0753
      18    C7      22.379737   16.567480   20.894542 C.2        1 MOL1         0.6174
      19    O1      23.520275   16.238860   21.154005 O.co2      1 MOL1        -0.6695
      20    O2      21.727714   16.057840   20.003598 O.co2      1 MOL1        -0.6695
@<TRIPOS>BOND
    1     1     2    1
    2     1     3    1
    3     1     4    2
    4     4     5    1
    5     4     6    1
    6     6     7    1
    7     6     8    1
    8     6     9    1
    9     9    10    1
   10     9    11    1
   11     9    12    1
   12    12    13    1
   13    12    14    1
   14    12    15    1
   15    15    16    1
   16    15    17    1
   17    15    18    1
   18    18    19    1
   19    18    20    2
@<TRIPOS>SUBSTRUCTURE
       1 MOL1            1 RESIDUE      1      MOL     
@<SCITEGIC>MOL_PROPERTY
VConf Rank
SciTegic.value.IntegerValue
241

@<SCITEGIC>MOL_PROPERTY
Conf_Id
SciTegic.value.IntegerValue
33

@<SCITEGIC>MOL_PROPERTY
Delta U+W
SciTegic.value.DoubleValue
0.000

@<SCITEGIC>MOL_PROPERTY
U+W
SciTegic.value.DoubleValue
-51.745

@<SCITEGIC>MOL_PROPERTY
Grad RMS
SciTegic.value.DoubleValue
0.000000

@<SCITEGIC>MOL_PROPERTY
U
SciTegic.value.DoubleValue
7.593

@<SCITEGIC>MOL_PROPERTY
W
SciTegic.value.DoubleValue
-59.338

@<SCITEGIC>MOL_PROPERTY
W(PB)
SciTegic.value.DoubleValue
-61.574

@<SCITEGIC>MOL_PROPERTY
W(SA)
SciTegic.value.DoubleValue
2.236

@<SCITEGIC>MOL_PROPERTY
Valence
SciTegic.value.DoubleValue
9.570

@<SCITEGIC>MOL_PROPERTY
Coulomb
SciTegic.value.DoubleValue
-3.091

@<SCITEGIC>MOL_PROPERTY
VdW
SciTegic.value.DoubleValue
1.114

@<SCITEGIC>MOL_PROPERTY
VdW6
SciTegic.value.DoubleValue
-6.064

@<SCITEGIC>MOL_PROPERTY
VdW12
SciTegic.value.DoubleValue
7.178

@<SCITEGIC>MOL_PROPERTY
Bond
SciTegic.value.DoubleValue
0.117

@<SCITEGIC>MOL_PROPERTY
Angle
SciTegic.value.DoubleValue
2.692

@<SCITEGIC>MOL_PROPERTY
Pdih
SciTegic.value.DoubleValue
6.761

@<SCITEGIC>MOL_PROPERTY
Idih
SciTegic.value.DoubleValue
0.000

@<SCITEGIC>MOL_PROPERTY
Tether
SciTegic.value.DoubleValue
0.000

@<TRIPOS>MOLECULE
guest-s22_confgen4.mol2 : confsearch ligand conformer 242
          20          19           1
SMALL
USER_CHARGES
 
@<TRIPOS>ATOM
       1    C1      20.671038   15.537029   22.011108 C.2        1 MOL1        -0.2535
       2    H1      19.683028   15.259064   21.647584 H          1 MOL1         0.0845
       3    H2      21.319076   14.736000   22.362759 H          1 MOL1         0.0845
       4    C2      21.075205   16.809823   22.029015 C.2        1 MOL1        -0.1324
       5    H3      22.067957   17.066957   22.397735 H          1 MOL1         0.0833
       6    C3      20.232507   17.973747   21.556929 C.3        1 MOL1        -0.1813
       7    H4      19.374622   17.610024   20.975264 H          1 MOL1         0.0753
       8    H5      20.830015   18.600691   20.883151 H          1 MOL1         0.0753
       9    C4      19.725625   18.812297   22.751800 C.3        1 MOL1        -0.1855
      10    H6      19.203756   18.147551   23.454015 H          1 MOL1         0.0755
      11    H7      20.581358   19.230985   23.298989 H          1 MOL1         0.0755
      12    C5      18.761927   19.951345   22.341878 C.3        1 MOL1        -0.1855
      13    H8      18.363684   20.420454   23.252281 H          1 MOL1         0.0755
      14    H9      17.898800   19.532699   21.806024 H          1 MOL1         0.0755
      15    C6      19.431784   21.045213   21.470260 C.3        1 MOL1        -0.1958
      16    H10     20.320315   21.441123   21.976376 H          1 MOL1         0.0753
      17    H11     19.761363   20.628090   20.512069 H          1 MOL1         0.0753
      18    C7      18.498683   22.212934   21.170728 C.2        1 MOL1         0.6174
      19    O1      17.795025   22.146216   20.182233 O.co2      1 MOL1        -0.6695
      20    O2      18.485597   23.149809   21.944569 O.co2      1 MOL1        -0.6695
@<TRIPOS>BOND
    1     1     2    1
    2     1     3    1
    3     1     4    2
    4     4     5    1
    5     4     6    1
    6     6     7    1
    7     6     8    1
    8     6     9    1
    9     9    10    1
   10     9    11    1
   11     9    12    1
   12    12    13    1
   13    12    14    1
   14    12    15    1
   15    15    16    1
   16    15    17    1
   17    15    18    1
   18    18    19    1
   19    18    20    2
@<TRIPOS>SUBSTRUCTURE
       1 MOL1            1 RESIDUE      1      MOL     
@<SCITEGIC>MOL_PROPERTY
VConf Rank
SciTegic.value.IntegerValue
242

@<SCITEGIC>MOL_PROPERTY
Conf_Id
SciTegic.value.IntegerValue
37

@<SCITEGIC>MOL_PROPERTY
Delta U+W
SciTegic.value.DoubleValue
-0.384

@<SCITEGIC>MOL_PROPERTY
U+W
SciTegic.value.DoubleValue
-52.130

@<SCITEGIC>MOL_PROPERTY
Grad RMS
SciTegic.value.DoubleValue
0.000000

@<SCITEGIC>MOL_PROPERTY
U
SciTegic.value.DoubleValue
7.491

@<SCITEGIC>MOL_PROPERTY
W
SciTegic.value.DoubleValue
-59.621

@<SCITEGIC>MOL_PROPERTY
W(PB)
SciTegic.value.DoubleValue
-61.853

@<SCITEGIC>MOL_PROPERTY
W(SA)
SciTegic.value.DoubleValue
2.232

@<SCITEGIC>MOL_PROPERTY
Valence
SciTegic.value.DoubleValue
9.604

@<SCITEGIC>MOL_PROPERTY
Coulomb
SciTegic.value.DoubleValue
-2.799

@<SCITEGIC>MOL_PROPERTY
VdW
SciTegic.value.DoubleValue
0.686

@<SCITEGIC>MOL_PROPERTY
VdW6
SciTegic.value.DoubleValue
-6.435

@<SCITEGIC>MOL_PROPERTY
VdW12
SciTegic.value.DoubleValue
7.121

@<SCITEGIC>MOL_PROPERTY
Bond
SciTegic.value.DoubleValue
0.124

@<SCITEGIC>MOL_PROPERTY
Angle
SciTegic.value.DoubleValue
2.493

@<SCITEGIC>MOL_PROPERTY
Pdih
SciTegic.value.DoubleValue
6.986

@<SCITEGIC>MOL_PROPERTY
Idih
SciTegic.value.DoubleValue
0.001

@<SCITEGIC>MOL_PROPERTY
Tether
SciTegic.value.DoubleValue
0.000

@<TRIPOS>MOLECULE
guest-s22_confgen4.mol2 : confsearch ligand conformer 243
          20          19           1
SMALL
USER_CHARGES
 
@<TRIPOS>ATOM
       1    C1      16.546690   19.855316   21.808255 C.2        1 MOL1        -0.2535
       2    H1      15.495525   20.138227   21.793993 H          1 MOL1         0.0845
       3    H2      16.898532   19.232608   20.988506 H          1 MOL1         0.0845
       4    C2      17.350942   20.264325   22.796084 C.2        1 MOL1        -0.1324
       5    H3      16.940042   20.887058   23.590435 H          1 MOL1         0.0833
       6    C3      18.830050   19.952628   22.951314 C.3        1 MOL1        -0.1813
       7    H4      18.987526   19.463197   23.921774 H          1 MOL1         0.0753
       8    H5      19.386351   20.898146   23.002899 H          1 MOL1         0.0753
       9    C4      19.433456   19.069540   21.834157 C.3        1 MOL1        -0.1855
      10    H6      18.894567   18.113071   21.791110 H          1 MOL1         0.0755
      11    H7      19.297696   19.563577   20.862260 H          1 MOL1         0.0755
      12    C5      20.936369   18.800511   22.066315 C.3        1 MOL1        -0.1855
      13    H8      21.078950   18.306263   23.037395 H          1 MOL1         0.0755
      14    H9      21.481245   19.753804   22.110450 H          1 MOL1         0.0755
      15    C6      21.542945   17.916417   20.948940 C.3        1 MOL1        -0.1958
      16    H10     21.018515   16.954537   20.900341 H          1 MOL1         0.0753
      17    H11     21.420726   18.402099   19.973349 H          1 MOL1         0.0753
      18    C7      23.027142   17.636527   21.155843 C.2        1 MOL1         0.6174
      19    O1      23.341326   16.658354   21.804776 O.co2      1 MOL1        -0.6695
      20    O2      23.829466   18.414937   20.679398 O.co2      1 MOL1        -0.6695
@<TRIPOS>BOND
    1     1     2    1
    2     1     3    1
    3     1     4    2
    4     4     5    1
    5     4     6    1
    6     6     7    1
    7     6     8    1
    8     6     9    1
    9     9    10    1
   10     9    11    1
   11     9    12    1
   12    12    13    1
   13    12    14    1
   14    12    15    1
   15    15    16    1
   16    15    17    1
   17    15    18    1
   18    18    19    1
   19    18    20    2
@<TRIPOS>SUBSTRUCTURE
       1 MOL1            1 RESIDUE      1      MOL     
@<SCITEGIC>MOL_PROPERTY
VConf Rank
SciTegic.value.IntegerValue
243

@<SCITEGIC>MOL_PROPERTY
Conf_Id
SciTegic.value.IntegerValue
44

@<SCITEGIC>MOL_PROPERTY
Delta U+W
SciTegic.value.DoubleValue
-1.440

@<SCITEGIC>MOL_PROPERTY
U+W
SciTegic.value.DoubleValue
-53.185

@<SCITEGIC>MOL_PROPERTY
Grad RMS
SciTegic.value.DoubleValue
0.000000

@<SCITEGIC>MOL_PROPERTY
U
SciTegic.value.DoubleValue
6.572

@<SCITEGIC>MOL_PROPERTY
W
SciTegic.value.DoubleValue
-59.757

@<SCITEGIC>MOL_PROPERTY
W(PB)
SciTegic.value.DoubleValue
-62.007

@<SCITEGIC>MOL_PROPERTY
W(SA)
SciTegic.value.DoubleValue
2.249

@<SCITEGIC>MOL_PROPERTY
Valence
SciTegic.value.DoubleValue
7.989

@<SCITEGIC>MOL_PROPERTY
Coulomb
SciTegic.value.DoubleValue
-2.697

@<SCITEGIC>MOL_PROPERTY
VdW
SciTegic.value.DoubleValue
1.281

@<SCITEGIC>MOL_PROPERTY
VdW6
SciTegic.value.DoubleValue
-6.467

@<SCITEGIC>MOL_PROPERTY
VdW12
SciTegic.value.DoubleValue
7.748

@<SCITEGIC>MOL_PROPERTY
Bond
SciTegic.value.DoubleValue
0.136

@<SCITEGIC>MOL_PROPERTY
Angle
SciTegic.value.DoubleValue
2.854

@<SCITEGIC>MOL_PROPERTY
Pdih
SciTegic.value.DoubleValue
4.997

@<SCITEGIC>MOL_PROPERTY
Idih
SciTegic.value.DoubleValue
0.001

@<SCITEGIC>MOL_PROPERTY
Tether
SciTegic.value.DoubleValue
0.000

@<TRIPOS>MOLECULE
guest-s22_confgen4.mol2 : confsearch ligand conformer 244
          20          19           1
SMALL
USER_CHARGES
 
@<TRIPOS>ATOM
       1    C1      21.374457   20.190592   24.792515 C.2        1 MOL1        -0.2535
       2    H1      20.378240   20.022519   25.198571 H          1 MOL1         0.0845
       3    H2      22.071517   20.767271   25.398157 H          1 MOL1         0.0845
       4    C2      21.730664   19.712156   23.597553 C.2        1 MOL1        -0.1324
       5    H3      22.732840   19.892224   23.209154 H          1 MOL1         0.0833
       6    C3      20.818859   18.903085   22.702057 C.3        1 MOL1        -0.1813
       7    H4      19.953337   18.547128   23.275438 H          1 MOL1         0.0753
       8    H5      21.351839   18.011558   22.345626 H          1 MOL1         0.0753
       9    C4      20.342480   19.739953   21.493473 C.3        1 MOL1        -0.1855
      10    H6      19.762484   20.602566   21.849417 H          1 MOL1         0.0755
      11    H7      21.221011   20.149504   20.976234 H          1 MOL1         0.0755
      12    C5      19.503231   18.932019   20.475030 C.3        1 MOL1        -0.1855
      13    H8      20.085658   18.074389   20.110859 H          1 MOL1         0.0755
      14    H9      19.305546   19.566448   19.599860 H          1 MOL1         0.0755
      15    C6      18.149407   18.434380   21.044744 C.3        1 MOL1        -0.1958
      16    H10     18.311792   17.725034   21.863989 H          1 MOL1         0.0753
      17    H11     17.577369   19.276788   21.451584 H          1 MOL1         0.0753
      18    C7      17.288061   17.740789   19.995485 C.2        1 MOL1         0.6174
      19    O1      16.513983   18.418958   19.349245 O.co2      1 MOL1        -0.6695
      20    O2      17.428010   16.543984   19.838048 O.co2      1 MOL1        -0.6695
@<TRIPOS>BOND
    1     1     2    1
    2     1     3    1
    3     1     4    2
    4     4     5    1
    5     4     6    1
    6     6     7    1
    7     6     8    1
    8     6     9    1
    9     9    10    1
   10     9    11    1
   11     9    12    1
   12    12    13    1
   13    12    14    1
   14    12    15    1
   15    15    16    1
   16    15    17    1
   17    15    18    1
   18    18    19    1
   19    18    20    2
@<TRIPOS>SUBSTRUCTURE
       1 MOL1            1 RESIDUE      1      MOL     
@<SCITEGIC>MOL_PROPERTY
VConf Rank
SciTegic.value.IntegerValue
244

@<SCITEGIC>MOL_PROPERTY
Conf_Id
SciTegic.value.IntegerValue
38

@<SCITEGIC>MOL_PROPERTY
Delta U+W
SciTegic.value.DoubleValue
-0.381

@<SCITEGIC>MOL_PROPERTY
U+W
SciTegic.value.DoubleValue
-52.126

@<SCITEGIC>MOL_PROPERTY
Grad RMS
SciTegic.value.DoubleValue
0.000000

@<SCITEGIC>MOL_PROPERTY
U
SciTegic.value.DoubleValue
7.601

@<SCITEGIC>MOL_PROPERTY
W
SciTegic.value.DoubleValue
-59.727

@<SCITEGIC>MOL_PROPERTY
W(PB)
SciTegic.value.DoubleValue
-61.964

@<SCITEGIC>MOL_PROPERTY
W(SA)
SciTegic.value.DoubleValue
2.236

@<SCITEGIC>MOL_PROPERTY
Valence
SciTegic.value.DoubleValue
9.602

@<SCITEGIC>MOL_PROPERTY
Coulomb
SciTegic.value.DoubleValue
-2.686

@<SCITEGIC>MOL_PROPERTY
VdW
SciTegic.value.DoubleValue
0.685

@<SCITEGIC>MOL_PROPERTY
VdW6
SciTegic.value.DoubleValue
-6.453

@<SCITEGIC>MOL_PROPERTY
VdW12
SciTegic.value.DoubleValue
7.139

@<SCITEGIC>MOL_PROPERTY
Bond
SciTegic.value.DoubleValue
0.125

@<SCITEGIC>MOL_PROPERTY
Angle
SciTegic.value.DoubleValue
2.485

@<SCITEGIC>MOL_PROPERTY
Pdih
SciTegic.value.DoubleValue
6.991

@<SCITEGIC>MOL_PROPERTY
Idih
SciTegic.value.DoubleValue
0.001

@<SCITEGIC>MOL_PROPERTY
Tether
SciTegic.value.DoubleValue
0.000

@<TRIPOS>MOLECULE
guest-s22_confgen4.mol2 : confsearch ligand conformer 245
          20          19           1
SMALL
USER_CHARGES
 
@<TRIPOS>ATOM
       1    C1      16.713245   17.674880   20.911618 C.2        1 MOL1        -0.2535
       2    H1      16.683522   16.991051   21.758420 H          1 MOL1         0.0845
       3    H2      15.778443   17.862148   20.385935 H          1 MOL1         0.0845
       4    C2      17.849291   18.264818   20.530783 C.2        1 MOL1        -0.1324
       5    H3      17.857253   18.946917   19.680878 H          1 MOL1         0.0833
       6    C3      19.183752   18.053208   21.210549 C.3        1 MOL1        -0.1813
       7    H4      19.951085   17.838606   20.454724 H          1 MOL1         0.0753
       8    H5      19.138596   17.177899   21.872770 H          1 MOL1         0.0753
       9    C4      19.596098   19.295648   22.027450 C.3        1 MOL1        -0.1855
      10    H6      19.642799   20.169130   21.362410 H          1 MOL1         0.0755
      11    H7      18.823902   19.509989   22.779143 H          1 MOL1         0.0755
      12    C5      20.959920   19.097082   22.726660 C.3        1 MOL1        -0.1855
      13    H8      21.736712   18.892923   21.976588 H          1 MOL1         0.0755
      14    H9      20.908282   18.213277   23.376895 H          1 MOL1         0.0755
      15    C6      21.377846   20.324169   23.577831 C.3        1 MOL1        -0.1958
      16    H10     20.598914   20.557962   24.313673 H          1 MOL1         0.0753
      17    H11     22.286901   20.086055   24.142542 H          1 MOL1         0.0753
      18    C7      21.665614   21.578585   22.757772 C.2        1 MOL1         0.6174
      19    O1      20.840928   22.471247   22.762034 O.co2      1 MOL1        -0.6695
      20    O2      22.713608   21.633638   22.144766 O.co2      1 MOL1        -0.6695
@<TRIPOS>BOND
    1     1     2    1
    2     1     3    1
    3     1     4    2
    4     4     5    1
    5     4     6    1
    6     6     7    1
    7     6     8    1
    8     6     9    1
    9     9    10    1
   10     9    11    1
   11     9    12    1
   12    12    13    1
   13    12    14    1
   14    12    15    1
   15    15    16    1
   16    15    17    1
   17    15    18    1
   18    18    19    1
   19    18    20    2
@<TRIPOS>SUBSTRUCTURE
       1 MOL1            1 RESIDUE      1      MOL     
@<SCITEGIC>MOL_PROPERTY
VConf Rank
SciTegic.value.IntegerValue
245

@<SCITEGIC>MOL_PROPERTY
Conf_Id
SciTegic.value.IntegerValue
58

@<SCITEGIC>MOL_PROPERTY
Delta U+W
SciTegic.value.DoubleValue
0.019

@<SCITEGIC>MOL_PROPERTY
U+W
SciTegic.value.DoubleValue
-51.727

@<SCITEGIC>MOL_PROPERTY
Grad RMS
SciTegic.value.DoubleValue
0.000000

@<SCITEGIC>MOL_PROPERTY
U
SciTegic.value.DoubleValue
8.963

@<SCITEGIC>MOL_PROPERTY
W
SciTegic.value.DoubleValue
-60.690

@<SCITEGIC>MOL_PROPERTY
W(PB)
SciTegic.value.DoubleValue
-62.934

@<SCITEGIC>MOL_PROPERTY
W(SA)
SciTegic.value.DoubleValue
2.244

@<SCITEGIC>MOL_PROPERTY
Valence
SciTegic.value.DoubleValue
9.327

@<SCITEGIC>MOL_PROPERTY
Coulomb
SciTegic.value.DoubleValue
-0.780

@<SCITEGIC>MOL_PROPERTY
VdW
SciTegic.value.DoubleValue
0.417

@<SCITEGIC>MOL_PROPERTY
VdW6
SciTegic.value.DoubleValue
-6.635

@<SCITEGIC>MOL_PROPERTY
VdW12
SciTegic.value.DoubleValue
7.052

@<SCITEGIC>MOL_PROPERTY
Bond
SciTegic.value.DoubleValue
0.105

@<SCITEGIC>MOL_PROPERTY
Angle
SciTegic.value.DoubleValue
2.399

@<SCITEGIC>MOL_PROPERTY
Pdih
SciTegic.value.DoubleValue
6.822

@<SCITEGIC>MOL_PROPERTY
Idih
SciTegic.value.DoubleValue
0.000

@<SCITEGIC>MOL_PROPERTY
Tether
SciTegic.value.DoubleValue
0.000

@<TRIPOS>MOLECULE
guest-s22_confgen4.mol2 : confsearch ligand conformer 246
          20          19           1
SMALL
USER_CHARGES
 
@<TRIPOS>ATOM
       1    C1      17.496867   16.671840   23.074727 C.2        1 MOL1        -0.2535
       2    H1      16.618796   17.282661   22.871095 H          1 MOL1         0.0845
       3    H2      17.379964   15.842894   23.770750 H          1 MOL1         0.0845
       4    C2      18.673764   16.927529   22.497490 C.2        1 MOL1        -0.1324
       5    H3      19.540789   16.304371   22.715670 H          1 MOL1         0.0833
       6    C3      18.911635   18.058607   21.521927 C.3        1 MOL1        -0.1813
       7    H4      17.953655   18.463699   21.168495 H          1 MOL1         0.0753
       8    H5      19.438763   17.676223   20.637594 H          1 MOL1         0.0753
       9    C4      19.740206   19.187855   22.169446 C.3        1 MOL1        -0.1855
      10    H6      19.212059   19.564498   23.056279 H          1 MOL1         0.0755
      11    H7      20.698689   18.780586   22.519982 H          1 MOL1         0.0755
      12    C5      19.995070   20.351028   21.184356 C.3        1 MOL1        -0.1855
      13    H8      19.032172   20.741105   20.827633 H          1 MOL1         0.0755
      14    H9      20.532749   19.979669   20.300790 H          1 MOL1         0.0755
      15    C6      20.800821   21.510231   21.826155 C.3        1 MOL1        -0.1958
      16    H10     20.850249   22.353285   21.127017 H          1 MOL1         0.0753
      17    H11     20.290404   21.873601   22.726319 H          1 MOL1         0.0753
      18    C7      22.234277   21.138972   22.195259 C.2        1 MOL1         0.6174
      19    O1      23.051655   21.052478   21.299990 O.co2      1 MOL1        -0.6695
      20    O2      22.498502   20.957065   23.367464 O.co2      1 MOL1        -0.6695
@<TRIPOS>BOND
    1     1     2    1
    2     1     3    1
    3     1     4    2
    4     4     5    1
    5     4     6    1
    6     6     7    1
    7     6     8    1
    8     6     9    1
    9     9    10    1
   10     9    11    1
   11     9    12    1
   12    12    13    1
   13    12    14    1
   14    12    15    1
   15    15    16    1
   16    15    17    1
   17    15    18    1
   18    18    19    1
   19    18    20    2
@<TRIPOS>SUBSTRUCTURE
       1 MOL1            1 RESIDUE      1      MOL     
@<SCITEGIC>MOL_PROPERTY
VConf Rank
SciTegic.value.IntegerValue
246

@<SCITEGIC>MOL_PROPERTY
Conf_Id
SciTegic.value.IntegerValue
54

@<SCITEGIC>MOL_PROPERTY
Delta U+W
SciTegic.value.DoubleValue
-0.048

@<SCITEGIC>MOL_PROPERTY
U+W
SciTegic.value.DoubleValue
-51.793

@<SCITEGIC>MOL_PROPERTY
Grad RMS
SciTegic.value.DoubleValue
0.000000

@<SCITEGIC>MOL_PROPERTY
U
SciTegic.value.DoubleValue
8.964

@<SCITEGIC>MOL_PROPERTY
W
SciTegic.value.DoubleValue
-60.756

@<SCITEGIC>MOL_PROPERTY
W(PB)
SciTegic.value.DoubleValue
-63.007

@<SCITEGIC>MOL_PROPERTY
W(SA)
SciTegic.value.DoubleValue
2.251

@<SCITEGIC>MOL_PROPERTY
Valence
SciTegic.value.DoubleValue
9.327

@<SCITEGIC>MOL_PROPERTY
Coulomb
SciTegic.value.DoubleValue
-0.780

@<SCITEGIC>MOL_PROPERTY
VdW
SciTegic.value.DoubleValue
0.417

@<SCITEGIC>MOL_PROPERTY
VdW6
SciTegic.value.DoubleValue
-6.635

@<SCITEGIC>MOL_PROPERTY
VdW12
SciTegic.value.DoubleValue
7.052

@<SCITEGIC>MOL_PROPERTY
Bond
SciTegic.value.DoubleValue
0.105

@<SCITEGIC>MOL_PROPERTY
Angle
SciTegic.value.DoubleValue
2.399

@<SCITEGIC>MOL_PROPERTY
Pdih
SciTegic.value.DoubleValue
6.822

@<SCITEGIC>MOL_PROPERTY
Idih
SciTegic.value.DoubleValue
0.000

@<SCITEGIC>MOL_PROPERTY
Tether
SciTegic.value.DoubleValue
0.000

@<TRIPOS>MOLECULE
guest-s22_confgen4.mol2 : confsearch ligand conformer 247
          20          19           1
SMALL
USER_CHARGES
 
@<TRIPOS>ATOM
       1    C1      20.495835   21.196517   19.460459 C.2        1 MOL1        -0.2535
       2    H1      21.428472   21.576450   19.046905 H          1 MOL1         0.0845
       3    H2      19.691389   20.973952   18.761288 H          1 MOL1         0.0845
       4    C2      20.349225   21.009247   20.774653 C.2        1 MOL1        -0.1324
       5    H3      21.166048   21.241775   21.457283 H          1 MOL1         0.0833
       6    C3      19.081643   20.491840   21.420699 C.3        1 MOL1        -0.1813
       7    H4      18.233455   20.634453   20.737494 H          1 MOL1         0.0753
       8    H5      18.853322   21.078849   22.320330 H          1 MOL1         0.0753
       9    C4      19.175833   18.993217   21.786016 C.3        1 MOL1        -0.1855
      10    H6      18.186675   18.650011   22.118820 H          1 MOL1         0.0755
      11    H7      19.421820   18.412580   20.886300 H          1 MOL1         0.0755
      12    C5      20.216968   18.708270   22.894594 C.3        1 MOL1        -0.1855
      13    H8      19.979534   19.299974   23.789551 H          1 MOL1         0.0755
      14    H9      21.210372   19.031037   22.556270 H          1 MOL1         0.0755
      15    C6      20.285829   17.206388   23.275109 C.3        1 MOL1        -0.1958
      16    H10     20.489008   16.599134   22.384720 H          1 MOL1         0.0753
      17    H11     21.119118   17.042068   23.968351 H          1 MOL1         0.0753
      18    C7      19.022212   16.677690   23.947854 C.2        1 MOL1         0.6174
      19    O1      18.271554   15.979123   23.295501 O.co2      1 MOL1        -0.6695
      20    O2      18.827888   16.970387   25.111333 O.co2      1 MOL1        -0.6695
@<TRIPOS>BOND
    1     1     2    1
    2     1     3    1
    3     1     4    2
    4     4     5    1
    5     4     6    1
    6     6     7    1
    7     6     8    1
    8     6     9    1
    9     9    10    1
   10     9    11    1
   11     9    12    1
   12    12    13    1
   13    12    14    1
   14    12    15    1
   15    15    16    1
   16    15    17    1
   17    15    18    1
   18    18    19    1
   19    18    20    2
@<TRIPOS>SUBSTRUCTURE
       1 MOL1            1 RESIDUE      1      MOL     
@<SCITEGIC>MOL_PROPERTY
VConf Rank
SciTegic.value.IntegerValue
247

@<SCITEGIC>MOL_PROPERTY
Conf_Id
SciTegic.value.IntegerValue
27

@<SCITEGIC>MOL_PROPERTY
Delta U+W
SciTegic.value.DoubleValue
0.478

@<SCITEGIC>MOL_PROPERTY
U+W
SciTegic.value.DoubleValue
-51.267

@<SCITEGIC>MOL_PROPERTY
Grad RMS
SciTegic.value.DoubleValue
0.000000

@<SCITEGIC>MOL_PROPERTY
U
SciTegic.value.DoubleValue
9.192

@<SCITEGIC>MOL_PROPERTY
W
SciTegic.value.DoubleValue
-60.459

@<SCITEGIC>MOL_PROPERTY
W(PB)
SciTegic.value.DoubleValue
-62.649

@<SCITEGIC>MOL_PROPERTY
W(SA)
SciTegic.value.DoubleValue
2.190

@<SCITEGIC>MOL_PROPERTY
Valence
SciTegic.value.DoubleValue
9.572

@<SCITEGIC>MOL_PROPERTY
Coulomb
SciTegic.value.DoubleValue
-0.884

@<SCITEGIC>MOL_PROPERTY
VdW
SciTegic.value.DoubleValue
0.504

@<SCITEGIC>MOL_PROPERTY
VdW6
SciTegic.value.DoubleValue
-7.168

@<SCITEGIC>MOL_PROPERTY
VdW12
SciTegic.value.DoubleValue
7.672

@<SCITEGIC>MOL_PROPERTY
Bond
SciTegic.value.DoubleValue
0.127

@<SCITEGIC>MOL_PROPERTY
Angle
SciTegic.value.DoubleValue
2.504

@<SCITEGIC>MOL_PROPERTY
Pdih
SciTegic.value.DoubleValue
6.941

@<SCITEGIC>MOL_PROPERTY
Idih
SciTegic.value.DoubleValue
0.001

@<SCITEGIC>MOL_PROPERTY
Tether
SciTegic.value.DoubleValue
0.000

@<TRIPOS>MOLECULE
guest-s22_confgen4.mol2 : confsearch ligand conformer 248
          20          19           1
SMALL
USER_CHARGES
 
@<TRIPOS>ATOM
       1    C1      21.697842   16.138270   22.104172 C.2        1 MOL1        -0.2535
       2    H1      22.709910   16.516255   22.239638 H          1 MOL1         0.0845
       3    H2      21.583373   15.185415   21.590203 H          1 MOL1         0.0845
       4    C2      20.635352   16.815628   22.546866 C.2        1 MOL1        -0.1324
       5    H3      19.631206   16.417595   22.403504 H          1 MOL1         0.0833
       6    C3      20.717902   18.140754   23.274207 C.3        1 MOL1        -0.1813
       7    H4      21.729603   18.278400   23.679264 H          1 MOL1         0.0753
       8    H5      20.039263   18.136547   24.137626 H          1 MOL1         0.0753
       9    C4      20.385415   19.337826   22.355224 C.3        1 MOL1        -0.1855
      10    H6      20.590531   20.269490   22.900024 H          1 MOL1         0.0755
      11    H7      21.056964   19.327628   21.485612 H          1 MOL1         0.0755
      12    C5      18.914010   19.340995   21.880882 C.3        1 MOL1        -0.1855
      13    H8      18.243843   19.324970   22.751500 H          1 MOL1         0.0755
      14    H9      18.705137   18.432172   21.300281 H          1 MOL1         0.0755
      15    C6      18.592704   20.581159   21.010930 C.3        1 MOL1        -0.1958
      16    H10     18.778924   21.500894   21.578332 H          1 MOL1         0.0753
      17    H11     19.245985   20.605125   20.130442 H          1 MOL1         0.0753
      18    C7      17.146680   20.607188   20.528869 C.2        1 MOL1         0.6174
      19    O1      16.885539   20.073615   19.468790 O.co2      1 MOL1        -0.6695
      20    O2      16.316484   21.145057   21.234681 O.co2      1 MOL1        -0.6695
@<TRIPOS>BOND
    1     1     2    1
    2     1     3    1
    3     1     4    2
    4     4     5    1
    5     4     6    1
    6     6     7    1
    7     6     8    1
    8     6     9    1
    9     9    10    1
   10     9    11    1
   11     9    12    1
   12    12    13    1
   13    12    14    1
   14    12    15    1
   15    15    16    1
   16    15    17    1
   17    15    18    1
   18    18    19    1
   19    18    20    2
@<TRIPOS>SUBSTRUCTURE
       1 MOL1            1 RESIDUE      1      MOL     
@<SCITEGIC>MOL_PROPERTY
VConf Rank
SciTegic.value.IntegerValue
248

@<SCITEGIC>MOL_PROPERTY
Conf_Id
SciTegic.value.IntegerValue
41

@<SCITEGIC>MOL_PROPERTY
Delta U+W
SciTegic.value.DoubleValue
-0.634

@<SCITEGIC>MOL_PROPERTY
U+W
SciTegic.value.DoubleValue
-52.379

@<SCITEGIC>MOL_PROPERTY
Grad RMS
SciTegic.value.DoubleValue
0.000000

@<SCITEGIC>MOL_PROPERTY
U
SciTegic.value.DoubleValue
7.828

@<SCITEGIC>MOL_PROPERTY
W
SciTegic.value.DoubleValue
-60.207

@<SCITEGIC>MOL_PROPERTY
W(PB)
SciTegic.value.DoubleValue
-62.449

@<SCITEGIC>MOL_PROPERTY
W(SA)
SciTegic.value.DoubleValue
2.242

@<SCITEGIC>MOL_PROPERTY
Valence
SciTegic.value.DoubleValue
9.300

@<SCITEGIC>MOL_PROPERTY
Coulomb
SciTegic.value.DoubleValue
-2.080

@<SCITEGIC>MOL_PROPERTY
VdW
SciTegic.value.DoubleValue
0.608

@<SCITEGIC>MOL_PROPERTY
VdW6
SciTegic.value.DoubleValue
-6.341

@<SCITEGIC>MOL_PROPERTY
VdW12
SciTegic.value.DoubleValue
6.949

@<SCITEGIC>MOL_PROPERTY
Bond
SciTegic.value.DoubleValue
0.103

@<SCITEGIC>MOL_PROPERTY
Angle
SciTegic.value.DoubleValue
2.334

@<SCITEGIC>MOL_PROPERTY
Pdih
SciTegic.value.DoubleValue
6.862

@<SCITEGIC>MOL_PROPERTY
Idih
SciTegic.value.DoubleValue
0.001

@<SCITEGIC>MOL_PROPERTY
Tether
SciTegic.value.DoubleValue
0.000

@<TRIPOS>MOLECULE
guest-s22_confgen4.mol2 : confsearch ligand conformer 249
          20          19           1
SMALL
USER_CHARGES
 
@<TRIPOS>ATOM
       1    C1      22.272173   18.576753   24.716182 C.2        1 MOL1        -0.2535
       2    H1      22.574074   18.027805   25.606548 H          1 MOL1         0.0845
       3    H2      23.024559   19.195704   24.230004 H          1 MOL1         0.0845
       4    C2      21.027090   18.489752   24.240878 C.2        1 MOL1        -0.1324
       5    H3      20.288755   17.864007   24.741847 H          1 MOL1         0.0833
       6    C3      20.535131   19.222141   23.012390 C.3        1 MOL1        -0.1813
       7    H4      21.245647   20.010578   22.729709 H          1 MOL1         0.0753
       8    H5      19.584198   19.718078   23.246329 H          1 MOL1         0.0753
       9    C4      20.343805   18.250275   21.826622 C.3        1 MOL1        -0.1855
      10    H6      21.276980   17.691223   21.672332 H          1 MOL1         0.0755
      11    H7      19.577074   17.505825   22.081918 H          1 MOL1         0.0755
      12    C5      19.968225   18.957642   20.501193 C.3        1 MOL1        -0.1855
      13    H8      19.928150   18.207614   19.699171 H          1 MOL1         0.0755
      14    H9      20.767550   19.659062   20.226426 H          1 MOL1         0.0755
      15    C6      18.614589   19.718276   20.540271 C.3        1 MOL1        -0.1958
      16    H10     18.645323   20.525762   21.280559 H          1 MOL1         0.0753
      17    H11     18.438153   20.194922   19.568991 H          1 MOL1         0.0753
      18    C7      17.409235   18.830186   20.835490 C.2        1 MOL1         0.6174
      19    O1      17.033684   18.067606   19.966675 O.co2      1 MOL1        -0.6695
      20    O2      16.866807   18.936365   21.917826 O.co2      1 MOL1        -0.6695
@<TRIPOS>BOND
    1     1     2    1
    2     1     3    1
    3     1     4    2
    4     4     5    1
    5     4     6    1
    6     6     7    1
    7     6     8    1
    8     6     9    1
    9     9    10    1
   10     9    11    1
   11     9    12    1
   12    12    13    1
   13    12    14    1
   14    12    15    1
   15    15    16    1
   16    15    17    1
   17    15    18    1
   18    18    19    1
   19    18    20    2
@<TRIPOS>SUBSTRUCTURE
       1 MOL1            1 RESIDUE      1      MOL     
@<SCITEGIC>MOL_PROPERTY
VConf Rank
SciTegic.value.IntegerValue
249

@<SCITEGIC>MOL_PROPERTY
Conf_Id
SciTegic.value.IntegerValue
84

@<SCITEGIC>MOL_PROPERTY
Delta U+W
SciTegic.value.DoubleValue
0.942

@<SCITEGIC>MOL_PROPERTY
U+W
SciTegic.value.DoubleValue
-50.803

@<SCITEGIC>MOL_PROPERTY
Grad RMS
SciTegic.value.DoubleValue
0.000000

@<SCITEGIC>MOL_PROPERTY
U
SciTegic.value.DoubleValue
10.196

@<SCITEGIC>MOL_PROPERTY
W
SciTegic.value.DoubleValue
-60.999

@<SCITEGIC>MOL_PROPERTY
W(PB)
SciTegic.value.DoubleValue
-63.182

@<SCITEGIC>MOL_PROPERTY
W(SA)
SciTegic.value.DoubleValue
2.182

@<SCITEGIC>MOL_PROPERTY
Valence
SciTegic.value.DoubleValue
9.837

@<SCITEGIC>MOL_PROPERTY
Coulomb
SciTegic.value.DoubleValue
0.032

@<SCITEGIC>MOL_PROPERTY
VdW
SciTegic.value.DoubleValue
0.328

@<SCITEGIC>MOL_PROPERTY
VdW6
SciTegic.value.DoubleValue
-7.642

@<SCITEGIC>MOL_PROPERTY
VdW12
SciTegic.value.DoubleValue
7.969

@<SCITEGIC>MOL_PROPERTY
Bond
SciTegic.value.DoubleValue
0.151

@<SCITEGIC>MOL_PROPERTY
Angle
SciTegic.value.DoubleValue
2.748

@<SCITEGIC>MOL_PROPERTY
Pdih
SciTegic.value.DoubleValue
6.937

@<SCITEGIC>MOL_PROPERTY
Idih
SciTegic.value.DoubleValue
0.001

@<SCITEGIC>MOL_PROPERTY
Tether
SciTegic.value.DoubleValue
0.000

@<TRIPOS>MOLECULE
guest-s22_confgen4.mol2 : confsearch ligand conformer 250
          20          19           1
SMALL
USER_CHARGES
 
@<TRIPOS>ATOM
       1    C1      20.202795   17.524095   25.044993 C.2        1 MOL1        -0.2535
       2    H1      20.436713   17.612228   26.104605 H          1 MOL1         0.0845
       3    H2      19.391702   16.853764   24.765052 H          1 MOL1         0.0845
       4    C2      20.884916   18.214949   24.127881 C.2        1 MOL1        -0.1324
       5    H3      21.692832   18.881341   24.429260 H          1 MOL1         0.0833
       6    C3      20.618042   18.143266   22.640835 C.3        1 MOL1        -0.1813
       7    H4      19.983187   17.277052   22.409704 H          1 MOL1         0.0753
       8    H5      21.564709   17.993434   22.104687 H          1 MOL1         0.0753
       9    C4      19.934195   19.430565   22.134599 C.3        1 MOL1        -0.1855
      10    H6      18.991276   19.577567   22.679553 H          1 MOL1         0.0755
      11    H7      20.570469   20.296936   22.361766 H          1 MOL1         0.0755
      12    C5      19.657496   19.374747   20.615173 C.3        1 MOL1        -0.1855
      13    H8      19.009559   18.517182   20.386107 H          1 MOL1         0.0755
      14    H9      20.602607   19.208523   20.080659 H          1 MOL1         0.0755
      15    C6      18.998913   20.673048   20.080788 C.3        1 MOL1        -0.1958
      16    H10     19.621294   21.542241   20.325731 H          1 MOL1         0.0753
      17    H11     18.933412   20.627494   18.987349 H          1 MOL1         0.0753
      18    C7      17.589508   20.917731   20.612391 C.2        1 MOL1         0.6174
      19    O1      17.434734   21.773514   21.461304 O.co2      1 MOL1        -0.6695
      20    O2      16.681214   20.253737   20.152805 O.co2      1 MOL1        -0.6695
@<TRIPOS>BOND
    1     1     2    1
    2     1     3    1
    3     1     4    2
    4     4     5    1
    5     4     6    1
    6     6     7    1
    7     6     8    1
    8     6     9    1
    9     9    10    1
   10     9    11    1
   11     9    12    1
   12    12    13    1
   13    12    14    1
   14    12    15    1
   15    15    16    1
   16    15    17    1
   17    15    18    1
   18    18    19    1
   19    18    20    2
@<TRIPOS>SUBSTRUCTURE
       1 MOL1            1 RESIDUE      1      MOL     
@<SCITEGIC>MOL_PROPERTY
VConf Rank
SciTegic.value.IntegerValue
250

@<SCITEGIC>MOL_PROPERTY
Conf_Id
SciTegic.value.IntegerValue
81

@<SCITEGIC>MOL_PROPERTY
Delta U+W
SciTegic.value.DoubleValue
-0.051

@<SCITEGIC>MOL_PROPERTY
U+W
SciTegic.value.DoubleValue
-51.796

@<SCITEGIC>MOL_PROPERTY
Grad RMS
SciTegic.value.DoubleValue
0.000000

@<SCITEGIC>MOL_PROPERTY
U
SciTegic.value.DoubleValue
9.412

@<SCITEGIC>MOL_PROPERTY
W
SciTegic.value.DoubleValue
-61.209

@<SCITEGIC>MOL_PROPERTY
W(PB)
SciTegic.value.DoubleValue
-63.452

@<SCITEGIC>MOL_PROPERTY
W(SA)
SciTegic.value.DoubleValue
2.243

@<SCITEGIC>MOL_PROPERTY
Valence
SciTegic.value.DoubleValue
9.329

@<SCITEGIC>MOL_PROPERTY
Coulomb
SciTegic.value.DoubleValue
-0.323

@<SCITEGIC>MOL_PROPERTY
VdW
SciTegic.value.DoubleValue
0.406

@<SCITEGIC>MOL_PROPERTY
VdW6
SciTegic.value.DoubleValue
-6.640

@<SCITEGIC>MOL_PROPERTY
VdW12
SciTegic.value.DoubleValue
7.046

@<SCITEGIC>MOL_PROPERTY
Bond
SciTegic.value.DoubleValue
0.105

@<SCITEGIC>MOL_PROPERTY
Angle
SciTegic.value.DoubleValue
2.401

@<SCITEGIC>MOL_PROPERTY
Pdih
SciTegic.value.DoubleValue
6.823

@<SCITEGIC>MOL_PROPERTY
Idih
SciTegic.value.DoubleValue
0.000

@<SCITEGIC>MOL_PROPERTY
Tether
SciTegic.value.DoubleValue
0.000

@<TRIPOS>MOLECULE
guest-s22_confgen4.mol2 : confsearch ligand conformer 251
          20          19           1
SMALL
USER_CHARGES
 
@<TRIPOS>ATOM
       1    C1      17.440893   21.346855   22.758015 C.2        1 MOL1        -0.2535
       2    H1      17.881540   22.316200   22.530727 H          1 MOL1         0.0845
       3    H2      16.362391   21.307673   22.900989 H          1 MOL1         0.0845
       4    C2      18.190448   20.245798   22.855588 C.2        1 MOL1        -0.1324
       5    H3      17.729869   19.285652   23.086264 H          1 MOL1         0.0833
       6    C3      19.693297   20.224099   22.675310 C.3        1 MOL1        -0.1813
       7    H4      20.158892   19.622071   23.466332 H          1 MOL1         0.0753
       8    H5      20.095318   21.238982   22.796173 H          1 MOL1         0.0753
       9    C4      20.114248   19.691772   21.284578 C.3        1 MOL1        -0.1855
      10    H6      19.708657   20.359946   20.512649 H          1 MOL1         0.0755
      11    H7      21.207576   19.753094   21.196005 H          1 MOL1         0.0755
      12    C5      19.657373   18.241742   20.979997 C.3        1 MOL1        -0.1855
      13    H8      19.983032   17.976234   19.964796 H          1 MOL1         0.0755
      14    H9      18.560263   18.198217   20.967713 H          1 MOL1         0.0755
      15    C6      20.198853   17.175650   21.971176 C.3        1 MOL1        -0.1958
      16    H10     19.829547   17.367927   22.984923 H          1 MOL1         0.0753
      17    H11     19.819179   16.187956   21.684968 H          1 MOL1         0.0753
      18    C7      21.721318   17.082165   22.014836 C.2        1 MOL1         0.6174
      19    O1      22.296137   17.496440   23.002280 O.co2      1 MOL1        -0.6695
      20    O2      22.291399   16.580568   21.065695 O.co2      1 MOL1        -0.6695
@<TRIPOS>BOND
    1     1     2    1
    2     1     3    1
    3     1     4    2
    4     4     5    1
    5     4     6    1
    6     6     7    1
    7     6     8    1
    8     6     9    1
    9     9    10    1
   10     9    11    1
   11     9    12    1
   12    12    13    1
   13    12    14    1
   14    12    15    1
   15    15    16    1
   16    15    17    1
   17    15    18    1
   18    18    19    1
   19    18    20    2
@<TRIPOS>SUBSTRUCTURE
       1 MOL1            1 RESIDUE      1      MOL     
@<SCITEGIC>MOL_PROPERTY
VConf Rank
SciTegic.value.IntegerValue
251

@<SCITEGIC>MOL_PROPERTY
Conf_Id
SciTegic.value.IntegerValue
86

@<SCITEGIC>MOL_PROPERTY
Delta U+W
SciTegic.value.DoubleValue
1.248

@<SCITEGIC>MOL_PROPERTY
U+W
SciTegic.value.DoubleValue
-50.498

@<SCITEGIC>MOL_PROPERTY
Grad RMS
SciTegic.value.DoubleValue
0.000000

@<SCITEGIC>MOL_PROPERTY
U
SciTegic.value.DoubleValue
10.404

@<SCITEGIC>MOL_PROPERTY
W
SciTegic.value.DoubleValue
-60.901

@<SCITEGIC>MOL_PROPERTY
W(PB)
SciTegic.value.DoubleValue
-63.061

@<SCITEGIC>MOL_PROPERTY
W(SA)
SciTegic.value.DoubleValue
2.159

@<SCITEGIC>MOL_PROPERTY
Valence
SciTegic.value.DoubleValue
10.021

@<SCITEGIC>MOL_PROPERTY
Coulomb
SciTegic.value.DoubleValue
0.094

@<SCITEGIC>MOL_PROPERTY
VdW
SciTegic.value.DoubleValue
0.289

@<SCITEGIC>MOL_PROPERTY
VdW6
SciTegic.value.DoubleValue
-8.409

@<SCITEGIC>MOL_PROPERTY
VdW12
SciTegic.value.DoubleValue
8.698

@<SCITEGIC>MOL_PROPERTY
Bond
SciTegic.value.DoubleValue
0.179

@<SCITEGIC>MOL_PROPERTY
Angle
SciTegic.value.DoubleValue
2.939

@<SCITEGIC>MOL_PROPERTY
Pdih
SciTegic.value.DoubleValue
6.902

@<SCITEGIC>MOL_PROPERTY
Idih
SciTegic.value.DoubleValue
0.001

@<SCITEGIC>MOL_PROPERTY
Tether
SciTegic.value.DoubleValue
0.000

@<TRIPOS>MOLECULE
guest-s22_confgen4.mol2 : confsearch ligand conformer 252
          20          19           1
SMALL
USER_CHARGES
 
@<TRIPOS>ATOM
       1    C1      20.616007   17.468430   24.581690 C.2        1 MOL1        -0.2535
       2    H1      21.404644   16.792661   24.908022 H          1 MOL1         0.0845
       3    H2      20.470653   18.382885   25.154460 H          1 MOL1         0.0845
       4    C2      19.860588   17.184849   23.517289 C.2        1 MOL1        -0.1324
       5    H3      20.023866   16.265075   22.956269 H          1 MOL1         0.0833
       6    C3      18.747859   18.074001   23.004164 C.3        1 MOL1        -0.1813
       7    H4      18.517604   18.864439   23.731386 H          1 MOL1         0.0753
       8    H5      17.832760   17.476747   22.895988 H          1 MOL1         0.0753
       9    C4      19.089740   18.712953   21.639277 C.3        1 MOL1        -0.1855
      10    H6      19.323978   17.923227   20.912374 H          1 MOL1         0.0755
      11    H7      18.199000   19.232609   21.260396 H          1 MOL1         0.0755
      12    C5      20.268237   19.711554   21.726106 C.3        1 MOL1        -0.1855
      13    H8      21.161233   19.191815   22.098260 H          1 MOL1         0.0755
      14    H9      20.035167   20.499121   22.456015 H          1 MOL1         0.0755
      15    C6      20.602268   20.360570   20.357810 C.3        1 MOL1        -0.1958
      16    H10     21.515219   20.960494   20.450284 H          1 MOL1         0.0753
      17    H11     20.806583   19.584442   19.610376 H          1 MOL1         0.0753
      18    C7      19.506372   21.277244   19.821668 C.2        1 MOL1         0.6174
      19    O1      19.389220   22.380496   20.317891 O.co2      1 MOL1        -0.6695
      20    O2      18.806709   20.869545   18.915390 O.co2      1 MOL1        -0.6695
@<TRIPOS>BOND
    1     1     2    1
    2     1     3    1
    3     1     4    2
    4     4     5    1
    5     4     6    1
    6     6     7    1
    7     6     8    1
    8     6     9    1
    9     9    10    1
   10     9    11    1
   11     9    12    1
   12    12    13    1
   13    12    14    1
   14    12    15    1
   15    15    16    1
   16    15    17    1
   17    15    18    1
   18    18    19    1
   19    18    20    2
@<TRIPOS>SUBSTRUCTURE
       1 MOL1            1 RESIDUE      1      MOL     
@<SCITEGIC>MOL_PROPERTY
VConf Rank
SciTegic.value.IntegerValue
252

@<SCITEGIC>MOL_PROPERTY
Conf_Id
SciTegic.value.IntegerValue
28

@<SCITEGIC>MOL_PROPERTY
Delta U+W
SciTegic.value.DoubleValue
0.446

@<SCITEGIC>MOL_PROPERTY
U+W
SciTegic.value.DoubleValue
-51.299

@<SCITEGIC>MOL_PROPERTY
Grad RMS
SciTegic.value.DoubleValue
0.000000

@<SCITEGIC>MOL_PROPERTY
U
SciTegic.value.DoubleValue
9.295

@<SCITEGIC>MOL_PROPERTY
W
SciTegic.value.DoubleValue
-60.594

@<SCITEGIC>MOL_PROPERTY
W(PB)
SciTegic.value.DoubleValue
-62.806

@<SCITEGIC>MOL_PROPERTY
W(SA)
SciTegic.value.DoubleValue
2.212

@<SCITEGIC>MOL_PROPERTY
Valence
SciTegic.value.DoubleValue
9.495

@<SCITEGIC>MOL_PROPERTY
Coulomb
SciTegic.value.DoubleValue
-0.610

@<SCITEGIC>MOL_PROPERTY
VdW
SciTegic.value.DoubleValue
0.409

@<SCITEGIC>MOL_PROPERTY
VdW6
SciTegic.value.DoubleValue
-7.332

@<SCITEGIC>MOL_PROPERTY
VdW12
SciTegic.value.DoubleValue
7.741

@<SCITEGIC>MOL_PROPERTY
Bond
SciTegic.value.DoubleValue
0.126

@<SCITEGIC>MOL_PROPERTY
Angle
SciTegic.value.DoubleValue
2.497

@<SCITEGIC>MOL_PROPERTY
Pdih
SciTegic.value.DoubleValue
6.872

@<SCITEGIC>MOL_PROPERTY
Idih
SciTegic.value.DoubleValue
0.000

@<SCITEGIC>MOL_PROPERTY
Tether
SciTegic.value.DoubleValue
0.000

@<TRIPOS>MOLECULE
guest-s22_confgen4.mol2 : confsearch ligand conformer 253
          20          19           1
SMALL
USER_CHARGES
 
@<TRIPOS>ATOM
       1    C1      21.628602   21.761708   21.680422 C.2        1 MOL1        -0.2535
       2    H1      21.786814   21.431148   22.704724 H          1 MOL1         0.0845
       3    H2      22.289532   22.542787   21.308634 H          1 MOL1         0.0845
       4    C2      20.675572   21.243170   20.897589 C.2        1 MOL1        -0.1324
       5    H3      20.567229   21.613932   19.878600 H          1 MOL1         0.0833
       6    C3      19.682275   20.156094   21.273196 C.3        1 MOL1        -0.1813
       7    H4      19.846807   19.294104   20.613984 H          1 MOL1         0.0753
       8    H5      18.668574   20.514573   21.050357 H          1 MOL1         0.0753
       9    C4      19.741286   19.699981   22.752074 C.3        1 MOL1        -0.1855
      10    H6      20.724410   19.256977   22.962755 H          1 MOL1         0.0755
      11    H7      19.647216   20.580554   23.402025 H          1 MOL1         0.0755
      12    C5      18.625461   18.695765   23.133581 C.3        1 MOL1        -0.1855
      13    H8      17.645561   19.163380   22.967690 H          1 MOL1         0.0755
      14    H9      18.689029   18.490204   24.211130 H          1 MOL1         0.0755
      15    C6      18.682305   17.346721   22.365788 C.3        1 MOL1        -0.1958
      16    H10     17.852535   16.708939   22.691938 H          1 MOL1         0.0753
      17    H11     18.545392   17.506778   21.290365 H          1 MOL1         0.0753
      18    C7      19.971172   16.558972   22.582996 C.2        1 MOL1         0.6174
      19    O1      20.155359   16.051348   23.671961 O.co2      1 MOL1        -0.6695
      20    O2      20.746571   16.455608   21.652980 O.co2      1 MOL1        -0.6695
@<TRIPOS>BOND
    1     1     2    1
    2     1     3    1
    3     1     4    2
    4     4     5    1
    5     4     6    1
    6     6     7    1
    7     6     8    1
    8     6     9    1
    9     9    10    1
   10     9    11    1
   11     9    12    1
   12    12    13    1
   13    12    14    1
   14    12    15    1
   15    15    16    1
   16    15    17    1
   17    15    18    1
   18    18    19    1
   19    18    20    2
@<TRIPOS>SUBSTRUCTURE
       1 MOL1            1 RESIDUE      1      MOL     
@<SCITEGIC>MOL_PROPERTY
VConf Rank
SciTegic.value.IntegerValue
253

@<SCITEGIC>MOL_PROPERTY
Conf_Id
SciTegic.value.IntegerValue
53

@<SCITEGIC>MOL_PROPERTY
Delta U+W
SciTegic.value.DoubleValue
0.549

@<SCITEGIC>MOL_PROPERTY
U+W
SciTegic.value.DoubleValue
-51.197

@<SCITEGIC>MOL_PROPERTY
Grad RMS
SciTegic.value.DoubleValue
0.000000

@<SCITEGIC>MOL_PROPERTY
U
SciTegic.value.DoubleValue
10.870

@<SCITEGIC>MOL_PROPERTY
W
SciTegic.value.DoubleValue
-62.067

@<SCITEGIC>MOL_PROPERTY
W(PB)
SciTegic.value.DoubleValue
-64.228

@<SCITEGIC>MOL_PROPERTY
W(SA)
SciTegic.value.DoubleValue
2.161

@<SCITEGIC>MOL_PROPERTY
Valence
SciTegic.value.DoubleValue
8.803

@<SCITEGIC>MOL_PROPERTY
Coulomb
SciTegic.value.DoubleValue
1.020

@<SCITEGIC>MOL_PROPERTY
VdW
SciTegic.value.DoubleValue
1.048

@<SCITEGIC>MOL_PROPERTY
VdW6
SciTegic.value.DoubleValue
-8.312

@<SCITEGIC>MOL_PROPERTY
VdW12
SciTegic.value.DoubleValue
9.360

@<SCITEGIC>MOL_PROPERTY
Bond
SciTegic.value.DoubleValue
0.212

@<SCITEGIC>MOL_PROPERTY
Angle
SciTegic.value.DoubleValue
3.379

@<SCITEGIC>MOL_PROPERTY
Pdih
SciTegic.value.DoubleValue
5.211

@<SCITEGIC>MOL_PROPERTY
Idih
SciTegic.value.DoubleValue
0.001

@<SCITEGIC>MOL_PROPERTY
Tether
SciTegic.value.DoubleValue
0.000

@<TRIPOS>MOLECULE
guest-s22_confgen4.mol2 : confsearch ligand conformer 254
          20          19           1
SMALL
USER_CHARGES
 
@<TRIPOS>ATOM
       1    C1      19.387023   17.544128   19.605545 C.2        1 MOL1        -0.2535
       2    H1      20.444944   17.792691   19.557401 H          1 MOL1         0.0845
       3    H2      18.856557   17.455906   18.659106 H          1 MOL1         0.0845
       4    C2      18.754169   17.346585   20.767065 C.2        1 MOL1        -0.1324
       5    H3      17.693603   17.096705   20.759244 H          1 MOL1         0.0833
       6    C3      19.365683   17.442598   22.155129 C.3        1 MOL1        -0.1813
       7    H4      19.608695   16.430126   22.503335 H          1 MOL1         0.0753
       8    H5      18.603112   17.803583   22.857094 H          1 MOL1         0.0753
       9    C4      20.624220   18.340509   22.280083 C.3        1 MOL1        -0.1855
      10    H6      21.006670   18.265056   23.307155 H          1 MOL1         0.0755
      11    H7      21.421679   17.942507   21.639008 H          1 MOL1         0.0755
      12    C5      20.391847   19.836330   21.940409 C.3        1 MOL1        -0.1855
      13    H8      20.079114   19.932945   20.892831 H          1 MOL1         0.0755
      14    H9      21.349624   20.368268   22.022405 H          1 MOL1         0.0755
      15    C6      19.349106   20.548068   22.845085 C.3        1 MOL1        -0.1958
      16    H10     19.248727   21.593008   22.529507 H          1 MOL1         0.0753
      17    H11     18.359658   20.092419   22.725169 H          1 MOL1         0.0753
      18    C7      19.709625   20.553932   24.327791 C.2        1 MOL1         0.6174
      19    O1      19.067755   19.847227   25.079940 O.co2      1 MOL1        -0.6695
      20    O2      20.612755   21.280195   24.694408 O.co2      1 MOL1        -0.6695
@<TRIPOS>BOND
    1     1     2    1
    2     1     3    1
    3     1     4    2
    4     4     5    1
    5     4     6    1
    6     6     7    1
    7     6     8    1
    8     6     9    1
    9     9    10    1
   10     9    11    1
   11     9    12    1
   12    12    13    1
   13    12    14    1
   14    12    15    1
   15    15    16    1
   16    15    17    1
   17    15    18    1
   18    18    19    1
   19    18    20    2
@<TRIPOS>SUBSTRUCTURE
       1 MOL1            1 RESIDUE      1      MOL     
@<SCITEGIC>MOL_PROPERTY
VConf Rank
SciTegic.value.IntegerValue
254

@<SCITEGIC>MOL_PROPERTY
Conf_Id
SciTegic.value.IntegerValue
66

@<SCITEGIC>MOL_PROPERTY
Delta U+W
SciTegic.value.DoubleValue
1.737

@<SCITEGIC>MOL_PROPERTY
U+W
SciTegic.value.DoubleValue
-50.008

@<SCITEGIC>MOL_PROPERTY
Grad RMS
SciTegic.value.DoubleValue
0.000000

@<SCITEGIC>MOL_PROPERTY
U
SciTegic.value.DoubleValue
11.091

@<SCITEGIC>MOL_PROPERTY
W
SciTegic.value.DoubleValue
-61.099

@<SCITEGIC>MOL_PROPERTY
W(PB)
SciTegic.value.DoubleValue
-63.213

@<SCITEGIC>MOL_PROPERTY
W(SA)
SciTegic.value.DoubleValue
2.114

@<SCITEGIC>MOL_PROPERTY
Valence
SciTegic.value.DoubleValue
9.664

@<SCITEGIC>MOL_PROPERTY
Coulomb
SciTegic.value.DoubleValue
0.658

@<SCITEGIC>MOL_PROPERTY
VdW
SciTegic.value.DoubleValue
0.769

@<SCITEGIC>MOL_PROPERTY
VdW6
SciTegic.value.DoubleValue
-9.171

@<SCITEGIC>MOL_PROPERTY
VdW12
SciTegic.value.DoubleValue
9.940

@<SCITEGIC>MOL_PROPERTY
Bond
SciTegic.value.DoubleValue
0.244

@<SCITEGIC>MOL_PROPERTY
Angle
SciTegic.value.DoubleValue
3.658

@<SCITEGIC>MOL_PROPERTY
Pdih
SciTegic.value.DoubleValue
5.762

@<SCITEGIC>MOL_PROPERTY
Idih
SciTegic.value.DoubleValue
0.001

@<SCITEGIC>MOL_PROPERTY
Tether
SciTegic.value.DoubleValue
0.000

@<TRIPOS>MOLECULE
guest-s22_confgen4.mol2 : confsearch ligand conformer 255
          20          19           1
SMALL
USER_CHARGES
 
@<TRIPOS>ATOM
       1    C1      18.684396   19.858526   24.407574 C.2        1 MOL1        -0.2535
       2    H1      17.749519   19.658152   23.888886 H          1 MOL1         0.0845
       3    H2      18.714255   19.639603   25.473462 H          1 MOL1         0.0845
       4    C2      19.755565   20.356429   23.780222 C.2        1 MOL1        -0.1324
       5    H3      20.666366   20.540394   24.349379 H          1 MOL1         0.0833
       6    C3      19.859424   20.702569   22.303741 C.3        1 MOL1        -0.1813
       7    H4      20.880651   20.494268   21.961167 H          1 MOL1         0.0753
       8    H5      19.741477   21.788223   22.189607 H          1 MOL1         0.0753
       9    C4      18.856598   19.980961   21.365690 C.3        1 MOL1        -0.1855
      10    H6      17.830864   20.231390   21.666769 H          1 MOL1         0.0755
      11    H7      18.973364   20.382902   20.350093 H          1 MOL1         0.0755
      12    C5      19.014625   18.439951   21.310762 C.3        1 MOL1        -0.1855
      13    H8      18.207386   18.027566   20.689888 H          1 MOL1         0.0755
      14    H9      18.882732   18.008673   22.311862 H          1 MOL1         0.0755
      15    C6      20.375162   17.976787   20.728237 C.3        1 MOL1        -0.1958
      16    H10     20.545631   18.439358   19.748891 H          1 MOL1         0.0753
      17    H11     21.198480   18.284309   21.382776 H          1 MOL1         0.0753
      18    C7      20.458770   16.464252   20.556496 C.2        1 MOL1         0.6174
      19    O1      20.907566   15.805226   21.473567 O.co2      1 MOL1        -0.6695
      20    O2      20.059265   15.982841   19.514588 O.co2      1 MOL1        -0.6695
@<TRIPOS>BOND
    1     1     2    1
    2     1     3    1
    3     1     4    2
    4     4     5    1
    5     4     6    1
    6     6     7    1
    7     6     8    1
    8     6     9    1
    9     9    10    1
   10     9    11    1
   11     9    12    1
   12    12    13    1
   13    12    14    1
   14    12    15    1
   15    15    16    1
   16    15    17    1
   17    15    18    1
   18    18    19    1
   19    18    20    2
@<TRIPOS>SUBSTRUCTURE
       1 MOL1            1 RESIDUE      1      MOL     
@<SCITEGIC>MOL_PROPERTY
VConf Rank
SciTegic.value.IntegerValue
255

@<SCITEGIC>MOL_PROPERTY
Conf_Id
SciTegic.value.IntegerValue
64

@<SCITEGIC>MOL_PROPERTY
Delta U+W
SciTegic.value.DoubleValue
0.366

@<SCITEGIC>MOL_PROPERTY
U+W
SciTegic.value.DoubleValue
-51.379

@<SCITEGIC>MOL_PROPERTY
Grad RMS
SciTegic.value.DoubleValue
0.000000

@<SCITEGIC>MOL_PROPERTY
U
SciTegic.value.DoubleValue
10.000

@<SCITEGIC>MOL_PROPERTY
W
SciTegic.value.DoubleValue
-61.379

@<SCITEGIC>MOL_PROPERTY
W(PB)
SciTegic.value.DoubleValue
-63.541

@<SCITEGIC>MOL_PROPERTY
W(SA)
SciTegic.value.DoubleValue
2.162

@<SCITEGIC>MOL_PROPERTY
Valence
SciTegic.value.DoubleValue
9.398

@<SCITEGIC>MOL_PROPERTY
Coulomb
SciTegic.value.DoubleValue
-0.504

@<SCITEGIC>MOL_PROPERTY
VdW
SciTegic.value.DoubleValue
1.105

@<SCITEGIC>MOL_PROPERTY
VdW6
SciTegic.value.DoubleValue
-7.975

@<SCITEGIC>MOL_PROPERTY
VdW12
SciTegic.value.DoubleValue
9.080

@<SCITEGIC>MOL_PROPERTY
Bond
SciTegic.value.DoubleValue
0.216

@<SCITEGIC>MOL_PROPERTY
Angle
SciTegic.value.DoubleValue
3.417

@<SCITEGIC>MOL_PROPERTY
Pdih
SciTegic.value.DoubleValue
5.765

@<SCITEGIC>MOL_PROPERTY
Idih
SciTegic.value.DoubleValue
0.001

@<SCITEGIC>MOL_PROPERTY
Tether
SciTegic.value.DoubleValue
0.000

@<TRIPOS>MOLECULE
guest-s22_confgen4.mol2 : confsearch ligand conformer 256
          20          19           1
SMALL
USER_CHARGES
 
@<TRIPOS>ATOM
       1    C1      18.535321   16.930143   20.492586 C.2        1 MOL1        -0.2535
       2    H1      19.020341   17.304114   19.592409 H          1 MOL1         0.0845
       3    H2      17.498969   16.608144   20.406589 H          1 MOL1         0.0845
       4    C2      19.181947   16.870967   21.659799 C.2        1 MOL1        -0.1324
       5    H3      18.677354   16.495614   22.549680 H          1 MOL1         0.0833
       6    C3      20.620250   17.300469   21.856755 C.3        1 MOL1        -0.1813
       7    H4      21.109778   17.468372   20.887814 H          1 MOL1         0.0753
       8    H5      21.173396   16.487981   22.346385 H          1 MOL1         0.0753
       9    C4      20.737677   18.575503   22.721880 C.3        1 MOL1        -0.1855
      10    H6      20.247445   18.407691   23.690691 H          1 MOL1         0.0755
      11    H7      21.798983   18.763212   22.934665 H          1 MOL1         0.0755
      12    C5      20.129307   19.819916   22.035656 C.3        1 MOL1        -0.1855
      13    H8      19.060508   19.654994   21.841496 H          1 MOL1         0.0755
      14    H9      20.609091   19.975848   21.059550 H          1 MOL1         0.0755
      15    C6      20.298034   21.094387   22.898949 C.3        1 MOL1        -0.1958
      16    H10     19.812840   20.958447   23.872959 H          1 MOL1         0.0753
      17    H11     21.360952   21.285048   23.089581 H          1 MOL1         0.0753
      18    C7      19.705072   22.336275   22.243049 C.2        1 MOL1         0.6174
      19    O1      20.412530   22.983889   21.496827 O.co2      1 MOL1        -0.6695
      20    O2      18.547331   22.615599   22.484514 O.co2      1 MOL1        -0.6695
@<TRIPOS>BOND
    1     1     2    1
    2     1     3    1
    3     1     4    2
    4     4     5    1
    5     4     6    1
    6     6     7    1
    7     6     8    1
    8     6     9    1
    9     9    10    1
   10     9    11    1
   11     9    12    1
   12    12    13    1
   13    12    14    1
   14    12    15    1
   15    15    16    1
   16    15    17    1
   17    15    18    1
   18    18    19    1
   19    18    20    2
@<TRIPOS>SUBSTRUCTURE
       1 MOL1            1 RESIDUE      1      MOL     
@<SCITEGIC>MOL_PROPERTY
VConf Rank
SciTegic.value.IntegerValue
256

@<SCITEGIC>MOL_PROPERTY
Conf_Id
SciTegic.value.IntegerValue
42

@<SCITEGIC>MOL_PROPERTY
Delta U+W
SciTegic.value.DoubleValue
-0.601

@<SCITEGIC>MOL_PROPERTY
U+W
SciTegic.value.DoubleValue
-52.347

@<SCITEGIC>MOL_PROPERTY
Grad RMS
SciTegic.value.DoubleValue
0.000000

@<SCITEGIC>MOL_PROPERTY
U
SciTegic.value.DoubleValue
8.428

@<SCITEGIC>MOL_PROPERTY
W
SciTegic.value.DoubleValue
-60.774

@<SCITEGIC>MOL_PROPERTY
W(PB)
SciTegic.value.DoubleValue
-62.982

@<SCITEGIC>MOL_PROPERTY
W(SA)
SciTegic.value.DoubleValue
2.208

@<SCITEGIC>MOL_PROPERTY
Valence
SciTegic.value.DoubleValue
9.231

@<SCITEGIC>MOL_PROPERTY
Coulomb
SciTegic.value.DoubleValue
-1.304

@<SCITEGIC>MOL_PROPERTY
VdW
SciTegic.value.DoubleValue
0.501

@<SCITEGIC>MOL_PROPERTY
VdW6
SciTegic.value.DoubleValue
-6.515

@<SCITEGIC>MOL_PROPERTY
VdW12
SciTegic.value.DoubleValue
7.016

@<SCITEGIC>MOL_PROPERTY
Bond
SciTegic.value.DoubleValue
0.103

@<SCITEGIC>MOL_PROPERTY
Angle
SciTegic.value.DoubleValue
2.328

@<SCITEGIC>MOL_PROPERTY
Pdih
SciTegic.value.DoubleValue
6.799

@<SCITEGIC>MOL_PROPERTY
Idih
SciTegic.value.DoubleValue
0.000

@<SCITEGIC>MOL_PROPERTY
Tether
SciTegic.value.DoubleValue
0.000

@<TRIPOS>MOLECULE
guest-s22_confgen4.mol2 : confsearch ligand conformer 257
          20          19           1
SMALL
USER_CHARGES
 
@<TRIPOS>ATOM
       1    C1      16.717007   19.553074   22.568688 C.2        1 MOL1        -0.2535
       2    H1      16.812128   20.570042   22.945679 H          1 MOL1         0.0845
       3    H2      15.980936   18.908447   23.045920 H          1 MOL1         0.0845
       4    C2      17.474865   19.108543   21.562672 C.2        1 MOL1        -0.1324
       5    H3      17.365920   18.086026   21.202122 H          1 MOL1         0.0833
       6    C3      18.518358   19.943892   20.851885 C.3        1 MOL1        -0.1813
       7    H4      18.428297   21.000647   21.137835 H          1 MOL1         0.0753
       8    H5      18.337494   19.899380   19.769703 H          1 MOL1         0.0753
       9    C4      19.955354   19.452423   21.137299 C.3        1 MOL1        -0.1855
      10    H6      20.045065   18.397233   20.844273 H          1 MOL1         0.0755
      11    H7      20.655438   20.013626   20.503522 H          1 MOL1         0.0755
      12    C5      20.361565   19.624853   22.620043 C.3        1 MOL1        -0.1855
      13    H8      19.694361   19.034418   23.263145 H          1 MOL1         0.0755
      14    H9      20.230804   20.675781   22.911046 H          1 MOL1         0.0755
      15    C6      21.830492   19.206235   22.888059 C.3        1 MOL1        -0.1958
      16    H10     22.510175   19.769214   22.237050 H          1 MOL1         0.0753
      17    H11     22.100030   19.456698   23.920826 H          1 MOL1         0.0753
      18    C7      22.094997   17.715718   22.695160 C.2        1 MOL1         0.6174
      19    O1      22.660418   17.357819   21.680580 O.co2      1 MOL1        -0.6695
      20    O2      21.744267   16.953483   23.574410 O.co2      1 MOL1        -0.6695
@<TRIPOS>BOND
    1     1     2    1
    2     1     3    1
    3     1     4    2
    4     4     5    1
    5     4     6    1
    6     6     7    1
    7     6     8    1
    8     6     9    1
    9     9    10    1
   10     9    11    1
   11     9    12    1
   12    12    13    1
   13    12    14    1
   14    12    15    1
   15    15    16    1
   16    15    17    1
   17    15    18    1
   18    18    19    1
   19    18    20    2
@<TRIPOS>SUBSTRUCTURE
       1 MOL1            1 RESIDUE      1      MOL     
@<SCITEGIC>MOL_PROPERTY
VConf Rank
SciTegic.value.IntegerValue
257

@<SCITEGIC>MOL_PROPERTY
Conf_Id
SciTegic.value.IntegerValue
68

@<SCITEGIC>MOL_PROPERTY
Delta U+W
SciTegic.value.DoubleValue
0.492

@<SCITEGIC>MOL_PROPERTY
U+W
SciTegic.value.DoubleValue
-51.253

@<SCITEGIC>MOL_PROPERTY
Grad RMS
SciTegic.value.DoubleValue
0.000000

@<SCITEGIC>MOL_PROPERTY
U
SciTegic.value.DoubleValue
10.179

@<SCITEGIC>MOL_PROPERTY
W
SciTegic.value.DoubleValue
-61.432

@<SCITEGIC>MOL_PROPERTY
W(PB)
SciTegic.value.DoubleValue
-63.627

@<SCITEGIC>MOL_PROPERTY
W(SA)
SciTegic.value.DoubleValue
2.195

@<SCITEGIC>MOL_PROPERTY
Valence
SciTegic.value.DoubleValue
9.483

@<SCITEGIC>MOL_PROPERTY
Coulomb
SciTegic.value.DoubleValue
0.361

@<SCITEGIC>MOL_PROPERTY
VdW
SciTegic.value.DoubleValue
0.335

@<SCITEGIC>MOL_PROPERTY
VdW6
SciTegic.value.DoubleValue
-7.385

@<SCITEGIC>MOL_PROPERTY
VdW12
SciTegic.value.DoubleValue
7.720

@<SCITEGIC>MOL_PROPERTY
Bond
SciTegic.value.DoubleValue
0.125

@<SCITEGIC>MOL_PROPERTY
Angle
SciTegic.value.DoubleValue
2.487

@<SCITEGIC>MOL_PROPERTY
Pdih
SciTegic.value.DoubleValue
6.870

@<SCITEGIC>MOL_PROPERTY
Idih
SciTegic.value.DoubleValue
0.001

@<SCITEGIC>MOL_PROPERTY
Tether
SciTegic.value.DoubleValue
0.000

@<TRIPOS>MOLECULE
guest-s22_confgen4.mol2 : confsearch ligand conformer 258
          20          19           1
SMALL
USER_CHARGES
 
@<TRIPOS>ATOM
       1    C1      18.677695   16.412913   23.195080 C.2        1 MOL1        -0.2535
       2    H1      19.494201   16.114497   23.850638 H          1 MOL1         0.0845
       3    H2      18.133574   15.622630   22.680723 H          1 MOL1         0.0845
       4    C2      18.355283   17.697505   23.023119 C.2        1 MOL1        -0.1324
       5    H3      17.532602   17.974032   22.364352 H          1 MOL1         0.0833
       6    C3      19.061882   18.847752   23.708268 C.3        1 MOL1        -0.1813
       7    H4      19.612448   18.476104   24.583067 H          1 MOL1         0.0753
       8    H5      18.323947   19.565021   24.091640 H          1 MOL1         0.0753
       9    C4      20.053922   19.571194   22.769828 C.3        1 MOL1        -0.1855
      10    H6      20.625449   20.303994   23.355581 H          1 MOL1         0.0755
      11    H7      20.781732   18.845276   22.381323 H          1 MOL1         0.0755
      12    C5      19.352564   20.295445   21.596250 C.3        1 MOL1        -0.1855
      13    H8      18.593589   20.981637   21.995510 H          1 MOL1         0.0755
      14    H9      18.822124   19.567238   20.967629 H          1 MOL1         0.0755
      15    C6      20.344131   21.099204   20.715557 C.3        1 MOL1        -0.1958
      16    H10     19.785571   21.682855   19.974363 H          1 MOL1         0.0753
      17    H11     20.901627   21.816592   21.329818 H          1 MOL1         0.0753
      18    C7      21.342190   20.230468   19.955284 C.2        1 MOL1         0.6174
      19    O1      20.955376   19.653667   18.957897 O.co2      1 MOL1        -0.6695
      20    O2      22.483566   20.168766   20.368293 O.co2      1 MOL1        -0.6695
@<TRIPOS>BOND
    1     1     2    1
    2     1     3    1
    3     1     4    2
    4     4     5    1
    5     4     6    1
    6     6     7    1
    7     6     8    1
    8     6     9    1
    9     9    10    1
   10     9    11    1
   11     9    12    1
   12    12    13    1
   13    12    14    1
   14    12    15    1
   15    15    16    1
   16    15    17    1
   17    15    18    1
   18    18    19    1
   19    18    20    2
@<TRIPOS>SUBSTRUCTURE
       1 MOL1            1 RESIDUE      1      MOL     
@<SCITEGIC>MOL_PROPERTY
VConf Rank
SciTegic.value.IntegerValue
258

@<SCITEGIC>MOL_PROPERTY
Conf_Id
SciTegic.value.IntegerValue
87

@<SCITEGIC>MOL_PROPERTY
Delta U+W
SciTegic.value.DoubleValue
0.339

@<SCITEGIC>MOL_PROPERTY
U+W
SciTegic.value.DoubleValue
-51.407

@<SCITEGIC>MOL_PROPERTY
Grad RMS
SciTegic.value.DoubleValue
0.000000

@<SCITEGIC>MOL_PROPERTY
U
SciTegic.value.DoubleValue
10.461

@<SCITEGIC>MOL_PROPERTY
W
SciTegic.value.DoubleValue
-61.867

@<SCITEGIC>MOL_PROPERTY
W(PB)
SciTegic.value.DoubleValue
-64.045

@<SCITEGIC>MOL_PROPERTY
W(SA)
SciTegic.value.DoubleValue
2.178

@<SCITEGIC>MOL_PROPERTY
Valence
SciTegic.value.DoubleValue
9.555

@<SCITEGIC>MOL_PROPERTY
Coulomb
SciTegic.value.DoubleValue
0.483

@<SCITEGIC>MOL_PROPERTY
VdW
SciTegic.value.DoubleValue
0.423

@<SCITEGIC>MOL_PROPERTY
VdW6
SciTegic.value.DoubleValue
-7.223

@<SCITEGIC>MOL_PROPERTY
VdW12
SciTegic.value.DoubleValue
7.646

@<SCITEGIC>MOL_PROPERTY
Bond
SciTegic.value.DoubleValue
0.126

@<SCITEGIC>MOL_PROPERTY
Angle
SciTegic.value.DoubleValue
2.492

@<SCITEGIC>MOL_PROPERTY
Pdih
SciTegic.value.DoubleValue
6.936

@<SCITEGIC>MOL_PROPERTY
Idih
SciTegic.value.DoubleValue
0.001

@<SCITEGIC>MOL_PROPERTY
Tether
SciTegic.value.DoubleValue
0.000

@<TRIPOS>MOLECULE
guest-s22_confgen4.mol2 : confsearch ligand conformer 259
          20          19           1
SMALL
USER_CHARGES
 
@<TRIPOS>ATOM
       1    C1      19.390475   21.514018   23.089174 C.2        1 MOL1        -0.2535
       2    H1      18.552737   21.420397   23.778265 H          1 MOL1         0.0845
       3    H2      20.217484   22.155614   23.388222 H          1 MOL1         0.0845
       4    C2      19.406178   20.865381   21.921811 C.2        1 MOL1        -0.1324
       5    H3      20.249486   20.978916   21.241568 H          1 MOL1         0.0833
       6    C3      18.286941   19.968618   21.437319 C.3        1 MOL1        -0.1813
       7    H4      18.351514   19.833562   20.349419 H          1 MOL1         0.0753
       8    H5      17.330554   20.477651   21.617918 H          1 MOL1         0.0753
       9    C4      18.249269   18.589517   22.141470 C.3        1 MOL1        -0.1855
      10    H6      18.373369   18.717623   23.225500 H          1 MOL1         0.0755
      11    H7      17.245023   18.166914   22.001353 H          1 MOL1         0.0755
      12    C5      19.272577   17.555885   21.607106 C.3        1 MOL1        -0.1855
      13    H8      19.154764   17.440779   20.520869 H          1 MOL1         0.0755
      14    H9      19.035443   16.577344   22.047238 H          1 MOL1         0.0755
      15    C6      20.749586   17.893271   21.935555 C.3        1 MOL1        -0.1958
      16    H10     21.070056   18.787721   21.392105 H          1 MOL1         0.0753
      17    H11     20.862344   18.102394   23.006012 H          1 MOL1         0.0753
      18    C7      21.707771   16.765865   21.568858 C.2        1 MOL1         0.6174
      19    O1      22.167494   16.746082   20.444068 O.co2      1 MOL1        -0.6695
      20    O2      21.953290   15.924759   22.410965 O.co2      1 MOL1        -0.6695
@<TRIPOS>BOND
    1     1     2    1
    2     1     3    1
    3     1     4    2
    4     4     5    1
    5     4     6    1
    6     6     7    1
    7     6     8    1
    8     6     9    1
    9     9    10    1
   10     9    11    1
   11     9    12    1
   12    12    13    1
   13    12    14    1
   14    12    15    1
   15    15    16    1
   16    15    17    1
   17    15    18    1
   18    18    19    1
   19    18    20    2
@<TRIPOS>SUBSTRUCTURE
       1 MOL1            1 RESIDUE      1      MOL     
@<SCITEGIC>MOL_PROPERTY
VConf Rank
SciTegic.value.IntegerValue
259

@<SCITEGIC>MOL_PROPERTY
Conf_Id
SciTegic.value.IntegerValue
51

@<SCITEGIC>MOL_PROPERTY
Delta U+W
SciTegic.value.DoubleValue
1.709

@<SCITEGIC>MOL_PROPERTY
U+W
SciTegic.value.DoubleValue
-50.036

@<SCITEGIC>MOL_PROPERTY
Grad RMS
SciTegic.value.DoubleValue
0.000000

@<SCITEGIC>MOL_PROPERTY
U
SciTegic.value.DoubleValue
10.643

@<SCITEGIC>MOL_PROPERTY
W
SciTegic.value.DoubleValue
-60.679

@<SCITEGIC>MOL_PROPERTY
W(PB)
SciTegic.value.DoubleValue
-62.882

@<SCITEGIC>MOL_PROPERTY
W(SA)
SciTegic.value.DoubleValue
2.203

@<SCITEGIC>MOL_PROPERTY
Valence
SciTegic.value.DoubleValue
11.231

@<SCITEGIC>MOL_PROPERTY
Coulomb
SciTegic.value.DoubleValue
-1.077

@<SCITEGIC>MOL_PROPERTY
VdW
SciTegic.value.DoubleValue
0.489

@<SCITEGIC>MOL_PROPERTY
VdW6
SciTegic.value.DoubleValue
-7.546

@<SCITEGIC>MOL_PROPERTY
VdW12
SciTegic.value.DoubleValue
8.035

@<SCITEGIC>MOL_PROPERTY
Bond
SciTegic.value.DoubleValue
0.159

@<SCITEGIC>MOL_PROPERTY
Angle
SciTegic.value.DoubleValue
3.005

@<SCITEGIC>MOL_PROPERTY
Pdih
SciTegic.value.DoubleValue
8.065

@<SCITEGIC>MOL_PROPERTY
Idih
SciTegic.value.DoubleValue
0.002

@<SCITEGIC>MOL_PROPERTY
Tether
SciTegic.value.DoubleValue
0.000

@<TRIPOS>MOLECULE
guest-s22_confgen4.mol2 : confsearch ligand conformer 260
          20          19           1
SMALL
USER_CHARGES
 
@<TRIPOS>ATOM
       1    C1      18.337923   19.762803   19.513546 C.2        1 MOL1        -0.2535
       2    H1      17.298213   19.898783   19.806684 H          1 MOL1         0.0845
       3    H2      18.530881   19.315651   18.539974 H          1 MOL1         0.0845
       4    C2      19.340199   20.127531   20.317368 C.2        1 MOL1        -0.1324
       5    H3      20.374210   19.991628   20.002494 H          1 MOL1         0.0833
       6    C3      19.145348   20.765429   21.676309 C.3        1 MOL1        -0.1813
       7    H4      18.378674   21.546861   21.586965 H          1 MOL1         0.0753
       8    H5      20.062372   21.282444   21.988874 H          1 MOL1         0.0753
       9    C4      18.700920   19.765129   22.772236 C.3        1 MOL1        -0.1855
      10    H6      18.254326   20.341738   23.593705 H          1 MOL1         0.0755
      11    H7      17.900103   19.118454   22.388266 H          1 MOL1         0.0755
      12    C5      19.841200   18.902505   23.369519 C.3        1 MOL1        -0.1855
      13    H8      19.447418   18.370960   24.246950 H          1 MOL1         0.0755
      14    H9      20.646334   19.551975   23.739636 H          1 MOL1         0.0755
      15    C6      20.428953   17.855826   22.388561 C.3        1 MOL1        -0.1958
      16    H10     19.623906   17.261452   21.940296 H          1 MOL1         0.0753
      17    H11     20.963287   18.351307   21.571818 H          1 MOL1         0.0753
      18    C7      21.406130   16.899409   23.062365 C.2        1 MOL1         0.6174
      19    O1      22.577692   17.218138   23.114731 O.co2      1 MOL1        -0.6695
      20    O2      20.967153   15.869755   23.535645 O.co2      1 MOL1        -0.6695
@<TRIPOS>BOND
    1     1     2    1
    2     1     3    1
    3     1     4    2
    4     4     5    1
    5     4     6    1
    6     6     7    1
    7     6     8    1
    8     6     9    1
    9     9    10    1
   10     9    11    1
   11     9    12    1
   12    12    13    1
   13    12    14    1
   14    12    15    1
   15    15    16    1
   16    15    17    1
   17    15    18    1
   18    18    19    1
   19    18    20    2
@<TRIPOS>SUBSTRUCTURE
       1 MOL1            1 RESIDUE      1      MOL     
@<SCITEGIC>MOL_PROPERTY
VConf Rank
SciTegic.value.IntegerValue
260

@<SCITEGIC>MOL_PROPERTY
Conf_Id
SciTegic.value.IntegerValue
91

@<SCITEGIC>MOL_PROPERTY
Delta U+W
SciTegic.value.DoubleValue
1.604

@<SCITEGIC>MOL_PROPERTY
U+W
SciTegic.value.DoubleValue
-50.141

@<SCITEGIC>MOL_PROPERTY
Grad RMS
SciTegic.value.DoubleValue
0.000000

@<SCITEGIC>MOL_PROPERTY
U
SciTegic.value.DoubleValue
10.644

@<SCITEGIC>MOL_PROPERTY
W
SciTegic.value.DoubleValue
-60.786

@<SCITEGIC>MOL_PROPERTY
W(PB)
SciTegic.value.DoubleValue
-62.965

@<SCITEGIC>MOL_PROPERTY
W(SA)
SciTegic.value.DoubleValue
2.179

@<SCITEGIC>MOL_PROPERTY
Valence
SciTegic.value.DoubleValue
11.230

@<SCITEGIC>MOL_PROPERTY
Coulomb
SciTegic.value.DoubleValue
-1.075

@<SCITEGIC>MOL_PROPERTY
VdW
SciTegic.value.DoubleValue
0.489

@<SCITEGIC>MOL_PROPERTY
VdW6
SciTegic.value.DoubleValue
-7.547

@<SCITEGIC>MOL_PROPERTY
VdW12
SciTegic.value.DoubleValue
8.036

@<SCITEGIC>MOL_PROPERTY
Bond
SciTegic.value.DoubleValue
0.159

@<SCITEGIC>MOL_PROPERTY
Angle
SciTegic.value.DoubleValue
3.006

@<SCITEGIC>MOL_PROPERTY
Pdih
SciTegic.value.DoubleValue
8.064

@<SCITEGIC>MOL_PROPERTY
Idih
SciTegic.value.DoubleValue
0.002

@<SCITEGIC>MOL_PROPERTY
Tether
SciTegic.value.DoubleValue
0.000

@<TRIPOS>MOLECULE
guest-s22_confgen4.mol2 : confsearch ligand conformer 261
          20          19           1
SMALL
USER_CHARGES
 
@<TRIPOS>ATOM
       1    C1      17.285134   19.989595   24.396351 C.2        1 MOL1        -0.2535
       2    H1      17.764758   19.305094   25.094211 H          1 MOL1         0.0845
       3    H2      16.257815   20.281743   24.607399 H          1 MOL1         0.0845
       4    C2      17.927365   20.453051   23.320990 C.2        1 MOL1        -0.1324
       5    H3      17.428806   21.136936   22.634406 H          1 MOL1         0.0833
       6    C3      19.352372   20.093041   22.964076 C.3        1 MOL1        -0.1813
       7    H4      19.853121   19.625767   23.822977 H          1 MOL1         0.0753
       8    H5      19.914547   21.006869   22.729508 H          1 MOL1         0.0753
       9    C4      19.398799   19.132632   21.757290 C.3        1 MOL1        -0.1855
      10    H6      18.831597   18.222197   21.995566 H          1 MOL1         0.0755
      11    H7      18.901904   19.602253   20.897224 H          1 MOL1         0.0755
      12    C5      20.847742   18.756762   21.377288 C.3        1 MOL1        -0.1855
      13    H8      21.345243   18.286537   22.236895 H          1 MOL1         0.0755
      14    H9      21.415861   19.666980   21.140080 H          1 MOL1         0.0755
      15    C6      20.893951   17.790250   20.163980 C.3        1 MOL1        -0.1958
      16    H10     20.334145   16.876694   20.396245 H          1 MOL1         0.0753
      17    H11     20.404706   18.255729   19.300338 H          1 MOL1         0.0753
      18    C7      22.295012   17.366229   19.720640 C.2        1 MOL1         0.6174
      19    O1      22.371519   16.610520   18.772385 O.co2      1 MOL1        -0.6695
      20    O2      23.268677   17.787062   20.315218 O.co2      1 MOL1        -0.6695
@<TRIPOS>BOND
    1     1     2    1
    2     1     3    1
    3     1     4    2
    4     4     5    1
    5     4     6    1
    6     6     7    1
    7     6     8    1
    8     6     9    1
    9     9    10    1
   10     9    11    1
   11     9    12    1
   12    12    13    1
   13    12    14    1
   14    12    15    1
   15    15    16    1
   16    15    17    1
   17    15    18    1
   18    18    19    1
   19    18    20    2
@<TRIPOS>SUBSTRUCTURE
       1 MOL1            1 RESIDUE      1      MOL     
@<SCITEGIC>MOL_PROPERTY
VConf Rank
SciTegic.value.IntegerValue
261

@<SCITEGIC>MOL_PROPERTY
Conf_Id
SciTegic.value.IntegerValue
33

@<SCITEGIC>MOL_PROPERTY
Delta U+W
SciTegic.value.DoubleValue
0.000

@<SCITEGIC>MOL_PROPERTY
U+W
SciTegic.value.DoubleValue
-51.745

@<SCITEGIC>MOL_PROPERTY
Grad RMS
SciTegic.value.DoubleValue
0.000000

@<SCITEGIC>MOL_PROPERTY
U
SciTegic.value.DoubleValue
7.593

@<SCITEGIC>MOL_PROPERTY
W
SciTegic.value.DoubleValue
-59.338

@<SCITEGIC>MOL_PROPERTY
W(PB)
SciTegic.value.DoubleValue
-61.574

@<SCITEGIC>MOL_PROPERTY
W(SA)
SciTegic.value.DoubleValue
2.236

@<SCITEGIC>MOL_PROPERTY
Valence
SciTegic.value.DoubleValue
9.570

@<SCITEGIC>MOL_PROPERTY
Coulomb
SciTegic.value.DoubleValue
-3.091

@<SCITEGIC>MOL_PROPERTY
VdW
SciTegic.value.DoubleValue
1.114

@<SCITEGIC>MOL_PROPERTY
VdW6
SciTegic.value.DoubleValue
-6.064

@<SCITEGIC>MOL_PROPERTY
VdW12
SciTegic.value.DoubleValue
7.178

@<SCITEGIC>MOL_PROPERTY
Bond
SciTegic.value.DoubleValue
0.117

@<SCITEGIC>MOL_PROPERTY
Angle
SciTegic.value.DoubleValue
2.692

@<SCITEGIC>MOL_PROPERTY
Pdih
SciTegic.value.DoubleValue
6.761

@<SCITEGIC>MOL_PROPERTY
Idih
SciTegic.value.DoubleValue
0.000

@<SCITEGIC>MOL_PROPERTY
Tether
SciTegic.value.DoubleValue
0.000

@<TRIPOS>MOLECULE
guest-s22_confgen4.mol2 : confsearch ligand conformer 262
          20          19           1
SMALL
USER_CHARGES
 
@<TRIPOS>ATOM
       1    C1      22.572605   17.466979   23.457141 C.2        1 MOL1        -0.2535
       2    H1      22.008043   17.369888   24.383111 H          1 MOL1         0.0845
       3    H2      23.639421   17.253339   23.496127 H          1 MOL1         0.0845
       4    C2      21.983885   17.835867   22.316525 C.2        1 MOL1        -0.1324
       5    H3      22.567310   17.927949   21.400683 H          1 MOL1         0.0833
       6    C3      20.509638   18.147537   22.185454 C.3        1 MOL1        -0.1813
       7    H4      19.965325   17.786567   23.068642 H          1 MOL1         0.0753
       8    H5      20.103484   17.608776   21.320106 H          1 MOL1         0.0753
       9    C4      20.276068   19.666300   22.022322 C.3        1 MOL1        -0.1855
      10    H6      20.764178   20.190476   22.855586 H          1 MOL1         0.0755
      11    H7      20.766074   20.019141   21.104504 H          1 MOL1         0.0755
      12    C5      18.780335   20.061807   21.999113 C.3        1 MOL1        -0.1855
      13    H8      18.705966   21.158142   21.995416 H          1 MOL1         0.0755
      14    H9      18.291787   19.721201   22.922531 H          1 MOL1         0.0755
      15    C6      18.012240   19.506496   20.771663 C.3        1 MOL1        -0.1958
      16    H10     18.515099   19.804407   19.843888 H          1 MOL1         0.0753
      17    H11     17.989674   18.411148   20.792782 H          1 MOL1         0.0753
      18    C7      16.570763   19.998367   20.707045 C.2        1 MOL1         0.6174
      19    O1      15.716626   19.348552   21.277045 O.co2      1 MOL1        -0.6695
      20    O2      16.342844   21.029109   20.105083 O.co2      1 MOL1        -0.6695
@<TRIPOS>BOND
    1     1     2    1
    2     1     3    1
    3     1     4    2
    4     4     5    1
    5     4     6    1
    6     6     7    1
    7     6     8    1
    8     6     9    1
    9     9    10    1
   10     9    11    1
   11     9    12    1
   12    12    13    1
   13    12    14    1
   14    12    15    1
   15    15    16    1
   16    15    17    1
   17    15    18    1
   18    18    19    1
   19    18    20    2
@<TRIPOS>SUBSTRUCTURE
       1 MOL1            1 RESIDUE      1      MOL     
@<SCITEGIC>MOL_PROPERTY
VConf Rank
SciTegic.value.IntegerValue
262

@<SCITEGIC>MOL_PROPERTY
Conf_Id
SciTegic.value.IntegerValue
37

@<SCITEGIC>MOL_PROPERTY
Delta U+W
SciTegic.value.DoubleValue
-0.384

@<SCITEGIC>MOL_PROPERTY
U+W
SciTegic.value.DoubleValue
-52.130

@<SCITEGIC>MOL_PROPERTY
Grad RMS
SciTegic.value.DoubleValue
0.000000

@<SCITEGIC>MOL_PROPERTY
U
SciTegic.value.DoubleValue
7.491

@<SCITEGIC>MOL_PROPERTY
W
SciTegic.value.DoubleValue
-59.621

@<SCITEGIC>MOL_PROPERTY
W(PB)
SciTegic.value.DoubleValue
-61.853

@<SCITEGIC>MOL_PROPERTY
W(SA)
SciTegic.value.DoubleValue
2.232

@<SCITEGIC>MOL_PROPERTY
Valence
SciTegic.value.DoubleValue
9.604

@<SCITEGIC>MOL_PROPERTY
Coulomb
SciTegic.value.DoubleValue
-2.799

@<SCITEGIC>MOL_PROPERTY
VdW
SciTegic.value.DoubleValue
0.686

@<SCITEGIC>MOL_PROPERTY
VdW6
SciTegic.value.DoubleValue
-6.435

@<SCITEGIC>MOL_PROPERTY
VdW12
SciTegic.value.DoubleValue
7.121

@<SCITEGIC>MOL_PROPERTY
Bond
SciTegic.value.DoubleValue
0.124

@<SCITEGIC>MOL_PROPERTY
Angle
SciTegic.value.DoubleValue
2.493

@<SCITEGIC>MOL_PROPERTY
Pdih
SciTegic.value.DoubleValue
6.986

@<SCITEGIC>MOL_PROPERTY
Idih
SciTegic.value.DoubleValue
0.001

@<SCITEGIC>MOL_PROPERTY
Tether
SciTegic.value.DoubleValue
0.000

@<TRIPOS>MOLECULE
guest-s22_confgen4.mol2 : confsearch ligand conformer 263
          20          19           1
SMALL
USER_CHARGES
 
@<TRIPOS>ATOM
       1    C1      17.013309   20.414687   20.651604 C.2        1 MOL1        -0.2535
       2    H1      16.120933   20.874074   20.229917 H          1 MOL1         0.0845
       3    H2      16.925924   20.002503   21.654607 H          1 MOL1         0.0845
       4    C2      18.153530   20.369460   19.953203 C.2        1 MOL1        -0.1324
       5    H3      18.179283   20.799804   18.952319 H          1 MOL1         0.0833
       6    C3      19.472523   19.765497   20.405420 C.3        1 MOL1        -0.1813
       7    H4      20.249995   20.539675   20.357253 H          1 MOL1         0.0753
       8    H5      19.775056   18.996726   19.681817 H          1 MOL1         0.0753
       9    C4      19.457849   19.149107   21.823811 C.3        1 MOL1        -0.1855
      10    H6      19.176051   19.918724   22.555498 H          1 MOL1         0.0755
      11    H7      18.695939   18.359052   21.872741 H          1 MOL1         0.0755
      12    C5      20.832916   18.558740   22.205489 C.3        1 MOL1        -0.1855
      13    H8      21.599796   19.344413   22.158382 H          1 MOL1         0.0755
      14    H9      21.120662   17.787938   21.477016 H          1 MOL1         0.0755
      15    C6      20.820808   17.940876   23.625412 C.3        1 MOL1        -0.1958
      16    H10     20.548207   18.701281   24.367083 H          1 MOL1         0.0753
      17    H11     20.068975   17.144814   23.685708 H          1 MOL1         0.0753
      18    C7      22.168260   17.350796   24.025620 C.2        1 MOL1         0.6174
      19    O1      22.969909   18.076032   24.580633 O.co2      1 MOL1        -0.6695
      20    O2      22.388136   16.186942   23.754062 O.co2      1 MOL1        -0.6695
@<TRIPOS>BOND
    1     1     2    1
    2     1     3    1
    3     1     4    2
    4     4     5    1
    5     4     6    1
    6     6     7    1
    7     6     8    1
    8     6     9    1
    9     9    10    1
   10     9    11    1
   11     9    12    1
   12    12    13    1
   13    12    14    1
   14    12    15    1
   15    15    16    1
   16    15    17    1
   17    15    18    1
   18    18    19    1
   19    18    20    2
@<TRIPOS>SUBSTRUCTURE
       1 MOL1            1 RESIDUE      1      MOL     
@<SCITEGIC>MOL_PROPERTY
VConf Rank
SciTegic.value.IntegerValue
263

@<SCITEGIC>MOL_PROPERTY
Conf_Id
SciTegic.value.IntegerValue
44

@<SCITEGIC>MOL_PROPERTY
Delta U+W
SciTegic.value.DoubleValue
-1.440

@<SCITEGIC>MOL_PROPERTY
U+W
SciTegic.value.DoubleValue
-53.185

@<SCITEGIC>MOL_PROPERTY
Grad RMS
SciTegic.value.DoubleValue
0.000000

@<SCITEGIC>MOL_PROPERTY
U
SciTegic.value.DoubleValue
6.572

@<SCITEGIC>MOL_PROPERTY
W
SciTegic.value.DoubleValue
-59.757

@<SCITEGIC>MOL_PROPERTY
W(PB)
SciTegic.value.DoubleValue
-62.007

@<SCITEGIC>MOL_PROPERTY
W(SA)
SciTegic.value.DoubleValue
2.249

@<SCITEGIC>MOL_PROPERTY
Valence
SciTegic.value.DoubleValue
7.989

@<SCITEGIC>MOL_PROPERTY
Coulomb
SciTegic.value.DoubleValue
-2.697

@<SCITEGIC>MOL_PROPERTY
VdW
SciTegic.value.DoubleValue
1.281

@<SCITEGIC>MOL_PROPERTY
VdW6
SciTegic.value.DoubleValue
-6.467

@<SCITEGIC>MOL_PROPERTY
VdW12
SciTegic.value.DoubleValue
7.748

@<SCITEGIC>MOL_PROPERTY
Bond
SciTegic.value.DoubleValue
0.136

@<SCITEGIC>MOL_PROPERTY
Angle
SciTegic.value.DoubleValue
2.854

@<SCITEGIC>MOL_PROPERTY
Pdih
SciTegic.value.DoubleValue
4.997

@<SCITEGIC>MOL_PROPERTY
Idih
SciTegic.value.DoubleValue
0.001

@<SCITEGIC>MOL_PROPERTY
Tether
SciTegic.value.DoubleValue
0.000

@<TRIPOS>MOLECULE
guest-s22_confgen4.mol2 : confsearch ligand conformer 264
          20          19           1
SMALL
USER_CHARGES
 
@<TRIPOS>ATOM
       1    C1      21.325826   17.310376   24.489006 C.2        1 MOL1        -0.2535
       2    H1      20.811097   16.485898   23.998222 H          1 MOL1         0.0845
       3    H2      21.731568   17.127200   25.482522 H          1 MOL1         0.0845
       4    C2      21.454342   18.502139   23.900020 C.2        1 MOL1        -0.1324
       5    H3      21.972825   19.314432   24.408931 H          1 MOL1         0.0833
       6    C3      20.919129   18.829871   22.523780 C.3        1 MOL1        -0.1813
       7    H4      20.665871   17.903705   21.992107 H          1 MOL1         0.0753
       8    H5      21.700541   19.329714   21.936002 H          1 MOL1         0.0753
       9    C4      19.675375   19.742429   22.614742 C.3        1 MOL1        -0.1855
      10    H6      18.874781   19.219743   23.156076 H          1 MOL1         0.0755
      11    H7      19.927390   20.628176   23.213929 H          1 MOL1         0.0755
      12    C5      19.151953   20.212423   21.236534 C.3        1 MOL1        -0.1855
      13    H8      19.948747   20.743851   20.697947 H          1 MOL1         0.0755
      14    H9      18.345937   20.942028   21.396275 H          1 MOL1         0.0755
      15    C6      18.610468   19.058281   20.353468 C.3        1 MOL1        -0.1958
      16    H10     19.413081   18.357365   20.098063 H          1 MOL1         0.0753
      17    H11     17.844673   18.492662   20.897555 H          1 MOL1         0.0753
      18    C7      17.995389   19.553173   19.049362 C.2        1 MOL1         0.6174
      19    O1      16.809970   19.820409   19.039340 O.co2      1 MOL1        -0.6695
      20    O2      18.721821   19.677473   18.083153 O.co2      1 MOL1        -0.6695
@<TRIPOS>BOND
    1     1     2    1
    2     1     3    1
    3     1     4    2
    4     4     5    1
    5     4     6    1
    6     6     7    1
    7     6     8    1
    8     6     9    1
    9     9    10    1
   10     9    11    1
   11     9    12    1
   12    12    13    1
   13    12    14    1
   14    12    15    1
   15    15    16    1
   16    15    17    1
   17    15    18    1
   18    18    19    1
   19    18    20    2
@<TRIPOS>SUBSTRUCTURE
       1 MOL1            1 RESIDUE      1      MOL     
@<SCITEGIC>MOL_PROPERTY
VConf Rank
SciTegic.value.IntegerValue
264

@<SCITEGIC>MOL_PROPERTY
Conf_Id
SciTegic.value.IntegerValue
38

@<SCITEGIC>MOL_PROPERTY
Delta U+W
SciTegic.value.DoubleValue
-0.381

@<SCITEGIC>MOL_PROPERTY
U+W
SciTegic.value.DoubleValue
-52.126

@<SCITEGIC>MOL_PROPERTY
Grad RMS
SciTegic.value.DoubleValue
0.000000

@<SCITEGIC>MOL_PROPERTY
U
SciTegic.value.DoubleValue
7.601

@<SCITEGIC>MOL_PROPERTY
W
SciTegic.value.DoubleValue
-59.727

@<SCITEGIC>MOL_PROPERTY
W(PB)
SciTegic.value.DoubleValue
-61.964

@<SCITEGIC>MOL_PROPERTY
W(SA)
SciTegic.value.DoubleValue
2.236

@<SCITEGIC>MOL_PROPERTY
Valence
SciTegic.value.DoubleValue
9.602

@<SCITEGIC>MOL_PROPERTY
Coulomb
SciTegic.value.DoubleValue
-2.686

@<SCITEGIC>MOL_PROPERTY
VdW
SciTegic.value.DoubleValue
0.685

@<SCITEGIC>MOL_PROPERTY
VdW6
SciTegic.value.DoubleValue
-6.453

@<SCITEGIC>MOL_PROPERTY
VdW12
SciTegic.value.DoubleValue
7.139

@<SCITEGIC>MOL_PROPERTY
Bond
SciTegic.value.DoubleValue
0.125

@<SCITEGIC>MOL_PROPERTY
Angle
SciTegic.value.DoubleValue
2.485

@<SCITEGIC>MOL_PROPERTY
Pdih
SciTegic.value.DoubleValue
6.991

@<SCITEGIC>MOL_PROPERTY
Idih
SciTegic.value.DoubleValue
0.001

@<SCITEGIC>MOL_PROPERTY
Tether
SciTegic.value.DoubleValue
0.000

@<TRIPOS>MOLECULE
guest-s22_confgen4.mol2 : confsearch ligand conformer 265
          20          19           1
SMALL
USER_CHARGES
 
@<TRIPOS>ATOM
       1    C1      19.615348   18.814968   18.499146 C.2        1 MOL1        -0.2535
       2    H1      19.734963   17.734808   18.566404 H          1 MOL1         0.0845
       3    H2      19.176315   19.214470   17.586503 H          1 MOL1         0.0845
       4    C2      19.989026   19.621703   19.495744 C.2        1 MOL1        -0.1324
       5    H3      19.859740   20.700301   19.408732 H          1 MOL1         0.0833
       6    C3      20.605349   19.140414   20.790408 C.3        1 MOL1        -0.1813
       7    H4      21.504183   19.731501   21.011403 H          1 MOL1         0.0753
       8    H5      20.930239   18.095701   20.691598 H          1 MOL1         0.0753
       9    C4      19.607174   19.260261   21.961004 C.3        1 MOL1        -0.1855
      10    H6      19.285631   20.306400   22.059160 H          1 MOL1         0.0755
      11    H7      18.707521   18.671662   21.734182 H          1 MOL1         0.0755
      12    C5      20.222522   18.775012   23.292999 C.3        1 MOL1        -0.1855
      13    H8      21.116791   19.368842   23.528252 H          1 MOL1         0.0755
      14    H9      20.554852   17.734109   23.180478 H          1 MOL1         0.0755
      15    C6      19.224176   18.859223   24.476683 C.3        1 MOL1        -0.1958
      16    H10     18.313437   18.293665   24.245260 H          1 MOL1         0.0753
      17    H11     19.668881   18.395337   25.364954 H          1 MOL1         0.0753
      18    C7      18.829884   20.284079   24.855082 C.2        1 MOL1         0.6174
      19    O1      17.727039   20.681049   24.533959 O.co2      1 MOL1        -0.6695
      20    O2      19.633639   20.955730   25.471490 O.co2      1 MOL1        -0.6695
@<TRIPOS>BOND
    1     1     2    1
    2     1     3    1
    3     1     4    2
    4     4     5    1
    5     4     6    1
    6     6     7    1
    7     6     8    1
    8     6     9    1
    9     9    10    1
   10     9    11    1
   11     9    12    1
   12    12    13    1
   13    12    14    1
   14    12    15    1
   15    15    16    1
   16    15    17    1
   17    15    18    1
   18    18    19    1
   19    18    20    2
@<TRIPOS>SUBSTRUCTURE
       1 MOL1            1 RESIDUE      1      MOL     
@<SCITEGIC>MOL_PROPERTY
VConf Rank
SciTegic.value.IntegerValue
265

@<SCITEGIC>MOL_PROPERTY
Conf_Id
SciTegic.value.IntegerValue
58

@<SCITEGIC>MOL_PROPERTY
Delta U+W
SciTegic.value.DoubleValue
0.019

@<SCITEGIC>MOL_PROPERTY
U+W
SciTegic.value.DoubleValue
-51.727

@<SCITEGIC>MOL_PROPERTY
Grad RMS
SciTegic.value.DoubleValue
0.000000

@<SCITEGIC>MOL_PROPERTY
U
SciTegic.value.DoubleValue
8.963

@<SCITEGIC>MOL_PROPERTY
W
SciTegic.value.DoubleValue
-60.690

@<SCITEGIC>MOL_PROPERTY
W(PB)
SciTegic.value.DoubleValue
-62.934

@<SCITEGIC>MOL_PROPERTY
W(SA)
SciTegic.value.DoubleValue
2.244

@<SCITEGIC>MOL_PROPERTY
Valence
SciTegic.value.DoubleValue
9.327

@<SCITEGIC>MOL_PROPERTY
Coulomb
SciTegic.value.DoubleValue
-0.780

@<SCITEGIC>MOL_PROPERTY
VdW
SciTegic.value.DoubleValue
0.417

@<SCITEGIC>MOL_PROPERTY
VdW6
SciTegic.value.DoubleValue
-6.635

@<SCITEGIC>MOL_PROPERTY
VdW12
SciTegic.value.DoubleValue
7.052

@<SCITEGIC>MOL_PROPERTY
Bond
SciTegic.value.DoubleValue
0.105

@<SCITEGIC>MOL_PROPERTY
Angle
SciTegic.value.DoubleValue
2.399

@<SCITEGIC>MOL_PROPERTY
Pdih
SciTegic.value.DoubleValue
6.822

@<SCITEGIC>MOL_PROPERTY
Idih
SciTegic.value.DoubleValue
0.000

@<SCITEGIC>MOL_PROPERTY
Tether
SciTegic.value.DoubleValue
0.000

@<TRIPOS>MOLECULE
guest-s22_confgen4.mol2 : confsearch ligand conformer 266
          20          19           1
SMALL
USER_CHARGES
 
@<TRIPOS>ATOM
       1    C1      18.665848   21.834516   19.856183 C.2        1 MOL1        -0.2535
       2    H1      18.398070   22.493634   20.680461 H          1 MOL1         0.0845
       3    H2      18.198113   22.023503   18.891416 H          1 MOL1         0.0845
       4    C2      19.531715   20.830727   20.018508 C.2        1 MOL1        -0.1324
       5    H3      19.785529   20.181813   19.180565 H          1 MOL1         0.0833
       6    C3      20.220355   20.508164   21.325937 C.3        1 MOL1        -0.1813
       7    H4      20.111239   21.344598   22.029650 H          1 MOL1         0.0753
       8    H5      21.297101   20.379672   21.152059 H          1 MOL1         0.0753
       9    C4      19.642152   19.224939   21.958414 C.3        1 MOL1        -0.1855
      10    H6      18.564197   19.355537   22.126430 H          1 MOL1         0.0755
      11    H7      19.754601   18.389495   21.253559 H          1 MOL1         0.0755
      12    C5      20.337411   18.879157   23.294594 C.3        1 MOL1        -0.1855
      13    H8      20.233264   19.725707   23.986757 H          1 MOL1         0.0755
      14    H9      21.414393   18.737338   23.128190 H          1 MOL1         0.0755
      15    C6      19.749184   17.608693   23.961530 C.3        1 MOL1        -0.1958
      16    H10     20.193034   17.477535   24.955398 H          1 MOL1         0.0753
      17    H11     18.668512   17.723879   24.108972 H          1 MOL1         0.0753
      18    C7      19.999620   16.323992   23.176870 C.2        1 MOL1         0.6174
      19    O1      21.113722   15.839632   23.212465 O.co2      1 MOL1        -0.6695
      20    O2      19.073028   15.835668   22.560479 O.co2      1 MOL1        -0.6695
@<TRIPOS>BOND
    1     1     2    1
    2     1     3    1
    3     1     4    2
    4     4     5    1
    5     4     6    1
    6     6     7    1
    7     6     8    1
    8     6     9    1
    9     9    10    1
   10     9    11    1
   11     9    12    1
   12    12    13    1
   13    12    14    1
   14    12    15    1
   15    15    16    1
   16    15    17    1
   17    15    18    1
   18    18    19    1
   19    18    20    2
@<TRIPOS>SUBSTRUCTURE
       1 MOL1            1 RESIDUE      1      MOL     
@<SCITEGIC>MOL_PROPERTY
VConf Rank
SciTegic.value.IntegerValue
266

@<SCITEGIC>MOL_PROPERTY
Conf_Id
SciTegic.value.IntegerValue
54

@<SCITEGIC>MOL_PROPERTY
Delta U+W
SciTegic.value.DoubleValue
-0.048

@<SCITEGIC>MOL_PROPERTY
U+W
SciTegic.value.DoubleValue
-51.793

@<SCITEGIC>MOL_PROPERTY
Grad RMS
SciTegic.value.DoubleValue
0.000000

@<SCITEGIC>MOL_PROPERTY
U
SciTegic.value.DoubleValue
8.964

@<SCITEGIC>MOL_PROPERTY
W
SciTegic.value.DoubleValue
-60.756

@<SCITEGIC>MOL_PROPERTY
W(PB)
SciTegic.value.DoubleValue
-63.007

@<SCITEGIC>MOL_PROPERTY
W(SA)
SciTegic.value.DoubleValue
2.251

@<SCITEGIC>MOL_PROPERTY
Valence
SciTegic.value.DoubleValue
9.327

@<SCITEGIC>MOL_PROPERTY
Coulomb
SciTegic.value.DoubleValue
-0.780

@<SCITEGIC>MOL_PROPERTY
VdW
SciTegic.value.DoubleValue
0.417

@<SCITEGIC>MOL_PROPERTY
VdW6
SciTegic.value.DoubleValue
-6.635

@<SCITEGIC>MOL_PROPERTY
VdW12
SciTegic.value.DoubleValue
7.052

@<SCITEGIC>MOL_PROPERTY
Bond
SciTegic.value.DoubleValue
0.105

@<SCITEGIC>MOL_PROPERTY
Angle
SciTegic.value.DoubleValue
2.399

@<SCITEGIC>MOL_PROPERTY
Pdih
SciTegic.value.DoubleValue
6.822

@<SCITEGIC>MOL_PROPERTY
Idih
SciTegic.value.DoubleValue
0.000

@<SCITEGIC>MOL_PROPERTY
Tether
SciTegic.value.DoubleValue
0.000

@<TRIPOS>MOLECULE
guest-s22_confgen4.mol2 : confsearch ligand conformer 267
          20          19           1
SMALL
USER_CHARGES
 
@<TRIPOS>ATOM
       1    C1      22.153671   16.786152   21.327515 C.2        1 MOL1        -0.2535
       2    H1      22.169601   15.885214   20.716578 H          1 MOL1         0.0845
       3    H2      23.054940   17.396861   21.343583 H          1 MOL1         0.0845
       4    C2      21.067772   17.127119   22.026254 C.2        1 MOL1        -0.1324
       5    H3      20.177354   16.499699   21.998825 H          1 MOL1         0.0833
       6    C3      20.975393   18.359064   22.901255 C.3        1 MOL1        -0.1813
       7    H4      21.985157   18.709682   23.154187 H          1 MOL1         0.0753
       8    H5      20.490557   18.106394   23.853693 H          1 MOL1         0.0753
       9    C4      20.208641   19.512502   22.215784 C.3        1 MOL1        -0.1855
      10    H6      20.297110   20.412549   22.839541 H          1 MOL1         0.0755
      11    H7      20.687049   19.749371   21.255494 H          1 MOL1         0.0755
      12    C5      18.712182   19.190138   21.990407 C.3        1 MOL1        -0.1855
      13    H8      18.236836   18.938950   22.948733 H          1 MOL1         0.0755
      14    H9      18.620681   18.303187   21.349752 H          1 MOL1         0.0755
      15    C6      17.943630   20.362790   21.327536 C.3        1 MOL1        -0.1958
      16    H10     18.426858   20.647488   20.385055 H          1 MOL1         0.0753
      17    H11     16.926392   20.039169   21.077634 H          1 MOL1         0.0753
      18    C7      17.823861   21.603333   22.208185 C.2        1 MOL1         0.6174
      19    O1      18.528484   22.560381   21.953987 O.co2      1 MOL1        -0.6695
      20    O2      17.020029   21.582920   23.119531 O.co2      1 MOL1        -0.6695
@<TRIPOS>BOND
    1     1     2    1
    2     1     3    1
    3     1     4    2
    4     4     5    1
    5     4     6    1
    6     6     7    1
    7     6     8    1
    8     6     9    1
    9     9    10    1
   10     9    11    1
   11     9    12    1
   12    12    13    1
   13    12    14    1
   14    12    15    1
   15    15    16    1
   16    15    17    1
   17    15    18    1
   18    18    19    1
   19    18    20    2
@<TRIPOS>SUBSTRUCTURE
       1 MOL1            1 RESIDUE      1      MOL     
@<SCITEGIC>MOL_PROPERTY
VConf Rank
SciTegic.value.IntegerValue
267

@<SCITEGIC>MOL_PROPERTY
Conf_Id
SciTegic.value.IntegerValue
27

@<SCITEGIC>MOL_PROPERTY
Delta U+W
SciTegic.value.DoubleValue
0.478

@<SCITEGIC>MOL_PROPERTY
U+W
SciTegic.value.DoubleValue
-51.267

@<SCITEGIC>MOL_PROPERTY
Grad RMS
SciTegic.value.DoubleValue
0.000000

@<SCITEGIC>MOL_PROPERTY
U
SciTegic.value.DoubleValue
9.192

@<SCITEGIC>MOL_PROPERTY
W
SciTegic.value.DoubleValue
-60.459

@<SCITEGIC>MOL_PROPERTY
W(PB)
SciTegic.value.DoubleValue
-62.649

@<SCITEGIC>MOL_PROPERTY
W(SA)
SciTegic.value.DoubleValue
2.190

@<SCITEGIC>MOL_PROPERTY
Valence
SciTegic.value.DoubleValue
9.572

@<SCITEGIC>MOL_PROPERTY
Coulomb
SciTegic.value.DoubleValue
-0.884

@<SCITEGIC>MOL_PROPERTY
VdW
SciTegic.value.DoubleValue
0.504

@<SCITEGIC>MOL_PROPERTY
VdW6
SciTegic.value.DoubleValue
-7.168

@<SCITEGIC>MOL_PROPERTY
VdW12
SciTegic.value.DoubleValue
7.672

@<SCITEGIC>MOL_PROPERTY
Bond
SciTegic.value.DoubleValue
0.127

@<SCITEGIC>MOL_PROPERTY
Angle
SciTegic.value.DoubleValue
2.504

@<SCITEGIC>MOL_PROPERTY
Pdih
SciTegic.value.DoubleValue
6.941

@<SCITEGIC>MOL_PROPERTY
Idih
SciTegic.value.DoubleValue
0.001

@<SCITEGIC>MOL_PROPERTY
Tether
SciTegic.value.DoubleValue
0.000

@<TRIPOS>MOLECULE
guest-s22_confgen4.mol2 : confsearch ligand conformer 268
          20          19           1
SMALL
USER_CHARGES
 
@<TRIPOS>ATOM
       1    C1      21.566934   21.257765   23.224340 C.2        1 MOL1        -0.2535
       2    H1      22.212852   21.614523   22.423702 H          1 MOL1         0.0845
       3    H2      21.940507   21.339470   24.243637 H          1 MOL1         0.0845
       4    C2      20.363898   20.736562   22.969922 C.2        1 MOL1        -0.1324
       5    H3      19.732110   20.388302   23.786533 H          1 MOL1         0.0833
       6    C3      19.777073   20.597211   21.581392 C.3        1 MOL1        -0.1813
       7    H4      20.296898   21.274272   20.890069 H          1 MOL1         0.0753
       8    H5      18.724933   20.911911   21.586552 H          1 MOL1         0.0753
       9    C4      19.887419   19.154679   21.038267 C.3        1 MOL1        -0.1855
      10    H6      19.569034   19.147403   19.986860 H          1 MOL1         0.0755
      11    H7      20.940076   18.839918   21.050308 H          1 MOL1         0.0755
      12    C5      19.029563   18.145102   21.835059 C.3        1 MOL1        -0.1855
      13    H8      17.981511   18.475050   21.843965 H          1 MOL1         0.0755
      14    H9      19.363162   18.112905   22.881175 H          1 MOL1         0.0755
      15    C6      19.112023   16.720121   21.234485 C.3        1 MOL1        -0.1958
      16    H10     18.767081   16.726807   20.193569 H          1 MOL1         0.0753
      17    H11     20.151670   16.371237   21.229627 H          1 MOL1         0.0753
      18    C7      18.275004   15.704444   22.003801 C.2        1 MOL1         0.6174
      19    O1      18.799911   15.106128   22.922034 O.co2      1 MOL1        -0.6695
      20    O2      17.115008   15.551174   21.675752 O.co2      1 MOL1        -0.6695
@<TRIPOS>BOND
    1     1     2    1
    2     1     3    1
    3     1     4    2
    4     4     5    1
    5     4     6    1
    6     6     7    1
    7     6     8    1
    8     6     9    1
    9     9    10    1
   10     9    11    1
   11     9    12    1
   12    12    13    1
   13    12    14    1
   14    12    15    1
   15    15    16    1
   16    15    17    1
   17    15    18    1
   18    18    19    1
   19    18    20    2
@<TRIPOS>SUBSTRUCTURE
       1 MOL1            1 RESIDUE      1      MOL     
@<SCITEGIC>MOL_PROPERTY
VConf Rank
SciTegic.value.IntegerValue
268

@<SCITEGIC>MOL_PROPERTY
Conf_Id
SciTegic.value.IntegerValue
41

@<SCITEGIC>MOL_PROPERTY
Delta U+W
SciTegic.value.DoubleValue
-0.634

@<SCITEGIC>MOL_PROPERTY
U+W
SciTegic.value.DoubleValue
-52.379

@<SCITEGIC>MOL_PROPERTY
Grad RMS
SciTegic.value.DoubleValue
0.000000

@<SCITEGIC>MOL_PROPERTY
U
SciTegic.value.DoubleValue
7.828

@<SCITEGIC>MOL_PROPERTY
W
SciTegic.value.DoubleValue
-60.207

@<SCITEGIC>MOL_PROPERTY
W(PB)
SciTegic.value.DoubleValue
-62.449

@<SCITEGIC>MOL_PROPERTY
W(SA)
SciTegic.value.DoubleValue
2.242

@<SCITEGIC>MOL_PROPERTY
Valence
SciTegic.value.DoubleValue
9.300

@<SCITEGIC>MOL_PROPERTY
Coulomb
SciTegic.value.DoubleValue
-2.080

@<SCITEGIC>MOL_PROPERTY
VdW
SciTegic.value.DoubleValue
0.608

@<SCITEGIC>MOL_PROPERTY
VdW6
SciTegic.value.DoubleValue
-6.341

@<SCITEGIC>MOL_PROPERTY
VdW12
SciTegic.value.DoubleValue
6.949

@<SCITEGIC>MOL_PROPERTY
Bond
SciTegic.value.DoubleValue
0.103

@<SCITEGIC>MOL_PROPERTY
Angle
SciTegic.value.DoubleValue
2.334

@<SCITEGIC>MOL_PROPERTY
Pdih
SciTegic.value.DoubleValue
6.862

@<SCITEGIC>MOL_PROPERTY
Idih
SciTegic.value.DoubleValue
0.001

@<SCITEGIC>MOL_PROPERTY
Tether
SciTegic.value.DoubleValue
0.000

@<TRIPOS>MOLECULE
guest-s22_confgen4.mol2 : confsearch ligand conformer 269
          20          19           1
SMALL
USER_CHARGES
 
@<TRIPOS>ATOM
       1    C1      18.303727   15.986723   21.182947 C.2        1 MOL1        -0.2535
       2    H1      18.351889   14.905653   21.063752 H          1 MOL1         0.0845
       3    H2      17.315838   16.442467   21.226839 H          1 MOL1         0.0845
       4    C2      19.415472   16.721234   21.273665 C.2        1 MOL1        -0.1324
       5    H3      20.395013   16.245738   21.228173 H          1 MOL1         0.0833
       6    C3      19.427594   18.224604   21.438989 C.3        1 MOL1        -0.1813
       7    H4      18.434938   18.639503   21.217932 H          1 MOL1         0.0753
       8    H5      20.125054   18.660542   20.712034 H          1 MOL1         0.0753
       9    C4      19.845545   18.621706   22.872447 C.3        1 MOL1        -0.1855
      10    H6      19.198702   18.096520   23.588641 H          1 MOL1         0.0755
      11    H7      20.868728   18.271681   23.066966 H          1 MOL1         0.0755
      12    C5      19.750072   20.143006   23.145797 C.3        1 MOL1        -0.1855
      13    H8      19.988097   20.327991   24.202448 H          1 MOL1         0.0755
      14    H9      18.711925   20.471806   23.002452 H          1 MOL1         0.0755
      15    C6      20.686321   21.013989   22.264181 C.3        1 MOL1        -0.1958
      16    H10     20.426724   20.911010   21.204459 H          1 MOL1         0.0753
      17    H11     20.542907   22.070969   22.517027 H          1 MOL1         0.0753
      18    C7      22.170518   20.703656   22.436191 C.2        1 MOL1         0.6174
      19    O1      22.711065   21.047039   23.469295 O.co2      1 MOL1        -0.6695
      20    O2      22.751072   20.143737   21.527125 O.co2      1 MOL1        -0.6695
@<TRIPOS>BOND
    1     1     2    1
    2     1     3    1
    3     1     4    2
    4     4     5    1
    5     4     6    1
    6     6     7    1
    7     6     8    1
    8     6     9    1
    9     9    10    1
   10     9    11    1
   11     9    12    1
   12    12    13    1
   13    12    14    1
   14    12    15    1
   15    15    16    1
   16    15    17    1
   17    15    18    1
   18    18    19    1
   19    18    20    2
@<TRIPOS>SUBSTRUCTURE
       1 MOL1            1 RESIDUE      1      MOL     
@<SCITEGIC>MOL_PROPERTY
VConf Rank
SciTegic.value.IntegerValue
269

@<SCITEGIC>MOL_PROPERTY
Conf_Id
SciTegic.value.IntegerValue
84

@<SCITEGIC>MOL_PROPERTY
Delta U+W
SciTegic.value.DoubleValue
0.942

@<SCITEGIC>MOL_PROPERTY
U+W
SciTegic.value.DoubleValue
-50.803

@<SCITEGIC>MOL_PROPERTY
Grad RMS
SciTegic.value.DoubleValue
0.000000

@<SCITEGIC>MOL_PROPERTY
U
SciTegic.value.DoubleValue
10.196

@<SCITEGIC>MOL_PROPERTY
W
SciTegic.value.DoubleValue
-60.999

@<SCITEGIC>MOL_PROPERTY
W(PB)
SciTegic.value.DoubleValue
-63.182

@<SCITEGIC>MOL_PROPERTY
W(SA)
SciTegic.value.DoubleValue
2.182

@<SCITEGIC>MOL_PROPERTY
Valence
SciTegic.value.DoubleValue
9.837

@<SCITEGIC>MOL_PROPERTY
Coulomb
SciTegic.value.DoubleValue
0.032

@<SCITEGIC>MOL_PROPERTY
VdW
SciTegic.value.DoubleValue
0.328

@<SCITEGIC>MOL_PROPERTY
VdW6
SciTegic.value.DoubleValue
-7.642

@<SCITEGIC>MOL_PROPERTY
VdW12
SciTegic.value.DoubleValue
7.969

@<SCITEGIC>MOL_PROPERTY
Bond
SciTegic.value.DoubleValue
0.151

@<SCITEGIC>MOL_PROPERTY
Angle
SciTegic.value.DoubleValue
2.748

@<SCITEGIC>MOL_PROPERTY
Pdih
SciTegic.value.DoubleValue
6.937

@<SCITEGIC>MOL_PROPERTY
Idih
SciTegic.value.DoubleValue
0.001

@<SCITEGIC>MOL_PROPERTY
Tether
SciTegic.value.DoubleValue
0.000

@<TRIPOS>MOLECULE
guest-s22_confgen4.mol2 : confsearch ligand conformer 270
          20          19           1
SMALL
USER_CHARGES
 
@<TRIPOS>ATOM
       1    C1      23.020985   19.353370   21.289869 C.2        1 MOL1        -0.2535
       2    H1      23.844717   19.977755   20.948005 H          1 MOL1         0.0845
       3    H2      23.201909   18.713004   22.151716 H          1 MOL1         0.0845
       4    C2      21.835747   19.376933   20.674794 C.2        1 MOL1        -0.1324
       5    H3      21.675091   20.025841   19.814129 H          1 MOL1         0.0833
       6    C3      20.647628   18.538782   21.091378 C.3        1 MOL1        -0.1813
       7    H4      20.965291   17.745043   21.781203 H          1 MOL1         0.0753
       8    H5      20.222824   18.040208   20.209875 H          1 MOL1         0.0753
       9    C4      19.564805   19.404617   21.768789 C.3        1 MOL1        -0.1855
      10    H6      19.998284   19.905236   22.645804 H          1 MOL1         0.0755
      11    H7      19.243654   20.196225   21.077943 H          1 MOL1         0.0755
      12    C5      18.341566   18.563166   22.197718 C.3        1 MOL1        -0.1855
      13    H8      18.657046   17.778945   22.899986 H          1 MOL1         0.0755
      14    H9      17.927157   18.051883   21.318272 H          1 MOL1         0.0755
      15    C6      17.227659   19.420796   22.852368 C.3        1 MOL1        -0.1958
      16    H10     16.920689   20.225584   22.173444 H          1 MOL1         0.0753
      17    H11     16.342103   18.798887   23.028421 H          1 MOL1         0.0753
      18    C7      17.625372   20.037420   24.190461 C.2        1 MOL1         0.6174
      19    O1      17.878469   21.225594   24.224468 O.co2      1 MOL1        -0.6695
      20    O2      17.658578   19.314123   25.166599 O.co2      1 MOL1        -0.6695
@<TRIPOS>BOND
    1     1     2    1
    2     1     3    1
    3     1     4    2
    4     4     5    1
    5     4     6    1
    6     6     7    1
    7     6     8    1
    8     6     9    1
    9     9    10    1
   10     9    11    1
   11     9    12    1
   12    12    13    1
   13    12    14    1
   14    12    15    1
   15    15    16    1
   16    15    17    1
   17    15    18    1
   18    18    19    1
   19    18    20    2
@<TRIPOS>SUBSTRUCTURE
       1 MOL1            1 RESIDUE      1      MOL     
@<SCITEGIC>MOL_PROPERTY
VConf Rank
SciTegic.value.IntegerValue
270

@<SCITEGIC>MOL_PROPERTY
Conf_Id
SciTegic.value.IntegerValue
81

@<SCITEGIC>MOL_PROPERTY
Delta U+W
SciTegic.value.DoubleValue
-0.051

@<SCITEGIC>MOL_PROPERTY
U+W
SciTegic.value.DoubleValue
-51.796

@<SCITEGIC>MOL_PROPERTY
Grad RMS
SciTegic.value.DoubleValue
0.000000

@<SCITEGIC>MOL_PROPERTY
U
SciTegic.value.DoubleValue
9.412

@<SCITEGIC>MOL_PROPERTY
W
SciTegic.value.DoubleValue
-61.209

@<SCITEGIC>MOL_PROPERTY
W(PB)
SciTegic.value.DoubleValue
-63.452

@<SCITEGIC>MOL_PROPERTY
W(SA)
SciTegic.value.DoubleValue
2.243

@<SCITEGIC>MOL_PROPERTY
Valence
SciTegic.value.DoubleValue
9.329

@<SCITEGIC>MOL_PROPERTY
Coulomb
SciTegic.value.DoubleValue
-0.323

@<SCITEGIC>MOL_PROPERTY
VdW
SciTegic.value.DoubleValue
0.406

@<SCITEGIC>MOL_PROPERTY
VdW6
SciTegic.value.DoubleValue
-6.640

@<SCITEGIC>MOL_PROPERTY
VdW12
SciTegic.value.DoubleValue
7.046

@<SCITEGIC>MOL_PROPERTY
Bond
SciTegic.value.DoubleValue
0.105

@<SCITEGIC>MOL_PROPERTY
Angle
SciTegic.value.DoubleValue
2.401

@<SCITEGIC>MOL_PROPERTY
Pdih
SciTegic.value.DoubleValue
6.823

@<SCITEGIC>MOL_PROPERTY
Idih
SciTegic.value.DoubleValue
0.000

@<SCITEGIC>MOL_PROPERTY
Tether
SciTegic.value.DoubleValue
0.000

@<TRIPOS>MOLECULE
guest-s22_confgen4.mol2 : confsearch ligand conformer 271
          20          19           1
SMALL
USER_CHARGES
 
@<TRIPOS>ATOM
       1    C1      18.755157   17.503143   19.350094 C.2        1 MOL1        -0.2535
       2    H1      19.123311   16.482094   19.436006 H          1 MOL1         0.0845
       3    H2      17.997784   17.700865   18.593498 H          1 MOL1         0.0845
       4    C2      19.210265   18.477424   20.142136 C.2        1 MOL1        -0.1324
       5    H3      18.830244   19.493298   20.038174 H          1 MOL1         0.0833
       6    C3      20.264232   18.279237   21.210499 C.3        1 MOL1        -0.1813
       7    H4      21.004087   19.088824   21.164491 H          1 MOL1         0.0753
       8    H5      20.821395   17.353481   21.013621 H          1 MOL1         0.0753
       9    C4      19.657039   18.193979   22.631328 C.3        1 MOL1        -0.1855
      10    H6      18.986555   17.324995   22.677725 H          1 MOL1         0.0755
      11    H7      20.462685   17.995277   23.351344 H          1 MOL1         0.0755
      12    C5      18.872193   19.454514   23.077600 C.3        1 MOL1        -0.1855
      13    H8      18.464037   19.277410   24.082202 H          1 MOL1         0.0755
      14    H9      18.005406   19.598633   22.419113 H          1 MOL1         0.0755
      15    C6      19.713986   20.759430   23.105309 C.3        1 MOL1        -0.1958
      16    H10     20.074982   21.007569   22.100745 H          1 MOL1         0.0753
      17    H11     19.078423   21.594698   23.421529 H          1 MOL1         0.0753
      18    C7      20.906962   20.710963   24.055574 C.2        1 MOL1         0.6174
      19    O1      22.022702   20.651465   23.577381 O.co2      1 MOL1        -0.6695
      20    O2      20.688786   20.751742   25.250646 O.co2      1 MOL1        -0.6695
@<TRIPOS>BOND
    1     1     2    1
    2     1     3    1
    3     1     4    2
    4     4     5    1
    5     4     6    1
    6     6     7    1
    7     6     8    1
    8     6     9    1
    9     9    10    1
   10     9    11    1
   11     9    12    1
   12    12    13    1
   13    12    14    1
   14    12    15    1
   15    15    16    1
   16    15    17    1
   17    15    18    1
   18    18    19    1
   19    18    20    2
@<TRIPOS>SUBSTRUCTURE
       1 MOL1            1 RESIDUE      1      MOL     
@<SCITEGIC>MOL_PROPERTY
VConf Rank
SciTegic.value.IntegerValue
271

@<SCITEGIC>MOL_PROPERTY
Conf_Id
SciTegic.value.IntegerValue
86

@<SCITEGIC>MOL_PROPERTY
Delta U+W
SciTegic.value.DoubleValue
1.248

@<SCITEGIC>MOL_PROPERTY
U+W
SciTegic.value.DoubleValue
-50.498

@<SCITEGIC>MOL_PROPERTY
Grad RMS
SciTegic.value.DoubleValue
0.000000

@<SCITEGIC>MOL_PROPERTY
U
SciTegic.value.DoubleValue
10.404

@<SCITEGIC>MOL_PROPERTY
W
SciTegic.value.DoubleValue
-60.901

@<SCITEGIC>MOL_PROPERTY
W(PB)
SciTegic.value.DoubleValue
-63.061

@<SCITEGIC>MOL_PROPERTY
W(SA)
SciTegic.value.DoubleValue
2.159

@<SCITEGIC>MOL_PROPERTY
Valence
SciTegic.value.DoubleValue
10.021

@<SCITEGIC>MOL_PROPERTY
Coulomb
SciTegic.value.DoubleValue
0.094

@<SCITEGIC>MOL_PROPERTY
VdW
SciTegic.value.DoubleValue
0.289

@<SCITEGIC>MOL_PROPERTY
VdW6
SciTegic.value.DoubleValue
-8.409

@<SCITEGIC>MOL_PROPERTY
VdW12
SciTegic.value.DoubleValue
8.698

@<SCITEGIC>MOL_PROPERTY
Bond
SciTegic.value.DoubleValue
0.179

@<SCITEGIC>MOL_PROPERTY
Angle
SciTegic.value.DoubleValue
2.939

@<SCITEGIC>MOL_PROPERTY
Pdih
SciTegic.value.DoubleValue
6.902

@<SCITEGIC>MOL_PROPERTY
Idih
SciTegic.value.DoubleValue
0.001

@<SCITEGIC>MOL_PROPERTY
Tether
SciTegic.value.DoubleValue
0.000

@<TRIPOS>MOLECULE
guest-s22_confgen4.mol2 : confsearch ligand conformer 272
          20          19           1
SMALL
USER_CHARGES
 
@<TRIPOS>ATOM
       1    C1      21.211027   16.983639   23.884082 C.2        1 MOL1        -0.2535
       2    H1      20.968108   16.056703   24.400691 H          1 MOL1         0.0845
       3    H2      22.042504   16.962852   23.181490 H          1 MOL1         0.0845
       4    C2      20.511479   18.100071   24.103713 C.2        1 MOL1        -0.1324
       5    H3      19.681279   18.099047   24.809514 H          1 MOL1         0.0833
       6    C3      20.789174   19.424061   23.424015 C.3        1 MOL1        -0.1813
       7    H4      21.750361   19.392454   22.893184 H          1 MOL1         0.0753
       8    H5      20.883325   20.206691   24.188506 H          1 MOL1         0.0753
       9    C4      19.668540   19.823547   22.437784 C.3        1 MOL1        -0.1855
      10    H6      18.706237   19.851585   22.967037 H          1 MOL1         0.0755
      11    H7      19.859776   20.845279   22.082111 H          1 MOL1         0.0755
      12    C5      19.571947   18.867751   21.225051 C.3        1 MOL1        -0.1855
      13    H8      19.373972   17.847088   21.578776 H          1 MOL1         0.0755
      14    H9      20.535714   18.837048   20.698209 H          1 MOL1         0.0755
      15    C6      18.454610   19.276948   20.230491 C.3        1 MOL1        -0.1958
      16    H10     18.348595   18.503698   19.460565 H          1 MOL1         0.0753
      17    H11     17.490824   19.342393   20.749731 H          1 MOL1         0.0753
      18    C7      18.714042   20.599974   19.515633 C.2        1 MOL1         0.6174
      19    O1      19.525647   20.612414   18.611050 O.co2      1 MOL1        -0.6695
      20    O2      18.090546   21.579916   19.873479 O.co2      1 MOL1        -0.6695
@<TRIPOS>BOND
    1     1     2    1
    2     1     3    1
    3     1     4    2
    4     4     5    1
    5     4     6    1
    6     6     7    1
    7     6     8    1
    8     6     9    1
    9     9    10    1
   10     9    11    1
   11     9    12    1
   12    12    13    1
   13    12    14    1
   14    12    15    1
   15    15    16    1
   16    15    17    1
   17    15    18    1
   18    18    19    1
   19    18    20    2
@<TRIPOS>SUBSTRUCTURE
       1 MOL1            1 RESIDUE      1      MOL     
@<SCITEGIC>MOL_PROPERTY
VConf Rank
SciTegic.value.IntegerValue
272

@<SCITEGIC>MOL_PROPERTY
Conf_Id
SciTegic.value.IntegerValue
28

@<SCITEGIC>MOL_PROPERTY
Delta U+W
SciTegic.value.DoubleValue
0.446

@<SCITEGIC>MOL_PROPERTY
U+W
SciTegic.value.DoubleValue
-51.299

@<SCITEGIC>MOL_PROPERTY
Grad RMS
SciTegic.value.DoubleValue
0.000000

@<SCITEGIC>MOL_PROPERTY
U
SciTegic.value.DoubleValue
9.295

@<SCITEGIC>MOL_PROPERTY
W
SciTegic.value.DoubleValue
-60.594

@<SCITEGIC>MOL_PROPERTY
W(PB)
SciTegic.value.DoubleValue
-62.806

@<SCITEGIC>MOL_PROPERTY
W(SA)
SciTegic.value.DoubleValue
2.212

@<SCITEGIC>MOL_PROPERTY
Valence
SciTegic.value.DoubleValue
9.495

@<SCITEGIC>MOL_PROPERTY
Coulomb
SciTegic.value.DoubleValue
-0.610

@<SCITEGIC>MOL_PROPERTY
VdW
SciTegic.value.DoubleValue
0.409

@<SCITEGIC>MOL_PROPERTY
VdW6
SciTegic.value.DoubleValue
-7.332

@<SCITEGIC>MOL_PROPERTY
VdW12
SciTegic.value.DoubleValue
7.741

@<SCITEGIC>MOL_PROPERTY
Bond
SciTegic.value.DoubleValue
0.126

@<SCITEGIC>MOL_PROPERTY
Angle
SciTegic.value.DoubleValue
2.497

@<SCITEGIC>MOL_PROPERTY
Pdih
SciTegic.value.DoubleValue
6.872

@<SCITEGIC>MOL_PROPERTY
Idih
SciTegic.value.DoubleValue
0.000

@<SCITEGIC>MOL_PROPERTY
Tether
SciTegic.value.DoubleValue
0.000

@<TRIPOS>MOLECULE
guest-s22_confgen4.mol2 : confsearch ligand conformer 273
          20          19           1
SMALL
USER_CHARGES
 
@<TRIPOS>ATOM
       1    C1      18.479312   22.079728   21.882600 C.2        1 MOL1        -0.2535
       2    H1      18.230362   21.513157   20.987884 H          1 MOL1         0.0845
       3    H2      17.980355   23.038664   22.011534 H          1 MOL1         0.0845
       4    C2      19.351260   21.635073   22.794719 C.2        1 MOL1        -0.1324
       5    H3      19.558109   22.247096   23.672319 H          1 MOL1         0.0833
       6    C3      20.122731   20.326437   22.752751 C.3        1 MOL1        -0.1813
       7    H4      19.830387   19.724243   23.622554 H          1 MOL1         0.0753
       8    H5      21.190896   20.544235   22.884431 H          1 MOL1         0.0753
       9    C4      19.933680   19.497942   21.457971 C.3        1 MOL1        -0.1855
      10    H6      18.881011   19.198202   21.361965 H          1 MOL1         0.0755
      11    H7      20.160329   20.132904   20.590707 H          1 MOL1         0.0755
      12    C5      20.840158   18.243885   21.389402 C.3        1 MOL1        -0.1855
      13    H8      21.892501   18.555070   21.435496 H          1 MOL1         0.0755
      14    H9      20.704659   17.763612   20.410430 H          1 MOL1         0.0755
      15    C6      20.571043   17.192476   22.500606 C.3        1 MOL1        -0.1958
      16    H10     21.263023   16.351091   22.378572 H          1 MOL1         0.0753
      17    H11     20.770540   17.616016   23.491420 H          1 MOL1         0.0753
      18    C7      19.156300   16.620399   22.488894 C.2        1 MOL1         0.6174
      19    O1      18.848212   15.873463   21.580808 O.co2      1 MOL1        -0.6695
      20    O2      18.406836   16.919051   23.397721 O.co2      1 MOL1        -0.6695
@<TRIPOS>BOND
    1     1     2    1
    2     1     3    1
    3     1     4    2
    4     4     5    1
    5     4     6    1
    6     6     7    1
    7     6     8    1
    8     6     9    1
    9     9    10    1
   10     9    11    1
   11     9    12    1
   12    12    13    1
   13    12    14    1
   14    12    15    1
   15    15    16    1
   16    15    17    1
   17    15    18    1
   18    18    19    1
   19    18    20    2
@<TRIPOS>SUBSTRUCTURE
       1 MOL1            1 RESIDUE      1      MOL     
@<SCITEGIC>MOL_PROPERTY
VConf Rank
SciTegic.value.IntegerValue
273

@<SCITEGIC>MOL_PROPERTY
Conf_Id
SciTegic.value.IntegerValue
53

@<SCITEGIC>MOL_PROPERTY
Delta U+W
SciTegic.value.DoubleValue
0.549

@<SCITEGIC>MOL_PROPERTY
U+W
SciTegic.value.DoubleValue
-51.197

@<SCITEGIC>MOL_PROPERTY
Grad RMS
SciTegic.value.DoubleValue
0.000000

@<SCITEGIC>MOL_PROPERTY
U
SciTegic.value.DoubleValue
10.870

@<SCITEGIC>MOL_PROPERTY
W
SciTegic.value.DoubleValue
-62.067

@<SCITEGIC>MOL_PROPERTY
W(PB)
SciTegic.value.DoubleValue
-64.228

@<SCITEGIC>MOL_PROPERTY
W(SA)
SciTegic.value.DoubleValue
2.161

@<SCITEGIC>MOL_PROPERTY
Valence
SciTegic.value.DoubleValue
8.803

@<SCITEGIC>MOL_PROPERTY
Coulomb
SciTegic.value.DoubleValue
1.020

@<SCITEGIC>MOL_PROPERTY
VdW
SciTegic.value.DoubleValue
1.048

@<SCITEGIC>MOL_PROPERTY
VdW6
SciTegic.value.DoubleValue
-8.312

@<SCITEGIC>MOL_PROPERTY
VdW12
SciTegic.value.DoubleValue
9.360

@<SCITEGIC>MOL_PROPERTY
Bond
SciTegic.value.DoubleValue
0.212

@<SCITEGIC>MOL_PROPERTY
Angle
SciTegic.value.DoubleValue
3.379

@<SCITEGIC>MOL_PROPERTY
Pdih
SciTegic.value.DoubleValue
5.211

@<SCITEGIC>MOL_PROPERTY
Idih
SciTegic.value.DoubleValue
0.001

@<SCITEGIC>MOL_PROPERTY
Tether
SciTegic.value.DoubleValue
0.000

@<TRIPOS>MOLECULE
guest-s22_confgen4.mol2 : confsearch ligand conformer 274
          20          19           1
SMALL
USER_CHARGES
 
@<TRIPOS>ATOM
       1    C1      22.415232   18.337752   21.609301 C.2        1 MOL1        -0.2535
       2    H1      22.200401   18.971444   20.751641 H          1 MOL1         0.0845
       3    H2      23.207345   17.600258   21.492752 H          1 MOL1         0.0845
       4    C2      21.749332   18.451899   22.763512 C.2        1 MOL1        -0.1324
       5    H3      22.006147   17.793847   23.593161 H          1 MOL1         0.0833
       6    C3      20.623052   19.427642   23.062357 C.3        1 MOL1        -0.1813
       7    H4      21.036897   20.286663   23.606615 H          1 MOL1         0.0753
       8    H5      19.923932   18.960763   23.767931 H          1 MOL1         0.0753
       9    C4      19.825766   19.938462   21.833874 C.3        1 MOL1        -0.1855
      10    H6      19.097175   20.685904   22.176400 H          1 MOL1         0.0755
      11    H7      20.502833   20.475912   21.157079 H          1 MOL1         0.0755
      12    C5      19.076932   18.835431   21.040510 C.3        1 MOL1        -0.1855
      13    H8      19.800785   18.120071   20.629594 H          1 MOL1         0.0755
      14    H9      18.582463   19.298776   20.175738 H          1 MOL1         0.0755
      15    C6      18.013284   18.058977   21.863973 C.3        1 MOL1        -0.1958
      16    H10     17.542603   17.302087   21.225897 H          1 MOL1         0.0753
      17    H11     18.486133   17.516173   22.690278 H          1 MOL1         0.0753
      18    C7      16.898326   18.935190   22.427484 C.2        1 MOL1         0.6174
      19    O1      16.877654   19.142788   23.624828 O.co2      1 MOL1        -0.6695
      20    O2      16.068275   19.372747   21.654783 O.co2      1 MOL1        -0.6695
@<TRIPOS>BOND
    1     1     2    1
    2     1     3    1
    3     1     4    2
    4     4     5    1
    5     4     6    1
    6     6     7    1
    7     6     8    1
    8     6     9    1
    9     9    10    1
   10     9    11    1
   11     9    12    1
   12    12    13    1
   13    12    14    1
   14    12    15    1
   15    15    16    1
   16    15    17    1
   17    15    18    1
   18    18    19    1
   19    18    20    2
@<TRIPOS>SUBSTRUCTURE
       1 MOL1            1 RESIDUE      1      MOL     
@<SCITEGIC>MOL_PROPERTY
VConf Rank
SciTegic.value.IntegerValue
274

@<SCITEGIC>MOL_PROPERTY
Conf_Id
SciTegic.value.IntegerValue
66

@<SCITEGIC>MOL_PROPERTY
Delta U+W
SciTegic.value.DoubleValue
1.737

@<SCITEGIC>MOL_PROPERTY
U+W
SciTegic.value.DoubleValue
-50.008

@<SCITEGIC>MOL_PROPERTY
Grad RMS
SciTegic.value.DoubleValue
0.000000

@<SCITEGIC>MOL_PROPERTY
U
SciTegic.value.DoubleValue
11.091

@<SCITEGIC>MOL_PROPERTY
W
SciTegic.value.DoubleValue
-61.099

@<SCITEGIC>MOL_PROPERTY
W(PB)
SciTegic.value.DoubleValue
-63.213

@<SCITEGIC>MOL_PROPERTY
W(SA)
SciTegic.value.DoubleValue
2.114

@<SCITEGIC>MOL_PROPERTY
Valence
SciTegic.value.DoubleValue
9.664

@<SCITEGIC>MOL_PROPERTY
Coulomb
SciTegic.value.DoubleValue
0.658

@<SCITEGIC>MOL_PROPERTY
VdW
SciTegic.value.DoubleValue
0.769

@<SCITEGIC>MOL_PROPERTY
VdW6
SciTegic.value.DoubleValue
-9.171

@<SCITEGIC>MOL_PROPERTY
VdW12
SciTegic.value.DoubleValue
9.940

@<SCITEGIC>MOL_PROPERTY
Bond
SciTegic.value.DoubleValue
0.244

@<SCITEGIC>MOL_PROPERTY
Angle
SciTegic.value.DoubleValue
3.658

@<SCITEGIC>MOL_PROPERTY
Pdih
SciTegic.value.DoubleValue
5.762

@<SCITEGIC>MOL_PROPERTY
Idih
SciTegic.value.DoubleValue
0.001

@<SCITEGIC>MOL_PROPERTY
Tether
SciTegic.value.DoubleValue
0.000

@<TRIPOS>MOLECULE
guest-s22_confgen4.mol2 : confsearch ligand conformer 275
          20          19           1
SMALL
USER_CHARGES
 
@<TRIPOS>ATOM
       1    C1      17.441133   17.490198   21.346917 C.2        1 MOL1        -0.2535
       2    H1      17.351418   18.288605   20.613650 H          1 MOL1         0.0845
       3    H2      17.142625   16.492662   21.029505 H          1 MOL1         0.0845
       4    C2      17.890359   17.708520   22.587647 C.2        1 MOL1        -0.1324
       5    H3      17.957612   16.872144   23.282839 H          1 MOL1         0.0833
       6    C3      18.345035   19.039598   23.163929 C.3        1 MOL1        -0.1813
       7    H4      19.165144   18.859276   23.870014 H          1 MOL1         0.0753
       8    H5      17.532633   19.451317   23.777178 H          1 MOL1         0.0753
       9    C4      18.794382   20.107371   22.132298 C.3        1 MOL1        -0.1855
      10    H6      17.959324   20.336054   21.457112 H          1 MOL1         0.0755
      11    H7      19.008543   21.043473   22.665662 H          1 MOL1         0.0755
      12    C5      20.039618   19.716615   21.295998 C.3        1 MOL1        -0.1855
      13    H8      20.216641   20.499467   20.545674 H          1 MOL1         0.0755
      14    H9      19.846056   18.792466   20.735569 H          1 MOL1         0.0755
      15    C6      21.326003   19.541820   22.144277 C.3        1 MOL1        -0.1958
      16    H10     21.506056   20.438280   22.749330 H          1 MOL1         0.0753
      17    H11     21.219699   18.697430   22.834602 H          1 MOL1         0.0753
      18    C7      22.564896   19.291396   21.291823 C.2        1 MOL1         0.6174
      19    O1      22.869190   18.141444   21.043293 O.co2      1 MOL1        -0.6695
      20    O2      23.185732   20.254244   20.886337 O.co2      1 MOL1        -0.6695
@<TRIPOS>BOND
    1     1     2    1
    2     1     3    1
    3     1     4    2
    4     4     5    1
    5     4     6    1
    6     6     7    1
    7     6     8    1
    8     6     9    1
    9     9    10    1
   10     9    11    1
   11     9    12    1
   12    12    13    1
   13    12    14    1
   14    12    15    1
   15    15    16    1
   16    15    17    1
   17    15    18    1
   18    18    19    1
   19    18    20    2
@<TRIPOS>SUBSTRUCTURE
       1 MOL1            1 RESIDUE      1      MOL     
@<SCITEGIC>MOL_PROPERTY
VConf Rank
SciTegic.value.IntegerValue
275

@<SCITEGIC>MOL_PROPERTY
Conf_Id
SciTegic.value.IntegerValue
64

@<SCITEGIC>MOL_PROPERTY
Delta U+W
SciTegic.value.DoubleValue
0.366

@<SCITEGIC>MOL_PROPERTY
U+W
SciTegic.value.DoubleValue
-51.379

@<SCITEGIC>MOL_PROPERTY
Grad RMS
SciTegic.value.DoubleValue
0.000000

@<SCITEGIC>MOL_PROPERTY
U
SciTegic.value.DoubleValue
10.000

@<SCITEGIC>MOL_PROPERTY
W
SciTegic.value.DoubleValue
-61.379

@<SCITEGIC>MOL_PROPERTY
W(PB)
SciTegic.value.DoubleValue
-63.541

@<SCITEGIC>MOL_PROPERTY
W(SA)
SciTegic.value.DoubleValue
2.162

@<SCITEGIC>MOL_PROPERTY
Valence
SciTegic.value.DoubleValue
9.398

@<SCITEGIC>MOL_PROPERTY
Coulomb
SciTegic.value.DoubleValue
-0.504

@<SCITEGIC>MOL_PROPERTY
VdW
SciTegic.value.DoubleValue
1.105

@<SCITEGIC>MOL_PROPERTY
VdW6
SciTegic.value.DoubleValue
-7.975

@<SCITEGIC>MOL_PROPERTY
VdW12
SciTegic.value.DoubleValue
9.080

@<SCITEGIC>MOL_PROPERTY
Bond
SciTegic.value.DoubleValue
0.216

@<SCITEGIC>MOL_PROPERTY
Angle
SciTegic.value.DoubleValue
3.417

@<SCITEGIC>MOL_PROPERTY
Pdih
SciTegic.value.DoubleValue
5.765

@<SCITEGIC>MOL_PROPERTY
Idih
SciTegic.value.DoubleValue
0.001

@<SCITEGIC>MOL_PROPERTY
Tether
SciTegic.value.DoubleValue
0.000

@<TRIPOS>MOLECULE
guest-s22_confgen4.mol2 : confsearch ligand conformer 276
          20          19           1
SMALL
USER_CHARGES
 
@<TRIPOS>ATOM
       1    C1      18.919619   21.900411   22.238468 C.2        1 MOL1        -0.2535
       2    H1      19.325320   21.920008   23.248637 H          1 MOL1         0.0845
       3    H2      17.954059   22.376518   22.076853 H          1 MOL1         0.0845
       4    C2      19.576022   21.312554   21.234689 C.2        1 MOL1        -0.1324
       5    H3      19.151202   21.301881   20.231292 H          1 MOL1         0.0833
       6    C3      20.919709   20.630877   21.382344 C.3        1 MOL1        -0.1813
       7    H4      21.364996   20.861583   22.359671 H          1 MOL1         0.0753
       8    H5      21.609128   21.029386   20.626212 H          1 MOL1         0.0753
       9    C4      20.821401   19.098480   21.209034 C.3        1 MOL1        -0.1855
      10    H6      20.375404   18.867860   20.231801 H          1 MOL1         0.0755
      11    H7      21.835813   18.676867   21.199256 H          1 MOL1         0.0755
      12    C5      20.001205   18.422748   22.331642 C.3        1 MOL1        -0.1855
      13    H8      18.975615   18.816938   22.334681 H          1 MOL1         0.0755
      14    H9      20.438912   18.668690   23.308992 H          1 MOL1         0.0755
      15    C6      19.953503   16.884014   22.164185 C.3        1 MOL1        -0.1958
      16    H10     19.506987   16.622412   21.197347 H          1 MOL1         0.0753
      17    H11     20.968813   16.469885   22.175509 H          1 MOL1         0.0753
      18    C7      19.149160   16.194081   23.260141 C.2        1 MOL1         0.6174
      19    O1      19.727758   15.870019   24.278452 O.co2      1 MOL1        -0.6695
      20    O2      17.962502   16.011401   23.072627 O.co2      1 MOL1        -0.6695
@<TRIPOS>BOND
    1     1     2    1
    2     1     3    1
    3     1     4    2
    4     4     5    1
    5     4     6    1
    6     6     7    1
    7     6     8    1
    8     6     9    1
    9     9    10    1
   10     9    11    1
   11     9    12    1
   12    12    13    1
   13    12    14    1
   14    12    15    1
   15    15    16    1
   16    15    17    1
   17    15    18    1
   18    18    19    1
   19    18    20    2
@<TRIPOS>SUBSTRUCTURE
       1 MOL1            1 RESIDUE      1      MOL     
@<SCITEGIC>MOL_PROPERTY
VConf Rank
SciTegic.value.IntegerValue
276

@<SCITEGIC>MOL_PROPERTY
Conf_Id
SciTegic.value.IntegerValue
42

@<SCITEGIC>MOL_PROPERTY
Delta U+W
SciTegic.value.DoubleValue
-0.601

@<SCITEGIC>MOL_PROPERTY
U+W
SciTegic.value.DoubleValue
-52.347

@<SCITEGIC>MOL_PROPERTY
Grad RMS
SciTegic.value.DoubleValue
0.000000

@<SCITEGIC>MOL_PROPERTY
U
SciTegic.value.DoubleValue
8.428

@<SCITEGIC>MOL_PROPERTY
W
SciTegic.value.DoubleValue
-60.774

@<SCITEGIC>MOL_PROPERTY
W(PB)
SciTegic.value.DoubleValue
-62.982

@<SCITEGIC>MOL_PROPERTY
W(SA)
SciTegic.value.DoubleValue
2.208

@<SCITEGIC>MOL_PROPERTY
Valence
SciTegic.value.DoubleValue
9.231

@<SCITEGIC>MOL_PROPERTY
Coulomb
SciTegic.value.DoubleValue
-1.304

@<SCITEGIC>MOL_PROPERTY
VdW
SciTegic.value.DoubleValue
0.501

@<SCITEGIC>MOL_PROPERTY
VdW6
SciTegic.value.DoubleValue
-6.515

@<SCITEGIC>MOL_PROPERTY
VdW12
SciTegic.value.DoubleValue
7.016

@<SCITEGIC>MOL_PROPERTY
Bond
SciTegic.value.DoubleValue
0.103

@<SCITEGIC>MOL_PROPERTY
Angle
SciTegic.value.DoubleValue
2.328

@<SCITEGIC>MOL_PROPERTY
Pdih
SciTegic.value.DoubleValue
6.799

@<SCITEGIC>MOL_PROPERTY
Idih
SciTegic.value.DoubleValue
0.000

@<SCITEGIC>MOL_PROPERTY
Tether
SciTegic.value.DoubleValue
0.000

@<TRIPOS>MOLECULE
guest-s22_confgen4.mol2 : confsearch ligand conformer 277
          20          19           1
SMALL
USER_CHARGES
 
@<TRIPOS>ATOM
       1    C1      16.954763   20.189017   21.176971 C.2        1 MOL1        -0.2535
       2    H1      16.997654   19.662083   20.225185 H          1 MOL1         0.0845
       3    H2      16.481845   21.169507   21.186145 H          1 MOL1         0.0845
       4    C2      17.464958   19.658335   22.291467 C.2        1 MOL1        -0.1324
       5    H3      17.414263   20.203623   23.233538 H          1 MOL1         0.0833
       6    C3      18.137649   18.303651   22.356461 C.3        1 MOL1        -0.1813
       7    H4      17.973722   17.745325   21.424790 H          1 MOL1         0.0753
       8    H5      17.675680   17.711649   23.157665 H          1 MOL1         0.0753
       9    C4      19.654195   18.415812   22.631173 C.3        1 MOL1        -0.1855
      10    H6      19.815617   18.968682   23.566916 H          1 MOL1         0.0755
      11    H7      20.062371   17.408203   22.788834 H          1 MOL1         0.0755
      12    C5      20.421134   19.099925   21.474858 C.3        1 MOL1        -0.1855
      13    H8      20.051093   20.124847   21.333584 H          1 MOL1         0.0755
      14    H9      20.220786   18.560914   20.539145 H          1 MOL1         0.0755
      15    C6      21.952444   19.139180   21.716459 C.3        1 MOL1        -0.1958
      16    H10     22.336247   18.125490   21.883354 H          1 MOL1         0.0753
      17    H11     22.454568   19.525403   20.821643 H          1 MOL1         0.0753
      18    C7      22.371978   20.018028   22.891376 C.2        1 MOL1         0.6174
      19    O1      22.684128   19.475843   23.933375 O.co2      1 MOL1        -0.6695
      20    O2      22.392873   21.222034   22.726976 O.co2      1 MOL1        -0.6695
@<TRIPOS>BOND
    1     1     2    1
    2     1     3    1
    3     1     4    2
    4     4     5    1
    5     4     6    1
    6     6     7    1
    7     6     8    1
    8     6     9    1
    9     9    10    1
   10     9    11    1
   11     9    12    1
   12    12    13    1
   13    12    14    1
   14    12    15    1
   15    15    16    1
   16    15    17    1
   17    15    18    1
   18    18    19    1
   19    18    20    2
@<TRIPOS>SUBSTRUCTURE
       1 MOL1            1 RESIDUE      1      MOL     
@<SCITEGIC>MOL_PROPERTY
VConf Rank
SciTegic.value.IntegerValue
277

@<SCITEGIC>MOL_PROPERTY
Conf_Id
SciTegic.value.IntegerValue
68

@<SCITEGIC>MOL_PROPERTY
Delta U+W
SciTegic.value.DoubleValue
0.492

@<SCITEGIC>MOL_PROPERTY
U+W
SciTegic.value.DoubleValue
-51.253

@<SCITEGIC>MOL_PROPERTY
Grad RMS
SciTegic.value.DoubleValue
0.000000

@<SCITEGIC>MOL_PROPERTY
U
SciTegic.value.DoubleValue
10.179

@<SCITEGIC>MOL_PROPERTY
W
SciTegic.value.DoubleValue
-61.432

@<SCITEGIC>MOL_PROPERTY
W(PB)
SciTegic.value.DoubleValue
-63.627

@<SCITEGIC>MOL_PROPERTY
W(SA)
SciTegic.value.DoubleValue
2.195

@<SCITEGIC>MOL_PROPERTY
Valence
SciTegic.value.DoubleValue
9.483

@<SCITEGIC>MOL_PROPERTY
Coulomb
SciTegic.value.DoubleValue
0.361

@<SCITEGIC>MOL_PROPERTY
VdW
SciTegic.value.DoubleValue
0.335

@<SCITEGIC>MOL_PROPERTY
VdW6
SciTegic.value.DoubleValue
-7.385

@<SCITEGIC>MOL_PROPERTY
VdW12
SciTegic.value.DoubleValue
7.720

@<SCITEGIC>MOL_PROPERTY
Bond
SciTegic.value.DoubleValue
0.125

@<SCITEGIC>MOL_PROPERTY
Angle
SciTegic.value.DoubleValue
2.487

@<SCITEGIC>MOL_PROPERTY
Pdih
SciTegic.value.DoubleValue
6.870

@<SCITEGIC>MOL_PROPERTY
Idih
SciTegic.value.DoubleValue
0.001

@<SCITEGIC>MOL_PROPERTY
Tether
SciTegic.value.DoubleValue
0.000

@<TRIPOS>MOLECULE
guest-s22_confgen4.mol2 : confsearch ligand conformer 278
          20          19           1
SMALL
USER_CHARGES
 
@<TRIPOS>ATOM
       1    C1      16.788282   19.581082   23.450488 C.2        1 MOL1        -0.2535
       2    H1      16.761143   20.641806   23.694657 H          1 MOL1         0.0845
       3    H2      16.252437   18.901047   24.110488 H          1 MOL1         0.0845
       4    C2      17.454743   19.127373   22.385747 C.2        1 MOL1        -0.1324
       5    H3      17.466664   18.061876   22.158106 H          1 MOL1         0.0833
       6    C3      18.216116   20.012445   21.422035 C.3        1 MOL1        -0.1813
       7    H4      17.869543   21.050207   21.519276 H          1 MOL1         0.0753
       8    H5      18.000274   19.712051   20.388027 H          1 MOL1         0.0753
       9    C4      19.741212   19.974808   21.668703 C.3        1 MOL1        -0.1855
      10    H6      20.221845   20.729581   21.031478 H          1 MOL1         0.0755
      11    H7      19.948406   20.265207   22.708096 H          1 MOL1         0.0755
      12    C5      20.364309   18.589837   21.373176 C.3        1 MOL1        -0.1855
      13    H8      20.108763   18.288686   20.348327 H          1 MOL1         0.0755
      14    H9      19.933684   17.832759   22.042662 H          1 MOL1         0.0755
      15    C6      21.907242   18.586359   21.528735 C.3        1 MOL1        -0.1958
      16    H10     22.306636   17.620648   21.197233 H          1 MOL1         0.0753
      17    H11     22.355241   19.352950   20.884996 H          1 MOL1         0.0753
      18    C7      22.386263   18.811954   22.959987 C.2        1 MOL1         0.6174
      19    O1      22.326035   17.879591   23.737277 O.co2      1 MOL1        -0.6695
      20    O2      22.824636   19.906523   23.254725 O.co2      1 MOL1        -0.6695
@<TRIPOS>BOND
    1     1     2    1
    2     1     3    1
    3     1     4    2
    4     4     5    1
    5     4     6    1
    6     6     7    1
    7     6     8    1
    8     6     9    1
    9     9    10    1
   10     9    11    1
   11     9    12    1
   12    12    13    1
   13    12    14    1
   14    12    15    1
   15    15    16    1
   16    15    17    1
   17    15    18    1
   18    18    19    1
   19    18    20    2
@<TRIPOS>SUBSTRUCTURE
       1 MOL1            1 RESIDUE      1      MOL     
@<SCITEGIC>MOL_PROPERTY
VConf Rank
SciTegic.value.IntegerValue
278

@<SCITEGIC>MOL_PROPERTY
Conf_Id
SciTegic.value.IntegerValue
87

@<SCITEGIC>MOL_PROPERTY
Delta U+W
SciTegic.value.DoubleValue
0.339

@<SCITEGIC>MOL_PROPERTY
U+W
SciTegic.value.DoubleValue
-51.407

@<SCITEGIC>MOL_PROPERTY
Grad RMS
SciTegic.value.DoubleValue
0.000000

@<SCITEGIC>MOL_PROPERTY
U
SciTegic.value.DoubleValue
10.461

@<SCITEGIC>MOL_PROPERTY
W
SciTegic.value.DoubleValue
-61.867

@<SCITEGIC>MOL_PROPERTY
W(PB)
SciTegic.value.DoubleValue
-64.045

@<SCITEGIC>MOL_PROPERTY
W(SA)
SciTegic.value.DoubleValue
2.178

@<SCITEGIC>MOL_PROPERTY
Valence
SciTegic.value.DoubleValue
9.555

@<SCITEGIC>MOL_PROPERTY
Coulomb
SciTegic.value.DoubleValue
0.483

@<SCITEGIC>MOL_PROPERTY
VdW
SciTegic.value.DoubleValue
0.423

@<SCITEGIC>MOL_PROPERTY
VdW6
SciTegic.value.DoubleValue
-7.223

@<SCITEGIC>MOL_PROPERTY
VdW12
SciTegic.value.DoubleValue
7.646

@<SCITEGIC>MOL_PROPERTY
Bond
SciTegic.value.DoubleValue
0.126

@<SCITEGIC>MOL_PROPERTY
Angle
SciTegic.value.DoubleValue
2.492

@<SCITEGIC>MOL_PROPERTY
Pdih
SciTegic.value.DoubleValue
6.936

@<SCITEGIC>MOL_PROPERTY
Idih
SciTegic.value.DoubleValue
0.001

@<SCITEGIC>MOL_PROPERTY
Tether
SciTegic.value.DoubleValue
0.000

@<TRIPOS>MOLECULE
guest-s22_confgen4.mol2 : confsearch ligand conformer 279
          20          19           1
SMALL
USER_CHARGES
 
@<TRIPOS>ATOM
       1    C1      20.779815   16.476770   22.731906 C.2        1 MOL1        -0.2535
       2    H1      21.807944   16.586958   22.390987 H          1 MOL1         0.0845
       3    H2      20.614548   15.938132   23.663343 H          1 MOL1         0.0845
       4    C2      19.758725   16.984417   22.036648 C.2        1 MOL1        -0.1324
       5    H3      18.736083   16.855953   22.389476 H          1 MOL1         0.0833
       6    C3      19.914102   17.732278   20.729679 C.3        1 MOL1        -0.1813
       7    H4      18.961968   17.744203   20.182657 H          1 MOL1         0.0753
       8    H5      20.616393   17.177522   20.092936 H          1 MOL1         0.0753
       9    C4      20.444636   19.177260   20.902095 C.3        1 MOL1        -0.1855
      10    H6      21.290088   19.185903   21.603573 H          1 MOL1         0.0755
      11    H7      20.851999   19.504240   19.935724 H          1 MOL1         0.0755
      12    C5      19.380281   20.215387   21.338605 C.3        1 MOL1        -0.1855
      13    H8      18.530290   20.194084   20.642830 H          1 MOL1         0.0755
      14    H9      19.821919   21.217982   21.253473 H          1 MOL1         0.0755
      15    C6      18.867234   20.030151   22.789720 C.3        1 MOL1        -0.1958
      16    H10     18.288945   19.105050   22.878317 H          1 MOL1         0.0753
      17    H11     19.712149   19.956126   23.484675 H          1 MOL1         0.0753
      18    C7      17.973231   21.175791   23.250044 C.2        1 MOL1         0.6174
      19    O1      16.780998   21.098863   23.027446 O.co2      1 MOL1        -0.6695
      20    O2      18.495006   22.125239   23.800663 O.co2      1 MOL1        -0.6695
@<TRIPOS>BOND
    1     1     2    1
    2     1     3    1
    3     1     4    2
    4     4     5    1
    5     4     6    1
    6     6     7    1
    7     6     8    1
    8     6     9    1
    9     9    10    1
   10     9    11    1
   11     9    12    1
   12    12    13    1
   13    12    14    1
   14    12    15    1
   15    15    16    1
   16    15    17    1
   17    15    18    1
   18    18    19    1
   19    18    20    2
@<TRIPOS>SUBSTRUCTURE
       1 MOL1            1 RESIDUE      1      MOL     
@<SCITEGIC>MOL_PROPERTY
VConf Rank
SciTegic.value.IntegerValue
279

@<SCITEGIC>MOL_PROPERTY
Conf_Id
SciTegic.value.IntegerValue
51

@<SCITEGIC>MOL_PROPERTY
Delta U+W
SciTegic.value.DoubleValue
1.709

@<SCITEGIC>MOL_PROPERTY
U+W
SciTegic.value.DoubleValue
-50.036

@<SCITEGIC>MOL_PROPERTY
Grad RMS
SciTegic.value.DoubleValue
0.000000

@<SCITEGIC>MOL_PROPERTY
U
SciTegic.value.DoubleValue
10.643

@<SCITEGIC>MOL_PROPERTY
W
SciTegic.value.DoubleValue
-60.679

@<SCITEGIC>MOL_PROPERTY
W(PB)
SciTegic.value.DoubleValue
-62.882

@<SCITEGIC>MOL_PROPERTY
W(SA)
SciTegic.value.DoubleValue
2.203

@<SCITEGIC>MOL_PROPERTY
Valence
SciTegic.value.DoubleValue
11.231

@<SCITEGIC>MOL_PROPERTY
Coulomb
SciTegic.value.DoubleValue
-1.077

@<SCITEGIC>MOL_PROPERTY
VdW
SciTegic.value.DoubleValue
0.489

@<SCITEGIC>MOL_PROPERTY
VdW6
SciTegic.value.DoubleValue
-7.546

@<SCITEGIC>MOL_PROPERTY
VdW12
SciTegic.value.DoubleValue
8.035

@<SCITEGIC>MOL_PROPERTY
Bond
SciTegic.value.DoubleValue
0.159

@<SCITEGIC>MOL_PROPERTY
Angle
SciTegic.value.DoubleValue
3.005

@<SCITEGIC>MOL_PROPERTY
Pdih
SciTegic.value.DoubleValue
8.065

@<SCITEGIC>MOL_PROPERTY
Idih
SciTegic.value.DoubleValue
0.002

@<SCITEGIC>MOL_PROPERTY
Tether
SciTegic.value.DoubleValue
0.000

@<TRIPOS>MOLECULE
guest-s22_confgen4.mol2 : confsearch ligand conformer 280
          20          19           1
SMALL
USER_CHARGES
 
@<TRIPOS>ATOM
       1    C1      21.987230   18.259324   20.671962 C.2        1 MOL1        -0.2535
       2    H1      22.301945   17.408917   21.274605 H          1 MOL1         0.0845
       3    H2      22.766185   18.896670   20.257186 H          1 MOL1         0.0845
       4    C2      20.695040   18.514404   20.450845 C.2        1 MOL1        -0.1324
       5    H3      20.400122   19.365124   19.837581 H          1 MOL1         0.0833
       6    C3      19.561672   17.664813   20.984956 C.3        1 MOL1        -0.1813
       7    H4      19.811136   16.608092   20.819076 H          1 MOL1         0.0753
       8    H5      18.644753   17.848165   20.409129 H          1 MOL1         0.0753
       9    C4      19.289695   17.873416   22.495480 C.3        1 MOL1        -0.1855
      10    H6      18.728037   17.002622   22.860162 H          1 MOL1         0.0755
      11    H7      20.237366   17.874632   23.051223 H          1 MOL1         0.0755
      12    C5      18.468139   19.140829   22.841624 C.3        1 MOL1        -0.1855
      13    H8      18.186093   19.089285   23.902417 H          1 MOL1         0.0755
      14    H9      17.527764   19.143167   22.273534 H          1 MOL1         0.0755
      15    C6      19.222110   20.473970   22.601764 C.3        1 MOL1        -0.1958
      16    H10     20.204733   20.447227   23.087623 H          1 MOL1         0.0753
      17    H11     19.390468   20.633841   21.532100 H          1 MOL1         0.0753
      18    C7      18.463128   21.684652   23.132626 C.2        1 MOL1         0.6174
      19    O1      17.665760   22.230794   22.395861 O.co2      1 MOL1        -0.6695
      20    O2      18.673868   22.037835   24.276188 O.co2      1 MOL1        -0.6695
@<TRIPOS>BOND
    1     1     2    1
    2     1     3    1
    3     1     4    2
    4     4     5    1
    5     4     6    1
    6     6     7    1
    7     6     8    1
    8     6     9    1
    9     9    10    1
   10     9    11    1
   11     9    12    1
   12    12    13    1
   13    12    14    1
   14    12    15    1
   15    15    16    1
   16    15    17    1
   17    15    18    1
   18    18    19    1
   19    18    20    2
@<TRIPOS>SUBSTRUCTURE
       1 MOL1            1 RESIDUE      1      MOL     
@<SCITEGIC>MOL_PROPERTY
VConf Rank
SciTegic.value.IntegerValue
280

@<SCITEGIC>MOL_PROPERTY
Conf_Id
SciTegic.value.IntegerValue
91

@<SCITEGIC>MOL_PROPERTY
Delta U+W
SciTegic.value.DoubleValue
1.604

@<SCITEGIC>MOL_PROPERTY
U+W
SciTegic.value.DoubleValue
-50.141

@<SCITEGIC>MOL_PROPERTY
Grad RMS
SciTegic.value.DoubleValue
0.000000

@<SCITEGIC>MOL_PROPERTY
U
SciTegic.value.DoubleValue
10.644

@<SCITEGIC>MOL_PROPERTY
W
SciTegic.value.DoubleValue
-60.786

@<SCITEGIC>MOL_PROPERTY
W(PB)
SciTegic.value.DoubleValue
-62.965

@<SCITEGIC>MOL_PROPERTY
W(SA)
SciTegic.value.DoubleValue
2.179

@<SCITEGIC>MOL_PROPERTY
Valence
SciTegic.value.DoubleValue
11.230

@<SCITEGIC>MOL_PROPERTY
Coulomb
SciTegic.value.DoubleValue
-1.075

@<SCITEGIC>MOL_PROPERTY
VdW
SciTegic.value.DoubleValue
0.489

@<SCITEGIC>MOL_PROPERTY
VdW6
SciTegic.value.DoubleValue
-7.547

@<SCITEGIC>MOL_PROPERTY
VdW12
SciTegic.value.DoubleValue
8.036

@<SCITEGIC>MOL_PROPERTY
Bond
SciTegic.value.DoubleValue
0.159

@<SCITEGIC>MOL_PROPERTY
Angle
SciTegic.value.DoubleValue
3.006

@<SCITEGIC>MOL_PROPERTY
Pdih
SciTegic.value.DoubleValue
8.064

@<SCITEGIC>MOL_PROPERTY
Idih
SciTegic.value.DoubleValue
0.002

@<SCITEGIC>MOL_PROPERTY
Tether
SciTegic.value.DoubleValue
0.000

@<TRIPOS>MOLECULE
guest-s22_confgen4.mol2 : confsearch ligand conformer 281
          20          19           1
SMALL
USER_CHARGES
 
@<TRIPOS>ATOM
       1    C1      16.122661   18.983000   21.624569 C.2        1 MOL1        -0.2535
       2    H1      16.080259   19.264786   22.675468 H          1 MOL1         0.0845
       3    H2      15.231978   18.531711   21.190636 H          1 MOL1         0.0845
       4    C2      17.222992   19.179144   20.893508 C.2        1 MOL1        -0.1324
       5    H3      17.244924   18.889195   19.843219 H          1 MOL1         0.0833
       6    C3      18.495162   19.799994   21.426209 C.3        1 MOL1        -0.1813
       7    H4      18.304017   20.291215   22.390040 H          1 MOL1         0.0753
       8    H5      18.839526   20.581815   20.736054 H          1 MOL1         0.0753
       9    C4      19.602121   18.739296   21.600657 C.3        1 MOL1        -0.1855
      10    H6      19.251047   17.957599   22.288466 H          1 MOL1         0.0755
      11    H7      19.796142   18.251487   20.635483 H          1 MOL1         0.0755
      12    C5      20.910097   19.357180   22.141521 C.3        1 MOL1        -0.1855
      13    H8      20.716935   19.844861   23.107129 H          1 MOL1         0.0755
      14    H9      21.261049   20.139893   21.454704 H          1 MOL1         0.0755
      15    C6      22.022925   18.289923   22.317509 C.3        1 MOL1        -0.1958
      16    H10     21.681725   17.508814   23.006976 H          1 MOL1         0.0753
      17    H11     22.225445   17.803456   21.356134 H          1 MOL1         0.0753
      18    C7      23.355410   18.818567   22.850740 C.2        1 MOL1         0.6174
      19    O1      24.251785   18.012216   23.000569 O.co2      1 MOL1        -0.6695
      20    O2      23.476876   20.001790   23.103477 O.co2      1 MOL1        -0.6695
@<TRIPOS>BOND
    1     1     2    1
    2     1     3    1
    3     1     4    2
    4     4     5    1
    5     4     6    1
    6     6     7    1
    7     6     8    1
    8     6     9    1
    9     9    10    1
   10     9    11    1
   11     9    12    1
   12    12    13    1
   13    12    14    1
   14    12    15    1
   15    15    16    1
   16    15    17    1
   17    15    18    1
   18    18    19    1
   19    18    20    2
@<TRIPOS>SUBSTRUCTURE
       1 MOL1            1 RESIDUE      1      MOL     
@<SCITEGIC>MOL_PROPERTY
VConf Rank
SciTegic.value.IntegerValue
281

@<SCITEGIC>MOL_PROPERTY
Conf_Id
SciTegic.value.IntegerValue
33

@<SCITEGIC>MOL_PROPERTY
Delta U+W
SciTegic.value.DoubleValue
0.000

@<SCITEGIC>MOL_PROPERTY
U+W
SciTegic.value.DoubleValue
-51.745

@<SCITEGIC>MOL_PROPERTY
Grad RMS
SciTegic.value.DoubleValue
0.000000

@<SCITEGIC>MOL_PROPERTY
U
SciTegic.value.DoubleValue
7.593

@<SCITEGIC>MOL_PROPERTY
W
SciTegic.value.DoubleValue
-59.338

@<SCITEGIC>MOL_PROPERTY
W(PB)
SciTegic.value.DoubleValue
-61.574

@<SCITEGIC>MOL_PROPERTY
W(SA)
SciTegic.value.DoubleValue
2.236

@<SCITEGIC>MOL_PROPERTY
Valence
SciTegic.value.DoubleValue
9.570

@<SCITEGIC>MOL_PROPERTY
Coulomb
SciTegic.value.DoubleValue
-3.091

@<SCITEGIC>MOL_PROPERTY
VdW
SciTegic.value.DoubleValue
1.114

@<SCITEGIC>MOL_PROPERTY
VdW6
SciTegic.value.DoubleValue
-6.064

@<SCITEGIC>MOL_PROPERTY
VdW12
SciTegic.value.DoubleValue
7.178

@<SCITEGIC>MOL_PROPERTY
Bond
SciTegic.value.DoubleValue
0.117

@<SCITEGIC>MOL_PROPERTY
Angle
SciTegic.value.DoubleValue
2.692

@<SCITEGIC>MOL_PROPERTY
Pdih
SciTegic.value.DoubleValue
6.761

@<SCITEGIC>MOL_PROPERTY
Idih
SciTegic.value.DoubleValue
0.000

@<SCITEGIC>MOL_PROPERTY
Tether
SciTegic.value.DoubleValue
0.000

@<TRIPOS>MOLECULE
guest-s22_confgen4.mol2 : confsearch ligand conformer 282
          20          19           1
SMALL
USER_CHARGES
 
@<TRIPOS>ATOM
       1    C1      18.561622   20.789736   18.969543 C.2        1 MOL1        -0.2535
       2    H1      19.058234   20.053143   18.339950 H          1 MOL1         0.0845
       3    H2      18.174652   21.684152   18.484226 H          1 MOL1         0.0845
       4    C2      18.432310   20.608281   20.286367 C.2        1 MOL1        -0.1324
       5    H3      17.932494   21.358365   20.898895 H          1 MOL1         0.0833
       6    C3      18.942681   19.393502   21.029034 C.3        1 MOL1        -0.1813
       7    H4      19.191509   18.592057   20.320255 H          1 MOL1         0.0753
       8    H5      18.146363   19.007561   21.677863 H          1 MOL1         0.0753
       9    C4      20.190863   19.741795   21.870783 C.3        1 MOL1        -0.1855
      10    H6      20.941617   20.204125   21.215071 H          1 MOL1         0.0755
      11    H7      19.929554   20.497638   22.624051 H          1 MOL1         0.0755
      12    C5      20.829842   18.514916   22.564075 C.3        1 MOL1        -0.1855
      13    H8      21.767360   18.829716   23.043090 H          1 MOL1         0.0755
      14    H9      21.103923   17.763548   21.810604 H          1 MOL1         0.0755
      15    C6      19.917009   17.864523   23.635848 C.3        1 MOL1        -0.1958
      16    H10     19.601767   18.614984   24.370569 H          1 MOL1         0.0753
      17    H11     19.009515   17.457821   23.175641 H          1 MOL1         0.0753
      18    C7      20.605148   16.729217   24.385192 C.2        1 MOL1         0.6174
      19    O1      20.521247   15.606303   23.928320 O.co2      1 MOL1        -0.6695
      20    O2      21.223656   17.000665   25.395389 O.co2      1 MOL1        -0.6695
@<TRIPOS>BOND
    1     1     2    1
    2     1     3    1
    3     1     4    2
    4     4     5    1
    5     4     6    1
    6     6     7    1
    7     6     8    1
    8     6     9    1
    9     9    10    1
   10     9    11    1
   11     9    12    1
   12    12    13    1
   13    12    14    1
   14    12    15    1
   15    15    16    1
   16    15    17    1
   17    15    18    1
   18    18    19    1
   19    18    20    2
@<TRIPOS>SUBSTRUCTURE
       1 MOL1            1 RESIDUE      1      MOL     
@<SCITEGIC>MOL_PROPERTY
VConf Rank
SciTegic.value.IntegerValue
282

@<SCITEGIC>MOL_PROPERTY
Conf_Id
SciTegic.value.IntegerValue
37

@<SCITEGIC>MOL_PROPERTY
Delta U+W
SciTegic.value.DoubleValue
-0.384

@<SCITEGIC>MOL_PROPERTY
U+W
SciTegic.value.DoubleValue
-52.130

@<SCITEGIC>MOL_PROPERTY
Grad RMS
SciTegic.value.DoubleValue
0.000000

@<SCITEGIC>MOL_PROPERTY
U
SciTegic.value.DoubleValue
7.491

@<SCITEGIC>MOL_PROPERTY
W
SciTegic.value.DoubleValue
-59.621

@<SCITEGIC>MOL_PROPERTY
W(PB)
SciTegic.value.DoubleValue
-61.853

@<SCITEGIC>MOL_PROPERTY
W(SA)
SciTegic.value.DoubleValue
2.232

@<SCITEGIC>MOL_PROPERTY
Valence
SciTegic.value.DoubleValue
9.604

@<SCITEGIC>MOL_PROPERTY
Coulomb
SciTegic.value.DoubleValue
-2.799

@<SCITEGIC>MOL_PROPERTY
VdW
SciTegic.value.DoubleValue
0.686

@<SCITEGIC>MOL_PROPERTY
VdW6
SciTegic.value.DoubleValue
-6.435

@<SCITEGIC>MOL_PROPERTY
VdW12
SciTegic.value.DoubleValue
7.121

@<SCITEGIC>MOL_PROPERTY
Bond
SciTegic.value.DoubleValue
0.124

@<SCITEGIC>MOL_PROPERTY
Angle
SciTegic.value.DoubleValue
2.493

@<SCITEGIC>MOL_PROPERTY
Pdih
SciTegic.value.DoubleValue
6.986

@<SCITEGIC>MOL_PROPERTY
Idih
SciTegic.value.DoubleValue
0.001

@<SCITEGIC>MOL_PROPERTY
Tether
SciTegic.value.DoubleValue
0.000

@<TRIPOS>MOLECULE
guest-s22_confgen4.mol2 : confsearch ligand conformer 283
          20          19           1
SMALL
USER_CHARGES
 
@<TRIPOS>ATOM
       1    C1      20.224588   19.558178   18.625572 C.2        1 MOL1        -0.2535
       2    H1      20.359408   19.751952   17.562809 H          1 MOL1         0.0845
       3    H2      20.550511   18.587323   18.992671 H          1 MOL1         0.0845
       4    C2      19.681726   20.483256   19.425226 C.2        1 MOL1        -0.1324
       5    H3      19.374378   21.437873   18.998762 H          1 MOL1         0.0833
       6    C3      19.431097   20.358977   20.918797 C.3        1 MOL1        -0.1813
       7    H4      18.362274   20.521617   21.111930 H          1 MOL1         0.0753
       8    H5      19.952729   21.177064   21.433354 H          1 MOL1         0.0753
       9    C4      19.860111   19.011177   21.544387 C.3        1 MOL1        -0.1855
      10    H6      19.325860   18.189534   21.047832 H          1 MOL1         0.0755
      11    H7      20.933567   18.852081   21.372721 H          1 MOL1         0.0755
      12    C5      19.571967   18.966699   23.060967 C.3        1 MOL1        -0.1855
      13    H8      18.499314   19.125343   23.239444 H          1 MOL1         0.0755
      14    H9      20.103729   19.786538   23.563659 H          1 MOL1         0.0755
      15    C6      20.000701   17.618039   23.689765 C.3        1 MOL1        -0.1958
      16    H10     19.468423   16.789182   23.207812 H          1 MOL1         0.0753
      17    H11     21.072885   17.450365   23.531941 H          1 MOL1         0.0753
      18    C7      19.726272   17.549632   25.187763 C.2        1 MOL1         0.6174
      19    O1      18.645569   17.132132   25.554400 O.co2      1 MOL1        -0.6695
      20    O2      20.592955   17.934180   25.947783 O.co2      1 MOL1        -0.6695
@<TRIPOS>BOND
    1     1     2    1
    2     1     3    1
    3     1     4    2
    4     4     5    1
    5     4     6    1
    6     6     7    1
    7     6     8    1
    8     6     9    1
    9     9    10    1
   10     9    11    1
   11     9    12    1
   12    12    13    1
   13    12    14    1
   14    12    15    1
   15    15    16    1
   16    15    17    1
   17    15    18    1
   18    18    19    1
   19    18    20    2
@<TRIPOS>SUBSTRUCTURE
       1 MOL1            1 RESIDUE      1      MOL     
@<SCITEGIC>MOL_PROPERTY
VConf Rank
SciTegic.value.IntegerValue
283

@<SCITEGIC>MOL_PROPERTY
Conf_Id
SciTegic.value.IntegerValue
44

@<SCITEGIC>MOL_PROPERTY
Delta U+W
SciTegic.value.DoubleValue
-1.440

@<SCITEGIC>MOL_PROPERTY
U+W
SciTegic.value.DoubleValue
-53.185

@<SCITEGIC>MOL_PROPERTY
Grad RMS
SciTegic.value.DoubleValue
0.000000

@<SCITEGIC>MOL_PROPERTY
U
SciTegic.value.DoubleValue
6.572

@<SCITEGIC>MOL_PROPERTY
W
SciTegic.value.DoubleValue
-59.757

@<SCITEGIC>MOL_PROPERTY
W(PB)
SciTegic.value.DoubleValue
-62.007

@<SCITEGIC>MOL_PROPERTY
W(SA)
SciTegic.value.DoubleValue
2.249

@<SCITEGIC>MOL_PROPERTY
Valence
SciTegic.value.DoubleValue
7.989

@<SCITEGIC>MOL_PROPERTY
Coulomb
SciTegic.value.DoubleValue
-2.697

@<SCITEGIC>MOL_PROPERTY
VdW
SciTegic.value.DoubleValue
1.281

@<SCITEGIC>MOL_PROPERTY
VdW6
SciTegic.value.DoubleValue
-6.467

@<SCITEGIC>MOL_PROPERTY
VdW12
SciTegic.value.DoubleValue
7.748

@<SCITEGIC>MOL_PROPERTY
Bond
SciTegic.value.DoubleValue
0.136

@<SCITEGIC>MOL_PROPERTY
Angle
SciTegic.value.DoubleValue
2.854

@<SCITEGIC>MOL_PROPERTY
Pdih
SciTegic.value.DoubleValue
4.997

@<SCITEGIC>MOL_PROPERTY
Idih
SciTegic.value.DoubleValue
0.001

@<SCITEGIC>MOL_PROPERTY
Tether
SciTegic.value.DoubleValue
0.000

@<TRIPOS>MOLECULE
guest-s22_confgen4.mol2 : confsearch ligand conformer 284
          20          19           1
SMALL
USER_CHARGES
 
@<TRIPOS>ATOM
       1    C1      17.947888   17.057943   19.797638 C.2        1 MOL1        -0.2535
       2    H1      18.898822   17.044589   19.267427 H          1 MOL1         0.0845
       3    H2      17.071726   16.693323   19.264114 H          1 MOL1         0.0845
       4    C2      17.854956   17.505737   21.052453 C.2        1 MOL1        -0.1324
       5    H3      16.893249   17.511094   21.565024 H          1 MOL1         0.0833
       6    C3      19.026254   18.025249   21.856235 C.3        1 MOL1        -0.1813
       7    H4      19.967964   17.732687   21.374373 H          1 MOL1         0.0753
       8    H5      19.021903   17.561994   22.851879 H          1 MOL1         0.0753
       9    C4      18.962827   19.562584   21.999547 C.3        1 MOL1        -0.1855
      10    H6      19.022333   20.027162   21.005656 H          1 MOL1         0.0755
      11    H7      17.983936   19.840948   22.413516 H          1 MOL1         0.0755
      12    C5      20.067775   20.143868   22.913615 C.3        1 MOL1        -0.1855
      13    H8      20.003357   19.687192   23.910947 H          1 MOL1         0.0755
      14    H9      19.881239   21.217914   23.051928 H          1 MOL1         0.0755
      15    C6      21.500141   19.956283   22.349526 C.3        1 MOL1        -0.1958
      16    H10     21.753967   18.892312   22.284403 H          1 MOL1         0.0753
      17    H11     21.564869   20.369443   21.335867 H          1 MOL1         0.0753
      18    C7      22.563775   20.634606   23.205383 C.2        1 MOL1         0.6174
      19    O1      22.854183   21.787226   22.952669 O.co2      1 MOL1        -0.6695
      20    O2      23.059621   19.999192   24.114833 O.co2      1 MOL1        -0.6695
@<TRIPOS>BOND
    1     1     2    1
    2     1     3    1
    3     1     4    2
    4     4     5    1
    5     4     6    1
    6     6     7    1
    7     6     8    1
    8     6     9    1
    9     9    10    1
   10     9    11    1
   11     9    12    1
   12    12    13    1
   13    12    14    1
   14    12    15    1
   15    15    16    1
   16    15    17    1
   17    15    18    1
   18    18    19    1
   19    18    20    2
@<TRIPOS>SUBSTRUCTURE
       1 MOL1            1 RESIDUE      1      MOL     
@<SCITEGIC>MOL_PROPERTY
VConf Rank
SciTegic.value.IntegerValue
284

@<SCITEGIC>MOL_PROPERTY
Conf_Id
SciTegic.value.IntegerValue
38

@<SCITEGIC>MOL_PROPERTY
Delta U+W
SciTegic.value.DoubleValue
-0.381

@<SCITEGIC>MOL_PROPERTY
U+W
SciTegic.value.DoubleValue
-52.126

@<SCITEGIC>MOL_PROPERTY
Grad RMS
SciTegic.value.DoubleValue
0.000000

@<SCITEGIC>MOL_PROPERTY
U
SciTegic.value.DoubleValue
7.601

@<SCITEGIC>MOL_PROPERTY
W
SciTegic.value.DoubleValue
-59.727

@<SCITEGIC>MOL_PROPERTY
W(PB)
SciTegic.value.DoubleValue
-61.964

@<SCITEGIC>MOL_PROPERTY
W(SA)
SciTegic.value.DoubleValue
2.236

@<SCITEGIC>MOL_PROPERTY
Valence
SciTegic.value.DoubleValue
9.602

@<SCITEGIC>MOL_PROPERTY
Coulomb
SciTegic.value.DoubleValue
-2.686

@<SCITEGIC>MOL_PROPERTY
VdW
SciTegic.value.DoubleValue
0.685

@<SCITEGIC>MOL_PROPERTY
VdW6
SciTegic.value.DoubleValue
-6.453

@<SCITEGIC>MOL_PROPERTY
VdW12
SciTegic.value.DoubleValue
7.139

@<SCITEGIC>MOL_PROPERTY
Bond
SciTegic.value.DoubleValue
0.125

@<SCITEGIC>MOL_PROPERTY
Angle
SciTegic.value.DoubleValue
2.485

@<SCITEGIC>MOL_PROPERTY
Pdih
SciTegic.value.DoubleValue
6.991

@<SCITEGIC>MOL_PROPERTY
Idih
SciTegic.value.DoubleValue
0.001

@<SCITEGIC>MOL_PROPERTY
Tether
SciTegic.value.DoubleValue
0.000

@<TRIPOS>MOLECULE
guest-s22_confgen4.mol2 : confsearch ligand conformer 285
          20          19           1
SMALL
USER_CHARGES
 
@<TRIPOS>ATOM
       1    C1      16.888077   18.327087   24.010705 C.2        1 MOL1        -0.2535
       2    H1      16.707950   17.418912   23.437686 H          1 MOL1         0.0845
       3    H2      16.477083   18.373763   25.017767 H          1 MOL1         0.0845
       4    C2      17.587266   19.345348   23.502824 C.2        1 MOL1        -0.1324
       5    H3      17.757046   20.245313   24.093498 H          1 MOL1         0.0833
       6    C3      18.187052   19.352960   22.114354 C.3        1 MOL1        -0.1813
       7    H4      17.928315   20.292302   21.607581 H          1 MOL1         0.0753
       8    H5      17.760014   18.540184   21.511216 H          1 MOL1         0.0753
       9    C4      19.721622   19.201101   22.169528 C.3        1 MOL1        -0.1855
      10    H6      20.146401   20.016478   22.771322 H          1 MOL1         0.0755
      11    H7      19.976567   18.262839   22.681327 H          1 MOL1         0.0755
      12    C5      20.351150   19.209914   20.758164 C.3        1 MOL1        -0.1855
      13    H8      20.106866   20.151759   20.247332 H          1 MOL1         0.0755
      14    H9      19.909412   18.401795   20.159505 H          1 MOL1         0.0755
      15    C6      21.890851   19.027859   20.790908 C.3        1 MOL1        -0.1958
      16    H10     22.152096   18.104931   21.322711 H          1 MOL1         0.0753
      17    H11     22.269323   18.922514   19.767366 H          1 MOL1         0.0753
      18    C7      22.639102   20.190645   21.436599 C.2        1 MOL1         0.6174
      19    O1      23.087038   20.036805   22.555820 O.co2      1 MOL1        -0.6695
      20    O2      22.763480   21.216723   20.797229 O.co2      1 MOL1        -0.6695
@<TRIPOS>BOND
    1     1     2    1
    2     1     3    1
    3     1     4    2
    4     4     5    1
    5     4     6    1
    6     6     7    1
    7     6     8    1
    8     6     9    1
    9     9    10    1
   10     9    11    1
   11     9    12    1
   12    12    13    1
   13    12    14    1
   14    12    15    1
   15    15    16    1
   16    15    17    1
   17    15    18    1
   18    18    19    1
   19    18    20    2
@<TRIPOS>SUBSTRUCTURE
       1 MOL1            1 RESIDUE      1      MOL     
@<SCITEGIC>MOL_PROPERTY
VConf Rank
SciTegic.value.IntegerValue
285

@<SCITEGIC>MOL_PROPERTY
Conf_Id
SciTegic.value.IntegerValue
58

@<SCITEGIC>MOL_PROPERTY
Delta U+W
SciTegic.value.DoubleValue
0.019

@<SCITEGIC>MOL_PROPERTY
U+W
SciTegic.value.DoubleValue
-51.727

@<SCITEGIC>MOL_PROPERTY
Grad RMS
SciTegic.value.DoubleValue
0.000000

@<SCITEGIC>MOL_PROPERTY
U
SciTegic.value.DoubleValue
8.963

@<SCITEGIC>MOL_PROPERTY
W
SciTegic.value.DoubleValue
-60.690

@<SCITEGIC>MOL_PROPERTY
W(PB)
SciTegic.value.DoubleValue
-62.934

@<SCITEGIC>MOL_PROPERTY
W(SA)
SciTegic.value.DoubleValue
2.244

@<SCITEGIC>MOL_PROPERTY
Valence
SciTegic.value.DoubleValue
9.327

@<SCITEGIC>MOL_PROPERTY
Coulomb
SciTegic.value.DoubleValue
-0.780

@<SCITEGIC>MOL_PROPERTY
VdW
SciTegic.value.DoubleValue
0.417

@<SCITEGIC>MOL_PROPERTY
VdW6
SciTegic.value.DoubleValue
-6.635

@<SCITEGIC>MOL_PROPERTY
VdW12
SciTegic.value.DoubleValue
7.052

@<SCITEGIC>MOL_PROPERTY
Bond
SciTegic.value.DoubleValue
0.105

@<SCITEGIC>MOL_PROPERTY
Angle
SciTegic.value.DoubleValue
2.399

@<SCITEGIC>MOL_PROPERTY
Pdih
SciTegic.value.DoubleValue
6.822

@<SCITEGIC>MOL_PROPERTY
Idih
SciTegic.value.DoubleValue
0.000

@<SCITEGIC>MOL_PROPERTY
Tether
SciTegic.value.DoubleValue
0.000

@<TRIPOS>MOLECULE
guest-s22_confgen4.mol2 : confsearch ligand conformer 286
          20          19           1
SMALL
USER_CHARGES
 
@<TRIPOS>ATOM
       1    C1      22.889265   19.253084   20.359465 C.2        1 MOL1        -0.2535
       2    H1      22.426123   19.194799   19.375759 H          1 MOL1         0.0845
       3    H2      23.925737   18.931099   20.445014 H          1 MOL1         0.0845
       4    C2      22.215169   19.699002   21.422676 C.2        1 MOL1        -0.1324
       5    H3      22.697093   19.748532   22.398870 H          1 MOL1         0.0833
       6    C3      20.776224   20.163029   21.380708 C.3        1 MOL1        -0.1813
       7    H4      20.458013   20.321642   20.341322 H          1 MOL1         0.0753
       8    H5      20.687756   21.132093   21.889840 H          1 MOL1         0.0753
       9    C4      19.840342   19.137790   22.054520 C.3        1 MOL1        -0.1855
      10    H6      19.935151   18.168634   21.545581 H          1 MOL1         0.0755
      11    H7      20.159335   18.982696   23.094531 H          1 MOL1         0.0755
      12    C5      18.365484   19.598358   22.022933 C.3        1 MOL1        -0.1855
      13    H8      18.060566   19.765765   20.981020 H          1 MOL1         0.0755
      14    H9      18.265308   20.562559   22.540597 H          1 MOL1         0.0755
      15    C6      17.404647   18.566547   22.668731 C.3        1 MOL1        -0.1958
      16    H10     16.367068   18.885210   22.514267 H          1 MOL1         0.0753
      17    H11     17.513146   17.590431   22.180586 H          1 MOL1         0.0753
      18    C7      17.607585   18.385535   24.170369 C.2        1 MOL1         0.6174
      19    O1      17.191654   19.253256   24.912768 O.co2      1 MOL1        -0.6695
      20    O2      18.165421   17.378137   24.558877 O.co2      1 MOL1        -0.6695
@<TRIPOS>BOND
    1     1     2    1
    2     1     3    1
    3     1     4    2
    4     4     5    1
    5     4     6    1
    6     6     7    1
    7     6     8    1
    8     6     9    1
    9     9    10    1
   10     9    11    1
   11     9    12    1
   12    12    13    1
   13    12    14    1
   14    12    15    1
   15    15    16    1
   16    15    17    1
   17    15    18    1
   18    18    19    1
   19    18    20    2
@<TRIPOS>SUBSTRUCTURE
       1 MOL1            1 RESIDUE      1      MOL     
@<SCITEGIC>MOL_PROPERTY
VConf Rank
SciTegic.value.IntegerValue
286

@<SCITEGIC>MOL_PROPERTY
Conf_Id
SciTegic.value.IntegerValue
54

@<SCITEGIC>MOL_PROPERTY
Delta U+W
SciTegic.value.DoubleValue
-0.048

@<SCITEGIC>MOL_PROPERTY
U+W
SciTegic.value.DoubleValue
-51.793

@<SCITEGIC>MOL_PROPERTY
Grad RMS
SciTegic.value.DoubleValue
0.000000

@<SCITEGIC>MOL_PROPERTY
U
SciTegic.value.DoubleValue
8.964

@<SCITEGIC>MOL_PROPERTY
W
SciTegic.value.DoubleValue
-60.756

@<SCITEGIC>MOL_PROPERTY
W(PB)
SciTegic.value.DoubleValue
-63.007

@<SCITEGIC>MOL_PROPERTY
W(SA)
SciTegic.value.DoubleValue
2.251

@<SCITEGIC>MOL_PROPERTY
Valence
SciTegic.value.DoubleValue
9.327

@<SCITEGIC>MOL_PROPERTY
Coulomb
SciTegic.value.DoubleValue
-0.780

@<SCITEGIC>MOL_PROPERTY
VdW
SciTegic.value.DoubleValue
0.417

@<SCITEGIC>MOL_PROPERTY
VdW6
SciTegic.value.DoubleValue
-6.635

@<SCITEGIC>MOL_PROPERTY
VdW12
SciTegic.value.DoubleValue
7.052

@<SCITEGIC>MOL_PROPERTY
Bond
SciTegic.value.DoubleValue
0.105

@<SCITEGIC>MOL_PROPERTY
Angle
SciTegic.value.DoubleValue
2.399

@<SCITEGIC>MOL_PROPERTY
Pdih
SciTegic.value.DoubleValue
6.822

@<SCITEGIC>MOL_PROPERTY
Idih
SciTegic.value.DoubleValue
0.000

@<SCITEGIC>MOL_PROPERTY
Tether
SciTegic.value.DoubleValue
0.000

@<TRIPOS>MOLECULE
guest-s22_confgen4.mol2 : confsearch ligand conformer 287
          20          19           1
SMALL
USER_CHARGES
 
@<TRIPOS>ATOM
       1    C1      22.802348   20.200120   23.005440 C.2        1 MOL1        -0.2535
       2    H1      23.461185   19.930415   23.829079 H          1 MOL1         0.0845
       3    H2      23.267069   20.450025   22.053027 H          1 MOL1         0.0845
       4    C2      21.475983   20.219547   23.160512 C.2        1 MOL1        -0.1324
       5    H3      21.031651   19.969320   24.123429 H          1 MOL1         0.0833
       6    C3      20.499979   20.590649   22.064361 C.3        1 MOL1        -0.1813
       7    H4      21.020355   21.161519   21.283433 H          1 MOL1         0.0753
       8    H5      19.722744   21.255473   22.464311 H          1 MOL1         0.0753
       9    C4      19.842885   19.351241   21.416059 C.3        1 MOL1        -0.1855
      10    H6      19.258341   19.678669   20.545380 H          1 MOL1         0.0755
      11    H7      20.625008   18.681139   21.033457 H          1 MOL1         0.0755
      12    C5      18.921979   18.579222   22.390749 C.3        1 MOL1        -0.1855
      13    H8      18.148471   19.252898   22.784810 H          1 MOL1         0.0755
      14    H9      19.508182   18.232477   23.251927 H          1 MOL1         0.0755
      15    C6      18.244732   17.353080   21.725097 C.3        1 MOL1        -0.1958
      16    H10     19.003855   16.687346   21.296888 H          1 MOL1         0.0753
      17    H11     17.707150   16.774140   22.485222 H          1 MOL1         0.0753
      18    C7      17.241498   17.714456   20.633417 C.2        1 MOL1         0.6174
      19    O1      17.568348   17.552212   19.474152 O.co2      1 MOL1        -0.6695
      20    O2      16.154438   18.139014   20.972778 O.co2      1 MOL1        -0.6695
@<TRIPOS>BOND
    1     1     2    1
    2     1     3    1
    3     1     4    2
    4     4     5    1
    5     4     6    1
    6     6     7    1
    7     6     8    1
    8     6     9    1
    9     9    10    1
   10     9    11    1
   11     9    12    1
   12    12    13    1
   13    12    14    1
   14    12    15    1
   15    15    16    1
   16    15    17    1
   17    15    18    1
   18    18    19    1
   19    18    20    2
@<TRIPOS>SUBSTRUCTURE
       1 MOL1            1 RESIDUE      1      MOL     
@<SCITEGIC>MOL_PROPERTY
VConf Rank
SciTegic.value.IntegerValue
287

@<SCITEGIC>MOL_PROPERTY
Conf_Id
SciTegic.value.IntegerValue
27

@<SCITEGIC>MOL_PROPERTY
Delta U+W
SciTegic.value.DoubleValue
0.478

@<SCITEGIC>MOL_PROPERTY
U+W
SciTegic.value.DoubleValue
-51.267

@<SCITEGIC>MOL_PROPERTY
Grad RMS
SciTegic.value.DoubleValue
0.000000

@<SCITEGIC>MOL_PROPERTY
U
SciTegic.value.DoubleValue
9.192

@<SCITEGIC>MOL_PROPERTY
W
SciTegic.value.DoubleValue
-60.459

@<SCITEGIC>MOL_PROPERTY
W(PB)
SciTegic.value.DoubleValue
-62.649

@<SCITEGIC>MOL_PROPERTY
W(SA)
SciTegic.value.DoubleValue
2.190

@<SCITEGIC>MOL_PROPERTY
Valence
SciTegic.value.DoubleValue
9.572

@<SCITEGIC>MOL_PROPERTY
Coulomb
SciTegic.value.DoubleValue
-0.884

@<SCITEGIC>MOL_PROPERTY
VdW
SciTegic.value.DoubleValue
0.504

@<SCITEGIC>MOL_PROPERTY
VdW6
SciTegic.value.DoubleValue
-7.168

@<SCITEGIC>MOL_PROPERTY
VdW12
SciTegic.value.DoubleValue
7.672

@<SCITEGIC>MOL_PROPERTY
Bond
SciTegic.value.DoubleValue
0.127

@<SCITEGIC>MOL_PROPERTY
Angle
SciTegic.value.DoubleValue
2.504

@<SCITEGIC>MOL_PROPERTY
Pdih
SciTegic.value.DoubleValue
6.941

@<SCITEGIC>MOL_PROPERTY
Idih
SciTegic.value.DoubleValue
0.001

@<SCITEGIC>MOL_PROPERTY
Tether
SciTegic.value.DoubleValue
0.000

@<TRIPOS>MOLECULE
guest-s22_confgen4.mol2 : confsearch ligand conformer 288
          20          19           1
SMALL
USER_CHARGES
 
@<TRIPOS>ATOM
       1    C1      20.542541   15.642135   22.609222 C.2        1 MOL1        -0.2535
       2    H1      20.773682   15.599599   23.672364 H          1 MOL1         0.0845
       3    H2      21.057536   14.939867   21.955923 H          1 MOL1         0.0845
       4    C2      19.664528   16.522202   22.121111 C.2        1 MOL1        -0.1324
       5    H3      19.445526   16.545667   21.053975 H          1 MOL1         0.0833
       6    C3      18.907246   17.522607   22.968173 C.3        1 MOL1        -0.1813
       7    H4      18.912710   17.198422   24.017663 H          1 MOL1         0.0753
       8    H5      17.853273   17.551086   22.660944 H          1 MOL1         0.0753
       9    C4      19.513314   18.941710   22.885175 C.3        1 MOL1        -0.1855
      10    H6      19.006892   19.585829   23.616970 H          1 MOL1         0.0755
      11    H7      20.571559   18.904110   23.178450 H          1 MOL1         0.0755
      12    C5      19.381380   19.570402   21.478981 C.3        1 MOL1        -0.1855
      13    H8      18.325143   19.583504   21.176409 H          1 MOL1         0.0755
      14    H9      19.917134   18.956785   20.742012 H          1 MOL1         0.0755
      15    C6      19.942794   21.013061   21.438847 C.3        1 MOL1        -0.1958
      16    H10     19.409426   21.647605   22.156767 H          1 MOL1         0.0753
      17    H11     21.000856   21.015390   21.727130 H          1 MOL1         0.0753
      18    C7      19.825638   21.655453   20.061293 C.2        1 MOL1         0.6174
      19    O1      20.747146   21.513894   19.281906 O.co2      1 MOL1        -0.6695
      20    O2      18.808344   22.265657   19.797734 O.co2      1 MOL1        -0.6695
@<TRIPOS>BOND
    1     1     2    1
    2     1     3    1
    3     1     4    2
    4     4     5    1
    5     4     6    1
    6     6     7    1
    7     6     8    1
    8     6     9    1
    9     9    10    1
   10     9    11    1
   11     9    12    1
   12    12    13    1
   13    12    14    1
   14    12    15    1
   15    15    16    1
   16    15    17    1
   17    15    18    1
   18    18    19    1
   19    18    20    2
@<TRIPOS>SUBSTRUCTURE
       1 MOL1            1 RESIDUE      1      MOL     
@<SCITEGIC>MOL_PROPERTY
VConf Rank
SciTegic.value.IntegerValue
288

@<SCITEGIC>MOL_PROPERTY
Conf_Id
SciTegic.value.IntegerValue
41

@<SCITEGIC>MOL_PROPERTY
Delta U+W
SciTegic.value.DoubleValue
-0.634

@<SCITEGIC>MOL_PROPERTY
U+W
SciTegic.value.DoubleValue
-52.379

@<SCITEGIC>MOL_PROPERTY
Grad RMS
SciTegic.value.DoubleValue
0.000000

@<SCITEGIC>MOL_PROPERTY
U
SciTegic.value.DoubleValue
7.828

@<SCITEGIC>MOL_PROPERTY
W
SciTegic.value.DoubleValue
-60.207

@<SCITEGIC>MOL_PROPERTY
W(PB)
SciTegic.value.DoubleValue
-62.449

@<SCITEGIC>MOL_PROPERTY
W(SA)
SciTegic.value.DoubleValue
2.242

@<SCITEGIC>MOL_PROPERTY
Valence
SciTegic.value.DoubleValue
9.300

@<SCITEGIC>MOL_PROPERTY
Coulomb
SciTegic.value.DoubleValue
-2.080

@<SCITEGIC>MOL_PROPERTY
VdW
SciTegic.value.DoubleValue
0.608

@<SCITEGIC>MOL_PROPERTY
VdW6
SciTegic.value.DoubleValue
-6.341

@<SCITEGIC>MOL_PROPERTY
VdW12
SciTegic.value.DoubleValue
6.949

@<SCITEGIC>MOL_PROPERTY
Bond
SciTegic.value.DoubleValue
0.103

@<SCITEGIC>MOL_PROPERTY
Angle
SciTegic.value.DoubleValue
2.334

@<SCITEGIC>MOL_PROPERTY
Pdih
SciTegic.value.DoubleValue
6.862

@<SCITEGIC>MOL_PROPERTY
Idih
SciTegic.value.DoubleValue
0.001

@<SCITEGIC>MOL_PROPERTY
Tether
SciTegic.value.DoubleValue
0.000

@<TRIPOS>MOLECULE
guest-s22_confgen4.mol2 : confsearch ligand conformer 289
          20          19           1
SMALL
USER_CHARGES
 
@<TRIPOS>ATOM
       1    C1      21.329093   22.077934   22.026962 C.2        1 MOL1        -0.2535
       2    H1      21.717683   22.882268   21.404641 H          1 MOL1         0.0845
       3    H2      21.017869   22.332906   23.038733 H          1 MOL1         0.0845
       4    C2      21.237310   20.829014   21.562752 C.2        1 MOL1        -0.1324
       5    H3      21.553618   20.594467   20.546581 H          1 MOL1         0.0833
       6    C3      20.709885   19.661824   22.367169 C.3        1 MOL1        -0.1813
       7    H4      20.661270   19.925145   23.432379 H          1 MOL1         0.0753
       8    H5      21.407781   18.819241   22.278013 H          1 MOL1         0.0753
       9    C4      19.307793   19.237826   21.875703 C.3        1 MOL1        -0.1855
      10    H6      18.650254   20.118052   21.877698 H          1 MOL1         0.0755
      11    H7      19.370596   18.902323   20.831313 H          1 MOL1         0.0755
      12    C5      18.655604   18.133555   22.743706 C.3        1 MOL1        -0.1855
      13    H8      17.637569   17.948366   22.373981 H          1 MOL1         0.0755
      14    H9      18.546750   18.499989   23.773407 H          1 MOL1         0.0755
      15    C6      19.431778   16.788319   22.761400 C.3        1 MOL1        -0.1958
      16    H10     20.429073   16.922294   23.195518 H          1 MOL1         0.0753
      17    H11     18.906264   16.074765   23.406675 H          1 MOL1         0.0753
      18    C7      19.579423   16.136160   21.389676 C.2        1 MOL1         0.6174
      19    O1      18.592764   15.638741   20.883233 O.co2      1 MOL1        -0.6695
      20    O2      20.678824   16.126387   20.871821 O.co2      1 MOL1        -0.6695
@<TRIPOS>BOND
    1     1     2    1
    2     1     3    1
    3     1     4    2
    4     4     5    1
    5     4     6    1
    6     6     7    1
    7     6     8    1
    8     6     9    1
    9     9    10    1
   10     9    11    1
   11     9    12    1
   12    12    13    1
   13    12    14    1
   14    12    15    1
   15    15    16    1
   16    15    17    1
   17    15    18    1
   18    18    19    1
   19    18    20    2
@<TRIPOS>SUBSTRUCTURE
       1 MOL1            1 RESIDUE      1      MOL     
@<SCITEGIC>MOL_PROPERTY
VConf Rank
SciTegic.value.IntegerValue
289

@<SCITEGIC>MOL_PROPERTY
Conf_Id
SciTegic.value.IntegerValue
84

@<SCITEGIC>MOL_PROPERTY
Delta U+W
SciTegic.value.DoubleValue
0.942

@<SCITEGIC>MOL_PROPERTY
U+W
SciTegic.value.DoubleValue
-50.803

@<SCITEGIC>MOL_PROPERTY
Grad RMS
SciTegic.value.DoubleValue
0.000000

@<SCITEGIC>MOL_PROPERTY
U
SciTegic.value.DoubleValue
10.196

@<SCITEGIC>MOL_PROPERTY
W
SciTegic.value.DoubleValue
-60.999

@<SCITEGIC>MOL_PROPERTY
W(PB)
SciTegic.value.DoubleValue
-63.182

@<SCITEGIC>MOL_PROPERTY
W(SA)
SciTegic.value.DoubleValue
2.182

@<SCITEGIC>MOL_PROPERTY
Valence
SciTegic.value.DoubleValue
9.837

@<SCITEGIC>MOL_PROPERTY
Coulomb
SciTegic.value.DoubleValue
0.032

@<SCITEGIC>MOL_PROPERTY
VdW
SciTegic.value.DoubleValue
0.328

@<SCITEGIC>MOL_PROPERTY
VdW6
SciTegic.value.DoubleValue
-7.642

@<SCITEGIC>MOL_PROPERTY
VdW12
SciTegic.value.DoubleValue
7.969

@<SCITEGIC>MOL_PROPERTY
Bond
SciTegic.value.DoubleValue
0.151

@<SCITEGIC>MOL_PROPERTY
Angle
SciTegic.value.DoubleValue
2.748

@<SCITEGIC>MOL_PROPERTY
Pdih
SciTegic.value.DoubleValue
6.937

@<SCITEGIC>MOL_PROPERTY
Idih
SciTegic.value.DoubleValue
0.001

@<SCITEGIC>MOL_PROPERTY
Tether
SciTegic.value.DoubleValue
0.000

@<TRIPOS>MOLECULE
guest-s22_confgen4.mol2 : confsearch ligand conformer 290
          20          19           1
SMALL
USER_CHARGES
 
@<TRIPOS>ATOM
       1    C1      17.153136   17.155305   20.828673 C.2        1 MOL1        -0.2535
       2    H1      16.142091   17.100145   20.428662 H          1 MOL1         0.0845
       3    H2      17.932049   16.609330   20.298779 H          1 MOL1         0.0845
       4    C2      17.423508   17.868027   21.925299 C.2        1 MOL1        -0.1324
       5    H3      16.629374   18.408064   22.440418 H          1 MOL1         0.0833
       6    C3      18.800607   17.990363   22.538729 C.3        1 MOL1        -0.1813
       7    H4      19.471678   17.226840   22.122214 H          1 MOL1         0.0753
       8    H5      18.739428   17.802155   23.618968 H          1 MOL1         0.0753
       9    C4      19.399164   19.390698   22.290023 C.3        1 MOL1        -0.1855
      10    H6      19.451481   19.574738   21.207862 H          1 MOL1         0.0755
      11    H7      18.730534   20.154669   22.709943 H          1 MOL1         0.0755
      12    C5      20.805837   19.533342   22.913926 C.3        1 MOL1        -0.1855
      13    H8      21.481140   18.779513   22.485652 H          1 MOL1         0.0755
      14    H9      20.746653   19.328916   23.991552 H          1 MOL1         0.0755
      15    C6      21.411840   20.945014   22.702202 C.3        1 MOL1        -0.1958
      16    H10     20.735894   21.711261   23.100716 H          1 MOL1         0.0753
      17    H11     22.351098   21.028277   23.261520 H          1 MOL1         0.0753
      18    C7      21.718181   21.276176   21.244333 C.2        1 MOL1         0.6174
      19    O1      20.978780   22.043939   20.660553 O.co2      1 MOL1        -0.6695
      20    O2      22.697098   20.766639   20.735217 O.co2      1 MOL1        -0.6695
@<TRIPOS>BOND
    1     1     2    1
    2     1     3    1
    3     1     4    2
    4     4     5    1
    5     4     6    1
    6     6     7    1
    7     6     8    1
    8     6     9    1
    9     9    10    1
   10     9    11    1
   11     9    12    1
   12    12    13    1
   13    12    14    1
   14    12    15    1
   15    15    16    1
   16    15    17    1
   17    15    18    1
   18    18    19    1
   19    18    20    2
@<TRIPOS>SUBSTRUCTURE
       1 MOL1            1 RESIDUE      1      MOL     
@<SCITEGIC>MOL_PROPERTY
VConf Rank
SciTegic.value.IntegerValue
290

@<SCITEGIC>MOL_PROPERTY
Conf_Id
SciTegic.value.IntegerValue
81

@<SCITEGIC>MOL_PROPERTY
Delta U+W
SciTegic.value.DoubleValue
-0.051

@<SCITEGIC>MOL_PROPERTY
U+W
SciTegic.value.DoubleValue
-51.796

@<SCITEGIC>MOL_PROPERTY
Grad RMS
SciTegic.value.DoubleValue
0.000000

@<SCITEGIC>MOL_PROPERTY
U
SciTegic.value.DoubleValue
9.412

@<SCITEGIC>MOL_PROPERTY
W
SciTegic.value.DoubleValue
-61.209

@<SCITEGIC>MOL_PROPERTY
W(PB)
SciTegic.value.DoubleValue
-63.452

@<SCITEGIC>MOL_PROPERTY
W(SA)
SciTegic.value.DoubleValue
2.243

@<SCITEGIC>MOL_PROPERTY
Valence
SciTegic.value.DoubleValue
9.329

@<SCITEGIC>MOL_PROPERTY
Coulomb
SciTegic.value.DoubleValue
-0.323

@<SCITEGIC>MOL_PROPERTY
VdW
SciTegic.value.DoubleValue
0.406

@<SCITEGIC>MOL_PROPERTY
VdW6
SciTegic.value.DoubleValue
-6.640

@<SCITEGIC>MOL_PROPERTY
VdW12
SciTegic.value.DoubleValue
7.046

@<SCITEGIC>MOL_PROPERTY
Bond
SciTegic.value.DoubleValue
0.105

@<SCITEGIC>MOL_PROPERTY
Angle
SciTegic.value.DoubleValue
2.401

@<SCITEGIC>MOL_PROPERTY
Pdih
SciTegic.value.DoubleValue
6.823

@<SCITEGIC>MOL_PROPERTY
Idih
SciTegic.value.DoubleValue
0.000

@<SCITEGIC>MOL_PROPERTY
Tether
SciTegic.value.DoubleValue
0.000

@<TRIPOS>MOLECULE
guest-s22_confgen4.mol2 : confsearch ligand conformer 291
          20          19           1
SMALL
USER_CHARGES
 
@<TRIPOS>ATOM
       1    C1      17.892512   21.143793   23.820697 C.2        1 MOL1        -0.2535
       2    H1      16.924203   20.678358   23.997353 H          1 MOL1         0.0845
       3    H2      18.161314   21.994060   24.445145 H          1 MOL1         0.0845
       4    C2      18.722400   20.690454   22.877591 C.2        1 MOL1        -0.1324
       5    H3      19.686162   21.172180   22.715335 H          1 MOL1         0.0833
       6    C3      18.415285   19.519007   21.969341 C.3        1 MOL1        -0.1813
       7    H4      18.684933   19.764345   20.933951 H          1 MOL1         0.0753
       8    H5      17.333167   19.331526   21.960083 H          1 MOL1         0.0753
       9    C4      19.134302   18.222543   22.413076 C.3        1 MOL1        -0.1855
      10    H6      18.783230   17.949648   23.417622 H          1 MOL1         0.0755
      11    H7      18.828447   17.401310   21.750504 H          1 MOL1         0.0755
      12    C5      20.681996   18.313881   22.432811 C.3        1 MOL1        -0.1855
      13    H8      21.086479   17.355240   22.785774 H          1 MOL1         0.0755
      14    H9      20.995326   19.065087   23.169839 H          1 MOL1         0.0755
      15    C6      21.323646   18.649137   21.058737 C.3        1 MOL1        -0.1958
      16    H10     20.999164   19.636690   20.711617 H          1 MOL1         0.0753
      17    H11     22.412876   18.702028   21.170035 H          1 MOL1         0.0753
      18    C7      21.027561   17.625274   19.966683 C.2        1 MOL1         0.6174
      19    O1      20.268227   17.940505   19.071626 O.co2      1 MOL1        -0.6695
      20    O2      21.578998   16.543972   20.031198 O.co2      1 MOL1        -0.6695
@<TRIPOS>BOND
    1     1     2    1
    2     1     3    1
    3     1     4    2
    4     4     5    1
    5     4     6    1
    6     6     7    1
    7     6     8    1
    8     6     9    1
    9     9    10    1
   10     9    11    1
   11     9    12    1
   12    12    13    1
   13    12    14    1
   14    12    15    1
   15    15    16    1
   16    15    17    1
   17    15    18    1
   18    18    19    1
   19    18    20    2
@<TRIPOS>SUBSTRUCTURE
       1 MOL1            1 RESIDUE      1      MOL     
@<SCITEGIC>MOL_PROPERTY
VConf Rank
SciTegic.value.IntegerValue
291

@<SCITEGIC>MOL_PROPERTY
Conf_Id
SciTegic.value.IntegerValue
86

@<SCITEGIC>MOL_PROPERTY
Delta U+W
SciTegic.value.DoubleValue
1.248

@<SCITEGIC>MOL_PROPERTY
U+W
SciTegic.value.DoubleValue
-50.498

@<SCITEGIC>MOL_PROPERTY
Grad RMS
SciTegic.value.DoubleValue
0.000000

@<SCITEGIC>MOL_PROPERTY
U
SciTegic.value.DoubleValue
10.404

@<SCITEGIC>MOL_PROPERTY
W
SciTegic.value.DoubleValue
-60.901

@<SCITEGIC>MOL_PROPERTY
W(PB)
SciTegic.value.DoubleValue
-63.061

@<SCITEGIC>MOL_PROPERTY
W(SA)
SciTegic.value.DoubleValue
2.159

@<SCITEGIC>MOL_PROPERTY
Valence
SciTegic.value.DoubleValue
10.021

@<SCITEGIC>MOL_PROPERTY
Coulomb
SciTegic.value.DoubleValue
0.094

@<SCITEGIC>MOL_PROPERTY
VdW
SciTegic.value.DoubleValue
0.289

@<SCITEGIC>MOL_PROPERTY
VdW6
SciTegic.value.DoubleValue
-8.409

@<SCITEGIC>MOL_PROPERTY
VdW12
SciTegic.value.DoubleValue
8.698

@<SCITEGIC>MOL_PROPERTY
Bond
SciTegic.value.DoubleValue
0.179

@<SCITEGIC>MOL_PROPERTY
Angle
SciTegic.value.DoubleValue
2.939

@<SCITEGIC>MOL_PROPERTY
Pdih
SciTegic.value.DoubleValue
6.902

@<SCITEGIC>MOL_PROPERTY
Idih
SciTegic.value.DoubleValue
0.001

@<SCITEGIC>MOL_PROPERTY
Tether
SciTegic.value.DoubleValue
0.000

@<TRIPOS>MOLECULE
guest-s22_confgen4.mol2 : confsearch ligand conformer 292
          20          19           1
SMALL
USER_CHARGES
 
@<TRIPOS>ATOM
       1    C1      20.392233   16.085777   22.777626 C.2        1 MOL1        -0.2535
       2    H1      19.839191   15.195911   23.073238 H          1 MOL1         0.0845
       3    H2      21.016912   16.015449   21.888665 H          1 MOL1         0.0845
       4    C2      20.302425   17.219012   23.478866 C.2        1 MOL1        -0.1324
       5    H3      19.669627   17.269067   24.364558 H          1 MOL1         0.0833
       6    C3      21.039493   18.494558   23.129917 C.3        1 MOL1        -0.1813
       7    H4      21.798690   18.304314   22.359146 H          1 MOL1         0.0753
       8    H5      21.580945   18.849770   24.016752 H          1 MOL1         0.0753
       9    C4      20.085065   19.610720   22.648971 C.3        1 MOL1        -0.1855
      10    H6      19.323065   19.798904   23.417650 H          1 MOL1         0.0755
      11    H7      20.657750   20.542127   22.541630 H          1 MOL1         0.0755
      12    C5      19.399950   19.271735   21.303866 C.3        1 MOL1        -0.1855
      13    H8      18.821504   18.344450   21.411622 H          1 MOL1         0.0755
      14    H9      20.162403   19.079851   20.536274 H          1 MOL1         0.0755
      15    C6      18.451561   20.398001   20.816925 C.3        1 MOL1        -0.1958
      16    H10     17.903017   20.057183   19.930988 H          1 MOL1         0.0753
      17    H11     17.703462   20.622337   21.586860 H          1 MOL1         0.0753
      18    C7      19.167005   21.692304   20.440568 C.2        1 MOL1         0.6174
      19    O1      19.759877   21.731295   19.380327 O.co2      1 MOL1        -0.6695
      20    O2      19.103529   22.630392   21.210664 O.co2      1 MOL1        -0.6695
@<TRIPOS>BOND
    1     1     2    1
    2     1     3    1
    3     1     4    2
    4     4     5    1
    5     4     6    1
    6     6     7    1
    7     6     8    1
    8     6     9    1
    9     9    10    1
   10     9    11    1
   11     9    12    1
   12    12    13    1
   13    12    14    1
   14    12    15    1
   15    15    16    1
   16    15    17    1
   17    15    18    1
   18    18    19    1
   19    18    20    2
@<TRIPOS>SUBSTRUCTURE
       1 MOL1            1 RESIDUE      1      MOL     
@<SCITEGIC>MOL_PROPERTY
VConf Rank
SciTegic.value.IntegerValue
292

@<SCITEGIC>MOL_PROPERTY
Conf_Id
SciTegic.value.IntegerValue
28

@<SCITEGIC>MOL_PROPERTY
Delta U+W
SciTegic.value.DoubleValue
0.446

@<SCITEGIC>MOL_PROPERTY
U+W
SciTegic.value.DoubleValue
-51.299

@<SCITEGIC>MOL_PROPERTY
Grad RMS
SciTegic.value.DoubleValue
0.000000

@<SCITEGIC>MOL_PROPERTY
U
SciTegic.value.DoubleValue
9.295

@<SCITEGIC>MOL_PROPERTY
W
SciTegic.value.DoubleValue
-60.594

@<SCITEGIC>MOL_PROPERTY
W(PB)
SciTegic.value.DoubleValue
-62.806

@<SCITEGIC>MOL_PROPERTY
W(SA)
SciTegic.value.DoubleValue
2.212

@<SCITEGIC>MOL_PROPERTY
Valence
SciTegic.value.DoubleValue
9.495

@<SCITEGIC>MOL_PROPERTY
Coulomb
SciTegic.value.DoubleValue
-0.610

@<SCITEGIC>MOL_PROPERTY
VdW
SciTegic.value.DoubleValue
0.409

@<SCITEGIC>MOL_PROPERTY
VdW6
SciTegic.value.DoubleValue
-7.332

@<SCITEGIC>MOL_PROPERTY
VdW12
SciTegic.value.DoubleValue
7.741

@<SCITEGIC>MOL_PROPERTY
Bond
SciTegic.value.DoubleValue
0.126

@<SCITEGIC>MOL_PROPERTY
Angle
SciTegic.value.DoubleValue
2.497

@<SCITEGIC>MOL_PROPERTY
Pdih
SciTegic.value.DoubleValue
6.872

@<SCITEGIC>MOL_PROPERTY
Idih
SciTegic.value.DoubleValue
0.000

@<SCITEGIC>MOL_PROPERTY
Tether
SciTegic.value.DoubleValue
0.000

@<TRIPOS>MOLECULE
guest-s22_confgen4.mol2 : confsearch ligand conformer 293
          20          19           1
SMALL
USER_CHARGES
 
@<TRIPOS>ATOM
       1    C1      20.745887   21.704228   20.438880 C.2        1 MOL1        -0.2535
       2    H1      21.614216   21.329544   20.976571 H          1 MOL1         0.0845
       3    H2      20.926336   22.472106   19.688585 H          1 MOL1         0.0845
       4    C2      19.507857   21.253264   20.671016 C.2        1 MOL1        -0.1324
       5    H3      18.677699   21.665930   20.098230 H          1 MOL1         0.0833
       6    C3      19.101013   20.192765   21.680608 C.3        1 MOL1        -0.1813
       7    H4      18.654716   19.350287   21.136817 H          1 MOL1         0.0753
       8    H5      18.300565   20.598919   22.313122 H          1 MOL1         0.0753
       9    C4      20.247368   19.679576   22.586757 C.3        1 MOL1        -0.1855
      10    H6      21.014362   19.190679   21.970418 H          1 MOL1         0.0755
      11    H7      20.732688   20.538186   23.070438 H          1 MOL1         0.0755
      12    C5      19.771067   18.706410   23.693621 C.3        1 MOL1        -0.1855
      13    H8      19.041787   19.218075   24.336067 H          1 MOL1         0.0755
      14    H9      20.626345   18.458265   24.337308 H          1 MOL1         0.0755
      15    C6      19.146333   17.385900   23.165777 C.3        1 MOL1        -0.1958
      16    H10     18.830544   16.769457   24.015443 H          1 MOL1         0.0753
      17    H11     18.243267   17.591412   22.579999 H          1 MOL1         0.0753
      18    C7      20.095479   16.540503   22.321189 C.2        1 MOL1         0.6174
      19    O1      21.020431   15.985571   22.881517 O.co2      1 MOL1        -0.6695
      20    O2      19.873744   16.441666   21.130424 O.co2      1 MOL1        -0.6695
@<TRIPOS>BOND
    1     1     2    1
    2     1     3    1
    3     1     4    2
    4     4     5    1
    5     4     6    1
    6     6     7    1
    7     6     8    1
    8     6     9    1
    9     9    10    1
   10     9    11    1
   11     9    12    1
   12    12    13    1
   13    12    14    1
   14    12    15    1
   15    15    16    1
   16    15    17    1
   17    15    18    1
   18    18    19    1
   19    18    20    2
@<TRIPOS>SUBSTRUCTURE
       1 MOL1            1 RESIDUE      1      MOL     
@<SCITEGIC>MOL_PROPERTY
VConf Rank
SciTegic.value.IntegerValue
293

@<SCITEGIC>MOL_PROPERTY
Conf_Id
SciTegic.value.IntegerValue
53

@<SCITEGIC>MOL_PROPERTY
Delta U+W
SciTegic.value.DoubleValue
0.549

@<SCITEGIC>MOL_PROPERTY
U+W
SciTegic.value.DoubleValue
-51.197

@<SCITEGIC>MOL_PROPERTY
Grad RMS
SciTegic.value.DoubleValue
0.000000

@<SCITEGIC>MOL_PROPERTY
U
SciTegic.value.DoubleValue
10.870

@<SCITEGIC>MOL_PROPERTY
W
SciTegic.value.DoubleValue
-62.067

@<SCITEGIC>MOL_PROPERTY
W(PB)
SciTegic.value.DoubleValue
-64.228

@<SCITEGIC>MOL_PROPERTY
W(SA)
SciTegic.value.DoubleValue
2.161

@<SCITEGIC>MOL_PROPERTY
Valence
SciTegic.value.DoubleValue
8.803

@<SCITEGIC>MOL_PROPERTY
Coulomb
SciTegic.value.DoubleValue
1.020

@<SCITEGIC>MOL_PROPERTY
VdW
SciTegic.value.DoubleValue
1.048

@<SCITEGIC>MOL_PROPERTY
VdW6
SciTegic.value.DoubleValue
-8.312

@<SCITEGIC>MOL_PROPERTY
VdW12
SciTegic.value.DoubleValue
9.360

@<SCITEGIC>MOL_PROPERTY
Bond
SciTegic.value.DoubleValue
0.212

@<SCITEGIC>MOL_PROPERTY
Angle
SciTegic.value.DoubleValue
3.379

@<SCITEGIC>MOL_PROPERTY
Pdih
SciTegic.value.DoubleValue
5.211

@<SCITEGIC>MOL_PROPERTY
Idih
SciTegic.value.DoubleValue
0.001

@<SCITEGIC>MOL_PROPERTY
Tether
SciTegic.value.DoubleValue
0.000

@<TRIPOS>MOLECULE
guest-s22_confgen4.mol2 : confsearch ligand conformer 294
          20          19           1
SMALL
USER_CHARGES
 
@<TRIPOS>ATOM
       1    C1      20.812751   16.581607   23.228825 C.2        1 MOL1        -0.2535
       2    H1      20.863891   17.271011   24.068709 H          1 MOL1         0.0845
       3    H2      21.561296   15.792184   23.191196 H          1 MOL1         0.0845
       4    C2      19.874707   16.682534   22.280910 C.2        1 MOL1        -0.1324
       5    H3      19.866443   15.963765   21.462005 H          1 MOL1         0.0833
       6    C3      18.778248   17.732261   22.205137 C.3        1 MOL1        -0.1813
       7    H4      17.850063   17.300820   22.602294 H          1 MOL1         0.0753
       8    H5      18.558800   17.943938   21.150806 H          1 MOL1         0.0753
       9    C4      19.070526   19.070575   22.932640 C.3        1 MOL1        -0.1855
      10    H6      18.177853   19.707273   22.864905 H          1 MOL1         0.0755
      11    H7      19.215303   18.879588   24.004035 H          1 MOL1         0.0755
      12    C5      20.289726   19.856642   22.382635 C.3        1 MOL1        -0.1855
      13    H8      21.202151   19.260402   22.511213 H          1 MOL1         0.0755
      14    H9      20.428638   20.760697   22.991245 H          1 MOL1         0.0755
      15    C6      20.167342   20.275122   20.891924 C.3        1 MOL1        -0.1958
      16    H10     21.071481   20.817699   20.592409 H          1 MOL1         0.0753
      17    H11     20.109183   19.391163   20.246761 H          1 MOL1         0.0753
      18    C7      18.975014   21.179303   20.593200 C.2        1 MOL1         0.6174
      19    O1      18.040198   20.713996   19.971294 O.co2      1 MOL1        -0.6695
      20    O2      19.020952   22.332209   20.975567 O.co2      1 MOL1        -0.6695
@<TRIPOS>BOND
    1     1     2    1
    2     1     3    1
    3     1     4    2
    4     4     5    1
    5     4     6    1
    6     6     7    1
    7     6     8    1
    8     6     9    1
    9     9    10    1
   10     9    11    1
   11     9    12    1
   12    12    13    1
   13    12    14    1
   14    12    15    1
   15    15    16    1
   16    15    17    1
   17    15    18    1
   18    18    19    1
   19    18    20    2
@<TRIPOS>SUBSTRUCTURE
       1 MOL1            1 RESIDUE      1      MOL     
@<SCITEGIC>MOL_PROPERTY
VConf Rank
SciTegic.value.IntegerValue
294

@<SCITEGIC>MOL_PROPERTY
Conf_Id
SciTegic.value.IntegerValue
66

@<SCITEGIC>MOL_PROPERTY
Delta U+W
SciTegic.value.DoubleValue
1.737

@<SCITEGIC>MOL_PROPERTY
U+W
SciTegic.value.DoubleValue
-50.008

@<SCITEGIC>MOL_PROPERTY
Grad RMS
SciTegic.value.DoubleValue
0.000000

@<SCITEGIC>MOL_PROPERTY
U
SciTegic.value.DoubleValue
11.091

@<SCITEGIC>MOL_PROPERTY
W
SciTegic.value.DoubleValue
-61.099

@<SCITEGIC>MOL_PROPERTY
W(PB)
SciTegic.value.DoubleValue
-63.213

@<SCITEGIC>MOL_PROPERTY
W(SA)
SciTegic.value.DoubleValue
2.114

@<SCITEGIC>MOL_PROPERTY
Valence
SciTegic.value.DoubleValue
9.664

@<SCITEGIC>MOL_PROPERTY
Coulomb
SciTegic.value.DoubleValue
0.658

@<SCITEGIC>MOL_PROPERTY
VdW
SciTegic.value.DoubleValue
0.769

@<SCITEGIC>MOL_PROPERTY
VdW6
SciTegic.value.DoubleValue
-9.171

@<SCITEGIC>MOL_PROPERTY
VdW12
SciTegic.value.DoubleValue
9.940

@<SCITEGIC>MOL_PROPERTY
Bond
SciTegic.value.DoubleValue
0.244

@<SCITEGIC>MOL_PROPERTY
Angle
SciTegic.value.DoubleValue
3.658

@<SCITEGIC>MOL_PROPERTY
Pdih
SciTegic.value.DoubleValue
5.762

@<SCITEGIC>MOL_PROPERTY
Idih
SciTegic.value.DoubleValue
0.001

@<SCITEGIC>MOL_PROPERTY
Tether
SciTegic.value.DoubleValue
0.000

@<TRIPOS>MOLECULE
guest-s22_confgen4.mol2 : confsearch ligand conformer 295
          20          19           1
SMALL
USER_CHARGES
 
@<TRIPOS>ATOM
       1    C1      22.084950   19.986958   21.583133 C.2        1 MOL1        -0.2535
       2    H1      21.573336   20.876145   21.944768 H          1 MOL1         0.0845
       3    H2      23.126440   19.863765   21.874782 H          1 MOL1         0.0845
       4    C2      21.478163   19.079821   20.809962 C.2        1 MOL1        -0.1324
       5    H3      22.039174   18.208310   20.473695 H          1 MOL1         0.0833
       6    C3      20.035749   19.118405   20.331891 C.3        1 MOL1        -0.1813
       7    H4      19.651684   18.092089   20.278795 H          1 MOL1         0.0753
       8    H5      20.020361   19.477449   19.294378 H          1 MOL1         0.0753
       9    C4      19.062339   19.977009   21.181355 C.3        1 MOL1        -0.1855
      10    H6      19.408894   21.018785   21.191197 H          1 MOL1         0.0755
      11    H7      18.083485   19.995479   20.683225 H          1 MOL1         0.0755
      12    C5      18.868379   19.485856   22.638698 C.3        1 MOL1        -0.1855
      13    H8      18.233293   20.208348   23.169595 H          1 MOL1         0.0755
      14    H9      19.830582   19.476288   23.167539 H          1 MOL1         0.0755
      15    C6      18.214784   18.083062   22.738181 C.3        1 MOL1        -0.1958
      16    H10     17.276065   18.060999   22.172079 H          1 MOL1         0.0753
      17    H11     18.873789   17.320350   22.308270 H          1 MOL1         0.0753
      18    C7      17.908793   17.675729   24.175086 C.2        1 MOL1         0.6174
      19    O1      18.753305   17.053730   24.788819 O.co2      1 MOL1        -0.6695
      20    O2      16.838533   18.003801   24.648209 O.co2      1 MOL1        -0.6695
@<TRIPOS>BOND
    1     1     2    1
    2     1     3    1
    3     1     4    2
    4     4     5    1
    5     4     6    1
    6     6     7    1
    7     6     8    1
    8     6     9    1
    9     9    10    1
   10     9    11    1
   11     9    12    1
   12    12    13    1
   13    12    14    1
   14    12    15    1
   15    15    16    1
   16    15    17    1
   17    15    18    1
   18    18    19    1
   19    18    20    2
@<TRIPOS>SUBSTRUCTURE
       1 MOL1            1 RESIDUE      1      MOL     
@<SCITEGIC>MOL_PROPERTY
VConf Rank
SciTegic.value.IntegerValue
295

@<SCITEGIC>MOL_PROPERTY
Conf_Id
SciTegic.value.IntegerValue
64

@<SCITEGIC>MOL_PROPERTY
Delta U+W
SciTegic.value.DoubleValue
0.366

@<SCITEGIC>MOL_PROPERTY
U+W
SciTegic.value.DoubleValue
-51.379

@<SCITEGIC>MOL_PROPERTY
Grad RMS
SciTegic.value.DoubleValue
0.000000

@<SCITEGIC>MOL_PROPERTY
U
SciTegic.value.DoubleValue
10.000

@<SCITEGIC>MOL_PROPERTY
W
SciTegic.value.DoubleValue
-61.379

@<SCITEGIC>MOL_PROPERTY
W(PB)
SciTegic.value.DoubleValue
-63.541

@<SCITEGIC>MOL_PROPERTY
W(SA)
SciTegic.value.DoubleValue
2.162

@<SCITEGIC>MOL_PROPERTY
Valence
SciTegic.value.DoubleValue
9.398

@<SCITEGIC>MOL_PROPERTY
Coulomb
SciTegic.value.DoubleValue
-0.504

@<SCITEGIC>MOL_PROPERTY
VdW
SciTegic.value.DoubleValue
1.105

@<SCITEGIC>MOL_PROPERTY
VdW6
SciTegic.value.DoubleValue
-7.975

@<SCITEGIC>MOL_PROPERTY
VdW12
SciTegic.value.DoubleValue
9.080

@<SCITEGIC>MOL_PROPERTY
Bond
SciTegic.value.DoubleValue
0.216

@<SCITEGIC>MOL_PROPERTY
Angle
SciTegic.value.DoubleValue
3.417

@<SCITEGIC>MOL_PROPERTY
Pdih
SciTegic.value.DoubleValue
5.765

@<SCITEGIC>MOL_PROPERTY
Idih
SciTegic.value.DoubleValue
0.001

@<SCITEGIC>MOL_PROPERTY
Tether
SciTegic.value.DoubleValue
0.000

@<TRIPOS>MOLECULE
guest-s22_confgen4.mol2 : confsearch ligand conformer 296
          20          19           1
SMALL
USER_CHARGES
 
@<TRIPOS>ATOM
       1    C1      22.443338   20.513579   22.774777 C.2        1 MOL1        -0.2535
       2    H1      21.864110   21.052106   23.523042 H          1 MOL1         0.0845
       3    H2      23.196980   21.074766   22.225051 H          1 MOL1         0.0845
       4    C2      22.237503   19.215870   22.534786 C.2        1 MOL1        -0.1324
       5    H3      22.826523   18.696006   21.779677 H          1 MOL1         0.0833
       6    C3      21.209326   18.371179   23.256817 C.3        1 MOL1        -0.1813
       7    H4      20.809681   18.908806   24.127401 H          1 MOL1         0.0753
       8    H5      21.697284   17.468430   23.647694 H          1 MOL1         0.0753
       9    C4      20.045249   17.948218   22.332712 C.3        1 MOL1        -0.1855
      10    H6      20.445128   17.411108   21.461682 H          1 MOL1         0.0755
      11    H7      19.403696   17.238464   22.872659 H          1 MOL1         0.0755
      12    C5      19.191622   19.147824   21.861705 C.3        1 MOL1        -0.1855
      13    H8      19.816806   19.852843   21.296618 H          1 MOL1         0.0755
      14    H9      18.806847   19.693464   22.734352 H          1 MOL1         0.0755
      15    C6      18.004767   18.697672   20.974710 C.3        1 MOL1        -0.1958
      16    H10     18.374114   18.161817   20.092083 H          1 MOL1         0.0753
      17    H11     17.359205   18.005305   21.528212 H          1 MOL1         0.0753
      18    C7      17.147303   19.864084   20.496867 C.2        1 MOL1         0.6174
      19    O1      16.228017   20.227369   21.203751 O.co2      1 MOL1        -0.6695
      20    O2      17.429624   20.387701   19.437239 O.co2      1 MOL1        -0.6695
@<TRIPOS>BOND
    1     1     2    1
    2     1     3    1
    3     1     4    2
    4     4     5    1
    5     4     6    1
    6     6     7    1
    7     6     8    1
    8     6     9    1
    9     9    10    1
   10     9    11    1
   11     9    12    1
   12    12    13    1
   13    12    14    1
   14    12    15    1
   15    15    16    1
   16    15    17    1
   17    15    18    1
   18    18    19    1
   19    18    20    2
@<TRIPOS>SUBSTRUCTURE
       1 MOL1            1 RESIDUE      1      MOL     
@<SCITEGIC>MOL_PROPERTY
VConf Rank
SciTegic.value.IntegerValue
296

@<SCITEGIC>MOL_PROPERTY
Conf_Id
SciTegic.value.IntegerValue
42

@<SCITEGIC>MOL_PROPERTY
Delta U+W
SciTegic.value.DoubleValue
-0.601

@<SCITEGIC>MOL_PROPERTY
U+W
SciTegic.value.DoubleValue
-52.347

@<SCITEGIC>MOL_PROPERTY
Grad RMS
SciTegic.value.DoubleValue
0.000000

@<SCITEGIC>MOL_PROPERTY
U
SciTegic.value.DoubleValue
8.428

@<SCITEGIC>MOL_PROPERTY
W
SciTegic.value.DoubleValue
-60.774

@<SCITEGIC>MOL_PROPERTY
W(PB)
SciTegic.value.DoubleValue
-62.982

@<SCITEGIC>MOL_PROPERTY
W(SA)
SciTegic.value.DoubleValue
2.208

@<SCITEGIC>MOL_PROPERTY
Valence
SciTegic.value.DoubleValue
9.231

@<SCITEGIC>MOL_PROPERTY
Coulomb
SciTegic.value.DoubleValue
-1.304

@<SCITEGIC>MOL_PROPERTY
VdW
SciTegic.value.DoubleValue
0.501

@<SCITEGIC>MOL_PROPERTY
VdW6
SciTegic.value.DoubleValue
-6.515

@<SCITEGIC>MOL_PROPERTY
VdW12
SciTegic.value.DoubleValue
7.016

@<SCITEGIC>MOL_PROPERTY
Bond
SciTegic.value.DoubleValue
0.103

@<SCITEGIC>MOL_PROPERTY
Angle
SciTegic.value.DoubleValue
2.328

@<SCITEGIC>MOL_PROPERTY
Pdih
SciTegic.value.DoubleValue
6.799

@<SCITEGIC>MOL_PROPERTY
Idih
SciTegic.value.DoubleValue
0.000

@<SCITEGIC>MOL_PROPERTY
Tether
SciTegic.value.DoubleValue
0.000

@<TRIPOS>MOLECULE
guest-s22_confgen4.mol2 : confsearch ligand conformer 297
          20          19           1
SMALL
USER_CHARGES
 
@<TRIPOS>ATOM
       1    C1      21.027088   21.576610   20.725004 C.2        1 MOL1        -0.2535
       2    H1      20.790656   22.272234   21.528498 H          1 MOL1         0.0845
       3    H2      20.991994   21.957505   19.705797 H          1 MOL1         0.0845
       4    C2      21.344390   20.303595   20.975555 C.2        1 MOL1        -0.1324
       5    H3      21.574928   19.622741   20.156594 H          1 MOL1         0.0833
       6    C3      21.412271   19.702423   22.363319 C.3        1 MOL1        -0.1813
       7    H4      21.361394   20.488937   23.128445 H          1 MOL1         0.0753
       8    H5      22.383639   19.206914   22.492639 H          1 MOL1         0.0753
       9    C4      20.289578   18.669447   22.609249 C.3        1 MOL1        -0.1855
      10    H6      20.346546   17.880168   21.846929 H          1 MOL1         0.0755
      11    H7      20.461616   18.181382   23.578236 H          1 MOL1         0.0755
      12    C5      18.880196   19.307324   22.604309 C.3        1 MOL1        -0.1855
      13    H8      18.678052   19.763506   21.625335 H          1 MOL1         0.0755
      14    H9      18.848157   20.119506   23.342933 H          1 MOL1         0.0755
      15    C6      17.761768   18.283981   22.930975 C.3        1 MOL1        -0.1958
      16    H10     17.959737   17.800607   23.895281 H          1 MOL1         0.0753
      17    H11     16.803569   18.807626   23.029155 H          1 MOL1         0.0753
      18    C7      17.584261   17.200703   21.870876 C.2        1 MOL1         0.6174
      19    O1      18.030523   16.093414   22.098746 O.co2      1 MOL1        -0.6695
      20    O2      16.987606   17.488929   20.852041 O.co2      1 MOL1        -0.6695
@<TRIPOS>BOND
    1     1     2    1
    2     1     3    1
    3     1     4    2
    4     4     5    1
    5     4     6    1
    6     6     7    1
    7     6     8    1
    8     6     9    1
    9     9    10    1
   10     9    11    1
   11     9    12    1
   12    12    13    1
   13    12    14    1
   14    12    15    1
   15    15    16    1
   16    15    17    1
   17    15    18    1
   18    18    19    1
   19    18    20    2
@<TRIPOS>SUBSTRUCTURE
       1 MOL1            1 RESIDUE      1      MOL     
@<SCITEGIC>MOL_PROPERTY
VConf Rank
SciTegic.value.IntegerValue
297

@<SCITEGIC>MOL_PROPERTY
Conf_Id
SciTegic.value.IntegerValue
68

@<SCITEGIC>MOL_PROPERTY
Delta U+W
SciTegic.value.DoubleValue
0.492

@<SCITEGIC>MOL_PROPERTY
U+W
SciTegic.value.DoubleValue
-51.253

@<SCITEGIC>MOL_PROPERTY
Grad RMS
SciTegic.value.DoubleValue
0.000000

@<SCITEGIC>MOL_PROPERTY
U
SciTegic.value.DoubleValue
10.179

@<SCITEGIC>MOL_PROPERTY
W
SciTegic.value.DoubleValue
-61.432

@<SCITEGIC>MOL_PROPERTY
W(PB)
SciTegic.value.DoubleValue
-63.627

@<SCITEGIC>MOL_PROPERTY
W(SA)
SciTegic.value.DoubleValue
2.195

@<SCITEGIC>MOL_PROPERTY
Valence
SciTegic.value.DoubleValue
9.483

@<SCITEGIC>MOL_PROPERTY
Coulomb
SciTegic.value.DoubleValue
0.361

@<SCITEGIC>MOL_PROPERTY
VdW
SciTegic.value.DoubleValue
0.335

@<SCITEGIC>MOL_PROPERTY
VdW6
SciTegic.value.DoubleValue
-7.385

@<SCITEGIC>MOL_PROPERTY
VdW12
SciTegic.value.DoubleValue
7.720

@<SCITEGIC>MOL_PROPERTY
Bond
SciTegic.value.DoubleValue
0.125

@<SCITEGIC>MOL_PROPERTY
Angle
SciTegic.value.DoubleValue
2.487

@<SCITEGIC>MOL_PROPERTY
Pdih
SciTegic.value.DoubleValue
6.870

@<SCITEGIC>MOL_PROPERTY
Idih
SciTegic.value.DoubleValue
0.001

@<SCITEGIC>MOL_PROPERTY
Tether
SciTegic.value.DoubleValue
0.000

@<TRIPOS>MOLECULE
guest-s22_confgen4.mol2 : confsearch ligand conformer 298
          20          19           1
SMALL
USER_CHARGES
 
@<TRIPOS>ATOM
       1    C1      17.300898   17.429768   20.936733 C.2        1 MOL1        -0.2535
       2    H1      17.816931   16.509491   20.667864 H          1 MOL1         0.0845
       3    H2      16.440370   17.716092   20.334498 H          1 MOL1         0.0845
       4    C2      17.706694   18.182749   21.962425 C.2        1 MOL1        -0.1324
       5    H3      17.174026   19.098827   22.216023 H          1 MOL1         0.0833
       6    C3      18.888689   17.845369   22.846078 C.3        1 MOL1        -0.1813
       7    H4      19.132817   16.779004   22.747150 H          1 MOL1         0.0753
       8    H5      18.624843   18.003644   23.900275 H          1 MOL1         0.0753
       9    C4      20.143335   18.675242   22.492022 C.3        1 MOL1        -0.1855
      10    H6      20.994628   18.295969   23.073570 H          1 MOL1         0.0755
      11    H7      20.394200   18.520837   21.433332 H          1 MOL1         0.0755
      12    C5      19.965966   20.185401   22.777836 C.3        1 MOL1        -0.1855
      13    H8      19.667385   20.323304   23.825759 H          1 MOL1         0.0755
      14    H9      19.153453   20.592417   22.160603 H          1 MOL1         0.0755
      15    C6      21.260451   20.997030   22.512469 C.3        1 MOL1        -0.1958
      16    H10     21.116372   22.033563   22.839344 H          1 MOL1         0.0753
      17    H11     22.090774   20.590652   23.102541 H          1 MOL1         0.0753
      18    C7      21.678544   21.034483   21.045283 C.2        1 MOL1         0.6174
      19    O1      21.079907   21.783606   20.298588 O.co2      1 MOL1        -0.6695
      20    O2      22.603190   20.329342   20.691828 O.co2      1 MOL1        -0.6695
@<TRIPOS>BOND
    1     1     2    1
    2     1     3    1
    3     1     4    2
    4     4     5    1
    5     4     6    1
    6     6     7    1
    7     6     8    1
    8     6     9    1
    9     9    10    1
   10     9    11    1
   11     9    12    1
   12    12    13    1
   13    12    14    1
   14    12    15    1
   15    15    16    1
   16    15    17    1
   17    15    18    1
   18    18    19    1
   19    18    20    2
@<TRIPOS>SUBSTRUCTURE
       1 MOL1            1 RESIDUE      1      MOL     
@<SCITEGIC>MOL_PROPERTY
VConf Rank
SciTegic.value.IntegerValue
298

@<SCITEGIC>MOL_PROPERTY
Conf_Id
SciTegic.value.IntegerValue
87

@<SCITEGIC>MOL_PROPERTY
Delta U+W
SciTegic.value.DoubleValue
0.339

@<SCITEGIC>MOL_PROPERTY
U+W
SciTegic.value.DoubleValue
-51.407

@<SCITEGIC>MOL_PROPERTY
Grad RMS
SciTegic.value.DoubleValue
0.000000

@<SCITEGIC>MOL_PROPERTY
U
SciTegic.value.DoubleValue
10.461

@<SCITEGIC>MOL_PROPERTY
W
SciTegic.value.DoubleValue
-61.867

@<SCITEGIC>MOL_PROPERTY
W(PB)
SciTegic.value.DoubleValue
-64.045

@<SCITEGIC>MOL_PROPERTY
W(SA)
SciTegic.value.DoubleValue
2.178

@<SCITEGIC>MOL_PROPERTY
Valence
SciTegic.value.DoubleValue
9.555

@<SCITEGIC>MOL_PROPERTY
Coulomb
SciTegic.value.DoubleValue
0.483

@<SCITEGIC>MOL_PROPERTY
VdW
SciTegic.value.DoubleValue
0.423

@<SCITEGIC>MOL_PROPERTY
VdW6
SciTegic.value.DoubleValue
-7.223

@<SCITEGIC>MOL_PROPERTY
VdW12
SciTegic.value.DoubleValue
7.646

@<SCITEGIC>MOL_PROPERTY
Bond
SciTegic.value.DoubleValue
0.126

@<SCITEGIC>MOL_PROPERTY
Angle
SciTegic.value.DoubleValue
2.492

@<SCITEGIC>MOL_PROPERTY
Pdih
SciTegic.value.DoubleValue
6.936

@<SCITEGIC>MOL_PROPERTY
Idih
SciTegic.value.DoubleValue
0.001

@<SCITEGIC>MOL_PROPERTY
Tether
SciTegic.value.DoubleValue
0.000

@<TRIPOS>MOLECULE
guest-s22_confgen4.mol2 : confsearch ligand conformer 299
          20          19           1
SMALL
USER_CHARGES
 
@<TRIPOS>ATOM
       1    C1      20.295932   21.137185   20.337844 C.2        1 MOL1        -0.2535
       2    H1      19.778616   20.934883   19.401428 H          1 MOL1         0.0845
       3    H2      20.374184   22.175857   20.654162 H          1 MOL1         0.0845
       4    C2      20.813559   20.149910   21.073415 C.2        1 MOL1        -0.1324
       5    H3      21.335582   20.373172   22.003164 H          1 MOL1         0.0833
       6    C3      20.752846   18.687103   20.688557 C.3        1 MOL1        -0.1813
       7    H4      21.517775   18.118220   21.233710 H          1 MOL1         0.0753
       8    H5      21.014971   18.595937   19.625831 H          1 MOL1         0.0753
       9    C4      19.359632   18.046434   20.906882 C.3        1 MOL1        -0.1855
      10    H6      18.575284   18.712678   20.522367 H          1 MOL1         0.0755
      11    H7      19.307797   17.135792   20.294691 H          1 MOL1         0.0755
      12    C5      19.047573   17.646490   22.371041 C.3        1 MOL1        -0.1855
      13    H8      19.841004   16.991638   22.756626 H          1 MOL1         0.0755
      14    H9      18.126014   17.047993   22.375585 H          1 MOL1         0.0755
      15    C6      18.853822   18.847420   23.332025 C.3        1 MOL1        -0.1958
      16    H10     19.796954   19.385298   23.470837 H          1 MOL1         0.0753
      17    H11     18.130815   19.556894   22.912226 H          1 MOL1         0.0753
      18    C7      18.359051   18.425741   24.710800 C.2        1 MOL1         0.6174
      19    O1      19.185373   18.136751   25.553751 O.co2      1 MOL1        -0.6695
      20    O2      17.159570   18.376916   24.899855 O.co2      1 MOL1        -0.6695
@<TRIPOS>BOND
    1     1     2    1
    2     1     3    1
    3     1     4    2
    4     4     5    1
    5     4     6    1
    6     6     7    1
    7     6     8    1
    8     6     9    1
    9     9    10    1
   10     9    11    1
   11     9    12    1
   12    12    13    1
   13    12    14    1
   14    12    15    1
   15    15    16    1
   16    15    17    1
   17    15    18    1
   18    18    19    1
   19    18    20    2
@<TRIPOS>SUBSTRUCTURE
       1 MOL1            1 RESIDUE      1      MOL     
@<SCITEGIC>MOL_PROPERTY
VConf Rank
SciTegic.value.IntegerValue
299

@<SCITEGIC>MOL_PROPERTY
Conf_Id
SciTegic.value.IntegerValue
51

@<SCITEGIC>MOL_PROPERTY
Delta U+W
SciTegic.value.DoubleValue
1.709

@<SCITEGIC>MOL_PROPERTY
U+W
SciTegic.value.DoubleValue
-50.036

@<SCITEGIC>MOL_PROPERTY
Grad RMS
SciTegic.value.DoubleValue
0.000000

@<SCITEGIC>MOL_PROPERTY
U
SciTegic.value.DoubleValue
10.643

@<SCITEGIC>MOL_PROPERTY
W
SciTegic.value.DoubleValue
-60.679

@<SCITEGIC>MOL_PROPERTY
W(PB)
SciTegic.value.DoubleValue
-62.882

@<SCITEGIC>MOL_PROPERTY
W(SA)
SciTegic.value.DoubleValue
2.203

@<SCITEGIC>MOL_PROPERTY
Valence
SciTegic.value.DoubleValue
11.231

@<SCITEGIC>MOL_PROPERTY
Coulomb
SciTegic.value.DoubleValue
-1.077

@<SCITEGIC>MOL_PROPERTY
VdW
SciTegic.value.DoubleValue
0.489

@<SCITEGIC>MOL_PROPERTY
VdW6
SciTegic.value.DoubleValue
-7.546

@<SCITEGIC>MOL_PROPERTY
VdW12
SciTegic.value.DoubleValue
8.035

@<SCITEGIC>MOL_PROPERTY
Bond
SciTegic.value.DoubleValue
0.159

@<SCITEGIC>MOL_PROPERTY
Angle
SciTegic.value.DoubleValue
3.005

@<SCITEGIC>MOL_PROPERTY
Pdih
SciTegic.value.DoubleValue
8.065

@<SCITEGIC>MOL_PROPERTY
Idih
SciTegic.value.DoubleValue
0.002

@<SCITEGIC>MOL_PROPERTY
Tether
SciTegic.value.DoubleValue
0.000

@<TRIPOS>MOLECULE
guest-s22_confgen4.mol2 : confsearch ligand conformer 300
          20          19           1
SMALL
USER_CHARGES
 
@<TRIPOS>ATOM
       1    C1      22.221037   18.093897   22.380753 C.2        1 MOL1        -0.2535
       2    H1      22.209519   17.151879   21.834964 H          1 MOL1         0.0845
       3    H2      22.790859   18.130421   23.307570 H          1 MOL1         0.0845
       4    C2      21.559723   19.164561   21.933475 C.2        1 MOL1        -0.1324
       5    H3      21.590649   20.101074   22.489156 H          1 MOL1         0.0833
       6    C3      20.759175   19.188596   20.648895 C.3        1 MOL1        -0.1813
       7    H4      21.352840   18.707176   19.860096 H          1 MOL1         0.0753
       8    H5      20.605277   20.223654   20.315871 H          1 MOL1         0.0753
       9    C4      19.397717   18.457408   20.753621 C.3        1 MOL1        -0.1855
      10    H6      19.063327   18.220203   19.734477 H          1 MOL1         0.0755
      11    H7      19.528077   17.491303   21.260155 H          1 MOL1         0.0755
      12    C5      18.271448   19.270579   21.440191 C.3        1 MOL1        -0.1855
      13    H8      17.323163   18.734132   21.297125 H          1 MOL1         0.0755
      14    H9      18.153551   20.241583   20.939903 H          1 MOL1         0.0755
      15    C6      18.481646   19.492503   22.960006 C.3        1 MOL1        -0.1958
      16    H10     18.693585   18.538526   23.457330 H          1 MOL1         0.0753
      17    H11     19.337453   20.151282   23.138020 H          1 MOL1         0.0753
      18    C7      17.269704   20.121742   23.637411 C.2        1 MOL1         0.6174
      19    O1      17.195487   21.334298   23.670386 O.co2      1 MOL1        -0.6695
      20    O2      16.421005   19.382961   24.096537 O.co2      1 MOL1        -0.6695
@<TRIPOS>BOND
    1     1     2    1
    2     1     3    1
    3     1     4    2
    4     4     5    1
    5     4     6    1
    6     6     7    1
    7     6     8    1
    8     6     9    1
    9     9    10    1
   10     9    11    1
   11     9    12    1
   12    12    13    1
   13    12    14    1
   14    12    15    1
   15    15    16    1
   16    15    17    1
   17    15    18    1
   18    18    19    1
   19    18    20    2
@<TRIPOS>SUBSTRUCTURE
       1 MOL1            1 RESIDUE      1      MOL     
@<SCITEGIC>MOL_PROPERTY
VConf Rank
SciTegic.value.IntegerValue
300

@<SCITEGIC>MOL_PROPERTY
Conf_Id
SciTegic.value.IntegerValue
91

@<SCITEGIC>MOL_PROPERTY
Delta U+W
SciTegic.value.DoubleValue
1.604

@<SCITEGIC>MOL_PROPERTY
U+W
SciTegic.value.DoubleValue
-50.141

@<SCITEGIC>MOL_PROPERTY
Grad RMS
SciTegic.value.DoubleValue
0.000000

@<SCITEGIC>MOL_PROPERTY
U
SciTegic.value.DoubleValue
10.644

@<SCITEGIC>MOL_PROPERTY
W
SciTegic.value.DoubleValue
-60.786

@<SCITEGIC>MOL_PROPERTY
W(PB)
SciTegic.value.DoubleValue
-62.965

@<SCITEGIC>MOL_PROPERTY
W(SA)
SciTegic.value.DoubleValue
2.179

@<SCITEGIC>MOL_PROPERTY
Valence
SciTegic.value.DoubleValue
11.230

@<SCITEGIC>MOL_PROPERTY
Coulomb
SciTegic.value.DoubleValue
-1.075

@<SCITEGIC>MOL_PROPERTY
VdW
SciTegic.value.DoubleValue
0.489

@<SCITEGIC>MOL_PROPERTY
VdW6
SciTegic.value.DoubleValue
-7.547

@<SCITEGIC>MOL_PROPERTY
VdW12
SciTegic.value.DoubleValue
8.036

@<SCITEGIC>MOL_PROPERTY
Bond
SciTegic.value.DoubleValue
0.159

@<SCITEGIC>MOL_PROPERTY
Angle
SciTegic.value.DoubleValue
3.006

@<SCITEGIC>MOL_PROPERTY
Pdih
SciTegic.value.DoubleValue
8.064

@<SCITEGIC>MOL_PROPERTY
Idih
SciTegic.value.DoubleValue
0.002

@<SCITEGIC>MOL_PROPERTY
Tether
SciTegic.value.DoubleValue
0.000

@<TRIPOS>MOLECULE
guest-s22_confgen4.mol2 : confsearch ligand conformer 301
          20          19           1
SMALL
USER_CHARGES
 
@<TRIPOS>ATOM
       1    C1      16.972654   18.395394   24.167649 C.2        1 MOL1        -0.2535
       2    H1      17.412233   17.425965   24.396928 H          1 MOL1         0.0845
       3    H2      15.913132   18.527836   24.380128 H          1 MOL1         0.0845
       4    C2      17.700453   19.385137   23.643847 C.2        1 MOL1        -0.1324
       5    H3      17.240889   20.347841   23.421002 H          1 MOL1         0.0833
       6    C3      19.174505   19.275423   23.323264 C.3        1 MOL1        -0.1813
       7    H4      19.604763   18.389745   23.810355 H          1 MOL1         0.0753
       8    H5      19.704661   20.147649   23.728603 H          1 MOL1         0.0753
       9    C4      19.408556   19.189041   21.800559 C.3        1 MOL1        -0.1855
      10    H6      18.872808   18.317517   21.399552 H          1 MOL1         0.0755
      11    H7      18.982113   20.077246   21.314350 H          1 MOL1         0.0755
      12    C5      20.909809   19.079362   21.455124 C.3        1 MOL1        -0.1855
      13    H8      21.336939   18.190919   21.940688 H          1 MOL1         0.0755
      14    H9      21.446363   19.950076   21.856983 H          1 MOL1         0.0755
      15    C6      21.144712   18.991775   19.923606 C.3        1 MOL1        -0.1958
      16    H10     20.617143   18.121065   19.516852 H          1 MOL1         0.0753
      17    H11     20.726493   19.878549   19.433063 H          1 MOL1         0.0753
      18    C7      22.608188   18.880195   19.493365 C.2        1 MOL1         0.6174
      19    O1      22.831876   18.810832   18.301186 O.co2      1 MOL1        -0.6695
      20    O2      23.484785   18.864370   20.335964 O.co2      1 MOL1        -0.6695
@<TRIPOS>BOND
    1     1     2    1
    2     1     3    1
    3     1     4    2
    4     4     5    1
    5     4     6    1
    6     6     7    1
    7     6     8    1
    8     6     9    1
    9     9    10    1
   10     9    11    1
   11     9    12    1
   12    12    13    1
   13    12    14    1
   14    12    15    1
   15    15    16    1
   16    15    17    1
   17    15    18    1
   18    18    19    1
   19    18    20    2
@<TRIPOS>SUBSTRUCTURE
       1 MOL1            1 RESIDUE      1      MOL     
@<SCITEGIC>MOL_PROPERTY
VConf Rank
SciTegic.value.IntegerValue
301

@<SCITEGIC>MOL_PROPERTY
Conf_Id
SciTegic.value.IntegerValue
33

@<SCITEGIC>MOL_PROPERTY
Delta U+W
SciTegic.value.DoubleValue
0.000

@<SCITEGIC>MOL_PROPERTY
U+W
SciTegic.value.DoubleValue
-51.745

@<SCITEGIC>MOL_PROPERTY
Grad RMS
SciTegic.value.DoubleValue
0.000000

@<SCITEGIC>MOL_PROPERTY
U
SciTegic.value.DoubleValue
7.593

@<SCITEGIC>MOL_PROPERTY
W
SciTegic.value.DoubleValue
-59.338

@<SCITEGIC>MOL_PROPERTY
W(PB)
SciTegic.value.DoubleValue
-61.574

@<SCITEGIC>MOL_PROPERTY
W(SA)
SciTegic.value.DoubleValue
2.236

@<SCITEGIC>MOL_PROPERTY
Valence
SciTegic.value.DoubleValue
9.570

@<SCITEGIC>MOL_PROPERTY
Coulomb
SciTegic.value.DoubleValue
-3.091

@<SCITEGIC>MOL_PROPERTY
VdW
SciTegic.value.DoubleValue
1.114

@<SCITEGIC>MOL_PROPERTY
VdW6
SciTegic.value.DoubleValue
-6.064

@<SCITEGIC>MOL_PROPERTY
VdW12
SciTegic.value.DoubleValue
7.178

@<SCITEGIC>MOL_PROPERTY
Bond
SciTegic.value.DoubleValue
0.117

@<SCITEGIC>MOL_PROPERTY
Angle
SciTegic.value.DoubleValue
2.692

@<SCITEGIC>MOL_PROPERTY
Pdih
SciTegic.value.DoubleValue
6.761

@<SCITEGIC>MOL_PROPERTY
Idih
SciTegic.value.DoubleValue
0.000

@<SCITEGIC>MOL_PROPERTY
Tether
SciTegic.value.DoubleValue
0.000

@<TRIPOS>MOLECULE
guest-s22_confgen4.mol2 : confsearch ligand conformer 302
          20          19           1
SMALL
USER_CHARGES
 
@<TRIPOS>ATOM
       1    C1      16.174532   18.283402   21.669235 C.2        1 MOL1        -0.2535
       2    H1      16.014222   18.794581   22.617167 H          1 MOL1         0.0845
       3    H2      15.341523   17.714467   21.259760 H          1 MOL1         0.0845
       4    C2      17.346349   18.347127   21.031695 C.2        1 MOL1        -0.1324
       5    H3      17.486425   17.827353   20.084148 H          1 MOL1         0.0833
       6    C3      18.546123   19.116721   21.537649 C.3        1 MOL1        -0.1813
       7    H4      18.245473   19.803979   22.340072 H          1 MOL1         0.0753
       8    H5      18.946616   19.734502   20.724014 H          1 MOL1         0.0753
       9    C4      19.638473   18.158469   22.063325 C.3        1 MOL1        -0.1855
      10    H6      19.192897   17.493543   22.816103 H          1 MOL1         0.0755
      11    H7      19.987436   17.512072   21.246385 H          1 MOL1         0.0755
      12    C5      20.844556   18.888040   22.701502 C.3        1 MOL1        -0.1855
      13    H8      21.513772   18.138938   23.147025 H          1 MOL1         0.0755
      14    H9      20.498701   19.524856   23.527481 H          1 MOL1         0.0755
      15    C6      21.655212   19.742829   21.692966 C.3        1 MOL1        -0.1958
      16    H10     21.969891   19.127137   20.841917 H          1 MOL1         0.0753
      17    H11     21.040597   20.558324   21.295524 H          1 MOL1         0.0753
      18    C7      22.901595   20.362658   22.314506 C.2        1 MOL1         0.6174
      19    O1      22.798592   21.452928   22.841201 O.co2      1 MOL1        -0.6695
      20    O2      23.938380   19.730125   22.273093 O.co2      1 MOL1        -0.6695
@<TRIPOS>BOND
    1     1     2    1
    2     1     3    1
    3     1     4    2
    4     4     5    1
    5     4     6    1
    6     6     7    1
    7     6     8    1
    8     6     9    1
    9     9    10    1
   10     9    11    1
   11     9    12    1
   12    12    13    1
   13    12    14    1
   14    12    15    1
   15    15    16    1
   16    15    17    1
   17    15    18    1
   18    18    19    1
   19    18    20    2
@<TRIPOS>SUBSTRUCTURE
       1 MOL1            1 RESIDUE      1      MOL     
@<SCITEGIC>MOL_PROPERTY
VConf Rank
SciTegic.value.IntegerValue
302

@<SCITEGIC>MOL_PROPERTY
Conf_Id
SciTegic.value.IntegerValue
37

@<SCITEGIC>MOL_PROPERTY
Delta U+W
SciTegic.value.DoubleValue
-0.384

@<SCITEGIC>MOL_PROPERTY
U+W
SciTegic.value.DoubleValue
-52.130

@<SCITEGIC>MOL_PROPERTY
Grad RMS
SciTegic.value.DoubleValue
0.000000

@<SCITEGIC>MOL_PROPERTY
U
SciTegic.value.DoubleValue
7.491

@<SCITEGIC>MOL_PROPERTY
W
SciTegic.value.DoubleValue
-59.621

@<SCITEGIC>MOL_PROPERTY
W(PB)
SciTegic.value.DoubleValue
-61.853

@<SCITEGIC>MOL_PROPERTY
W(SA)
SciTegic.value.DoubleValue
2.232

@<SCITEGIC>MOL_PROPERTY
Valence
SciTegic.value.DoubleValue
9.604

@<SCITEGIC>MOL_PROPERTY
Coulomb
SciTegic.value.DoubleValue
-2.799

@<SCITEGIC>MOL_PROPERTY
VdW
SciTegic.value.DoubleValue
0.686

@<SCITEGIC>MOL_PROPERTY
VdW6
SciTegic.value.DoubleValue
-6.435

@<SCITEGIC>MOL_PROPERTY
VdW12
SciTegic.value.DoubleValue
7.121

@<SCITEGIC>MOL_PROPERTY
Bond
SciTegic.value.DoubleValue
0.124

@<SCITEGIC>MOL_PROPERTY
Angle
SciTegic.value.DoubleValue
2.493

@<SCITEGIC>MOL_PROPERTY
Pdih
SciTegic.value.DoubleValue
6.986

@<SCITEGIC>MOL_PROPERTY
Idih
SciTegic.value.DoubleValue
0.001

@<SCITEGIC>MOL_PROPERTY
Tether
SciTegic.value.DoubleValue
0.000

@<TRIPOS>MOLECULE
guest-s22_confgen4.mol2 : confsearch ligand conformer 303
          20          19           1
SMALL
USER_CHARGES
 
@<TRIPOS>ATOM
       1    C1      22.087391   21.399936   21.420661 C.2        1 MOL1        -0.2535
       2    H1      22.844247   22.164268   21.252863 H          1 MOL1         0.0845
       3    H2      21.283199   21.648500   22.109892 H          1 MOL1         0.0845
       4    C2      22.160993   20.217495   20.799107 C.2        1 MOL1        -0.1324
       5    H3      22.991276   20.026901   20.119451 H          1 MOL1         0.0833
       6    C3      21.186315   19.059280   20.931604 C.3        1 MOL1        -0.1813
       7    H4      21.738189   18.170062   21.264561 H          1 MOL1         0.0753
       8    H5      20.796866   18.810166   19.935407 H          1 MOL1         0.0753
       9    C4      20.000017   19.308944   21.891993 C.3        1 MOL1        -0.1855
      10    H6      20.382674   19.538340   22.896004 H          1 MOL1         0.0755
      11    H7      19.431153   20.185407   21.552445 H          1 MOL1         0.0755
      12    C5      19.059379   18.086561   21.969455 C.3        1 MOL1        -0.1855
      13    H8      19.622687   17.206072   22.308616 H          1 MOL1         0.0755
      14    H9      18.673121   17.851819   20.967803 H          1 MOL1         0.0755
      15    C6      17.870623   18.334082   22.930537 C.3        1 MOL1        -0.1958
      16    H10     18.238992   18.556851   23.939140 H          1 MOL1         0.0753
      17    H11     17.289457   19.202691   22.598321 H          1 MOL1         0.0753
      18    C7      16.926756   17.140622   23.024096 C.2        1 MOL1         0.6174
      19    O1      17.153675   16.294559   23.866316 O.co2      1 MOL1        -0.6695
      20    O2      16.001051   17.078584   22.239323 O.co2      1 MOL1        -0.6695
@<TRIPOS>BOND
    1     1     2    1
    2     1     3    1
    3     1     4    2
    4     4     5    1
    5     4     6    1
    6     6     7    1
    7     6     8    1
    8     6     9    1
    9     9    10    1
   10     9    11    1
   11     9    12    1
   12    12    13    1
   13    12    14    1
   14    12    15    1
   15    15    16    1
   16    15    17    1
   17    15    18    1
   18    18    19    1
   19    18    20    2
@<TRIPOS>SUBSTRUCTURE
       1 MOL1            1 RESIDUE      1      MOL     
@<SCITEGIC>MOL_PROPERTY
VConf Rank
SciTegic.value.IntegerValue
303

@<SCITEGIC>MOL_PROPERTY
Conf_Id
SciTegic.value.IntegerValue
44

@<SCITEGIC>MOL_PROPERTY
Delta U+W
SciTegic.value.DoubleValue
-1.440

@<SCITEGIC>MOL_PROPERTY
U+W
SciTegic.value.DoubleValue
-53.185

@<SCITEGIC>MOL_PROPERTY
Grad RMS
SciTegic.value.DoubleValue
0.000000

@<SCITEGIC>MOL_PROPERTY
U
SciTegic.value.DoubleValue
6.572

@<SCITEGIC>MOL_PROPERTY
W
SciTegic.value.DoubleValue
-59.757

@<SCITEGIC>MOL_PROPERTY
W(PB)
SciTegic.value.DoubleValue
-62.007

@<SCITEGIC>MOL_PROPERTY
W(SA)
SciTegic.value.DoubleValue
2.249

@<SCITEGIC>MOL_PROPERTY
Valence
SciTegic.value.DoubleValue
7.989

@<SCITEGIC>MOL_PROPERTY
Coulomb
SciTegic.value.DoubleValue
-2.697

@<SCITEGIC>MOL_PROPERTY
VdW
SciTegic.value.DoubleValue
1.281

@<SCITEGIC>MOL_PROPERTY
VdW6
SciTegic.value.DoubleValue
-6.467

@<SCITEGIC>MOL_PROPERTY
VdW12
SciTegic.value.DoubleValue
7.748

@<SCITEGIC>MOL_PROPERTY
Bond
SciTegic.value.DoubleValue
0.136

@<SCITEGIC>MOL_PROPERTY
Angle
SciTegic.value.DoubleValue
2.854

@<SCITEGIC>MOL_PROPERTY
Pdih
SciTegic.value.DoubleValue
4.997

@<SCITEGIC>MOL_PROPERTY
Idih
SciTegic.value.DoubleValue
0.001

@<SCITEGIC>MOL_PROPERTY
Tether
SciTegic.value.DoubleValue
0.000

@<TRIPOS>MOLECULE
guest-s22_confgen4.mol2 : confsearch ligand conformer 304
          20          19           1
SMALL
USER_CHARGES
 
@<TRIPOS>ATOM
       1    C1      20.114248   22.177180   20.456033 C.2        1 MOL1        -0.2535
       2    H1      19.602088   22.469681   21.371300 H          1 MOL1         0.0845
       3    H2      20.166951   22.912252   19.654693 H          1 MOL1         0.0845
       4    C2      20.655673   20.964273   20.316625 C.2        1 MOL1        -0.1324
       5    H3      21.163526   20.691320   19.391844 H          1 MOL1         0.0833
       6    C3      20.623300   19.893480   21.384450 C.3        1 MOL1        -0.1813
       7    H4      20.345711   20.337372   22.349076 H          1 MOL1         0.0753
       8    H5      21.628324   19.468547   21.508101 H          1 MOL1         0.0753
       9    C4      19.627768   18.770882   21.014786 C.3        1 MOL1        -0.1855
      10    H6      18.613467   19.187419   20.944896 H          1 MOL1         0.0755
      11    H7      19.876142   18.390696   20.014359 H          1 MOL1         0.0755
      12    C5      19.636928   17.585117   22.008868 C.3        1 MOL1        -0.1855
      13    H8      20.648726   17.161334   22.072462 H          1 MOL1         0.0755
      14    H9      18.991700   16.788715   21.612729 H          1 MOL1         0.0755
      15    C6      19.143923   17.964345   23.429498 C.3        1 MOL1        -0.1958
      16    H10     19.819706   18.692485   23.891917 H          1 MOL1         0.0753
      17    H11     18.152279   18.429118   23.374499 H          1 MOL1         0.0753
      18    C7      19.051292   16.761513   24.361457 C.2        1 MOL1         0.6174
      19    O1      18.003584   16.147239   24.402801 O.co2      1 MOL1        -0.6695
      20    O2      20.035447   16.458378   25.006640 O.co2      1 MOL1        -0.6695
@<TRIPOS>BOND
    1     1     2    1
    2     1     3    1
    3     1     4    2
    4     4     5    1
    5     4     6    1
    6     6     7    1
    7     6     8    1
    8     6     9    1
    9     9    10    1
   10     9    11    1
   11     9    12    1
   12    12    13    1
   13    12    14    1
   14    12    15    1
   15    15    16    1
   16    15    17    1
   17    15    18    1
   18    18    19    1
   19    18    20    2
@<TRIPOS>SUBSTRUCTURE
       1 MOL1            1 RESIDUE      1      MOL     
@<SCITEGIC>MOL_PROPERTY
VConf Rank
SciTegic.value.IntegerValue
304

@<SCITEGIC>MOL_PROPERTY
Conf_Id
SciTegic.value.IntegerValue
38

@<SCITEGIC>MOL_PROPERTY
Delta U+W
SciTegic.value.DoubleValue
-0.381

@<SCITEGIC>MOL_PROPERTY
U+W
SciTegic.value.DoubleValue
-52.126

@<SCITEGIC>MOL_PROPERTY
Grad RMS
SciTegic.value.DoubleValue
0.000000

@<SCITEGIC>MOL_PROPERTY
U
SciTegic.value.DoubleValue
7.601

@<SCITEGIC>MOL_PROPERTY
W
SciTegic.value.DoubleValue
-59.727

@<SCITEGIC>MOL_PROPERTY
W(PB)
SciTegic.value.DoubleValue
-61.964

@<SCITEGIC>MOL_PROPERTY
W(SA)
SciTegic.value.DoubleValue
2.236

@<SCITEGIC>MOL_PROPERTY
Valence
SciTegic.value.DoubleValue
9.602

@<SCITEGIC>MOL_PROPERTY
Coulomb
SciTegic.value.DoubleValue
-2.686

@<SCITEGIC>MOL_PROPERTY
VdW
SciTegic.value.DoubleValue
0.685

@<SCITEGIC>MOL_PROPERTY
VdW6
SciTegic.value.DoubleValue
-6.453

@<SCITEGIC>MOL_PROPERTY
VdW12
SciTegic.value.DoubleValue
7.139

@<SCITEGIC>MOL_PROPERTY
Bond
SciTegic.value.DoubleValue
0.125

@<SCITEGIC>MOL_PROPERTY
Angle
SciTegic.value.DoubleValue
2.485

@<SCITEGIC>MOL_PROPERTY
Pdih
SciTegic.value.DoubleValue
6.991

@<SCITEGIC>MOL_PROPERTY
Idih
SciTegic.value.DoubleValue
0.001

@<SCITEGIC>MOL_PROPERTY
Tether
SciTegic.value.DoubleValue
0.000

@<TRIPOS>MOLECULE
guest-s22_confgen4.mol2 : confsearch ligand conformer 305
          20          19           1
SMALL
USER_CHARGES
 
@<TRIPOS>ATOM
       1    C1      21.555852   17.345982   19.637542 C.2        1 MOL1        -0.2535
       2    H1      20.759620   16.612709   19.519629 H          1 MOL1         0.0845
       3    H2      22.279571   17.433964   18.828988 H          1 MOL1         0.0845
       4    C2      21.643655   18.111204   20.728591 C.2        1 MOL1        -0.1324
       5    H3      22.448033   18.839932   20.826525 H          1 MOL1         0.0833
       6    C3      20.677586   18.045124   21.890483 C.3        1 MOL1        -0.1813
       7    H4      21.239301   17.987528   22.832441 H          1 MOL1         0.0753
       8    H5      20.069920   17.132099   21.828292 H          1 MOL1         0.0753
       9    C4      19.751256   19.278936   21.915684 C.3        1 MOL1        -0.1855
      10    H6      20.361355   20.190549   21.980275 H          1 MOL1         0.0755
      11    H7      19.194701   19.335857   20.970022 H          1 MOL1         0.0755
      12    C5      18.759056   19.228612   23.099466 C.3        1 MOL1        -0.1855
      13    H8      19.312668   19.182291   24.047656 H          1 MOL1         0.0755
      14    H9      18.164800   18.307043   23.035028 H          1 MOL1         0.0755
      15    C6      17.798562   20.445870   23.124574 C.3        1 MOL1        -0.1958
      16    H10     17.258420   20.522074   22.173102 H          1 MOL1         0.0753
      17    H11     17.044400   20.301595   23.907134 H          1 MOL1         0.0753
      18    C7      18.491986   21.777280   23.399121 C.2        1 MOL1         0.6174
      19    O1      18.654433   22.544321   22.470558 O.co2      1 MOL1        -0.6695
      20    O2      18.841537   22.016264   24.538331 O.co2      1 MOL1        -0.6695
@<TRIPOS>BOND
    1     1     2    1
    2     1     3    1
    3     1     4    2
    4     4     5    1
    5     4     6    1
    6     6     7    1
    7     6     8    1
    8     6     9    1
    9     9    10    1
   10     9    11    1
   11     9    12    1
   12    12    13    1
   13    12    14    1
   14    12    15    1
   15    15    16    1
   16    15    17    1
   17    15    18    1
   18    18    19    1
   19    18    20    2
@<TRIPOS>SUBSTRUCTURE
       1 MOL1            1 RESIDUE      1      MOL     
@<SCITEGIC>MOL_PROPERTY
VConf Rank
SciTegic.value.IntegerValue
305

@<SCITEGIC>MOL_PROPERTY
Conf_Id
SciTegic.value.IntegerValue
58

@<SCITEGIC>MOL_PROPERTY
Delta U+W
SciTegic.value.DoubleValue
0.019

@<SCITEGIC>MOL_PROPERTY
U+W
SciTegic.value.DoubleValue
-51.727

@<SCITEGIC>MOL_PROPERTY
Grad RMS
SciTegic.value.DoubleValue
0.000000

@<SCITEGIC>MOL_PROPERTY
U
SciTegic.value.DoubleValue
8.963

@<SCITEGIC>MOL_PROPERTY
W
SciTegic.value.DoubleValue
-60.690

@<SCITEGIC>MOL_PROPERTY
W(PB)
SciTegic.value.DoubleValue
-62.934

@<SCITEGIC>MOL_PROPERTY
W(SA)
SciTegic.value.DoubleValue
2.244

@<SCITEGIC>MOL_PROPERTY
Valence
SciTegic.value.DoubleValue
9.327

@<SCITEGIC>MOL_PROPERTY
Coulomb
SciTegic.value.DoubleValue
-0.780

@<SCITEGIC>MOL_PROPERTY
VdW
SciTegic.value.DoubleValue
0.417

@<SCITEGIC>MOL_PROPERTY
VdW6
SciTegic.value.DoubleValue
-6.635

@<SCITEGIC>MOL_PROPERTY
VdW12
SciTegic.value.DoubleValue
7.052

@<SCITEGIC>MOL_PROPERTY
Bond
SciTegic.value.DoubleValue
0.105

@<SCITEGIC>MOL_PROPERTY
Angle
SciTegic.value.DoubleValue
2.399

@<SCITEGIC>MOL_PROPERTY
Pdih
SciTegic.value.DoubleValue
6.822

@<SCITEGIC>MOL_PROPERTY
Idih
SciTegic.value.DoubleValue
0.000

@<SCITEGIC>MOL_PROPERTY
Tether
SciTegic.value.DoubleValue
0.000

@<TRIPOS>MOLECULE
guest-s22_confgen4.mol2 : confsearch ligand conformer 306
          20          19           1
SMALL
USER_CHARGES
 
@<TRIPOS>ATOM
       1    C1      16.590273   18.931844   20.416949 C.2        1 MOL1        -0.2535
       2    H1      17.036313   18.553187   19.498666 H          1 MOL1         0.0845
       3    H2      15.599952   19.378451   20.345716 H          1 MOL1         0.0845
       4    C2      17.230505   18.855814   21.586560 C.2        1 MOL1        -0.1324
       5    H3      16.766666   19.241747   22.494066 H          1 MOL1         0.0833
       6    C3      18.605024   18.249794   21.762856 C.3        1 MOL1        -0.1813
       7    H4      18.880914   17.667692   20.873035 H          1 MOL1         0.0753
       8    H5      18.591630   17.548424   22.607857 H          1 MOL1         0.0753
       9    C4      19.666984   19.340861   22.013505 C.3        1 MOL1        -0.1855
      10    H6      19.674096   20.043116   21.168485 H          1 MOL1         0.0755
      11    H7      19.389924   19.920070   22.905237 H          1 MOL1         0.0755
      12    C5      21.077787   18.737891   22.198955 C.3        1 MOL1        -0.1855
      13    H8      21.339407   18.148287   21.309851 H          1 MOL1         0.0755
      14    H9      21.076760   18.042917   23.050252 H          1 MOL1         0.0755
      15    C6      22.164700   19.821323   22.421859 C.3        1 MOL1        -0.1958
      16    H10     23.155060   19.351086   22.428260 H          1 MOL1         0.0753
      17    H11     22.159457   20.539531   21.592998 H          1 MOL1         0.0753
      18    C7      22.015569   20.588786   23.732441 C.2        1 MOL1         0.6174
      19    O1      22.343972   20.032532   24.761921 O.co2      1 MOL1        -0.6695
      20    O2      21.586095   21.724846   23.688968 O.co2      1 MOL1        -0.6695
@<TRIPOS>BOND
    1     1     2    1
    2     1     3    1
    3     1     4    2
    4     4     5    1
    5     4     6    1
    6     6     7    1
    7     6     8    1
    8     6     9    1
    9     9    10    1
   10     9    11    1
   11     9    12    1
   12    12    13    1
   13    12    14    1
   14    12    15    1
   15    15    16    1
   16    15    17    1
   17    15    18    1
   18    18    19    1
   19    18    20    2
@<TRIPOS>SUBSTRUCTURE
       1 MOL1            1 RESIDUE      1      MOL     
@<SCITEGIC>MOL_PROPERTY
VConf Rank
SciTegic.value.IntegerValue
306

@<SCITEGIC>MOL_PROPERTY
Conf_Id
SciTegic.value.IntegerValue
54

@<SCITEGIC>MOL_PROPERTY
Delta U+W
SciTegic.value.DoubleValue
-0.048

@<SCITEGIC>MOL_PROPERTY
U+W
SciTegic.value.DoubleValue
-51.793

@<SCITEGIC>MOL_PROPERTY
Grad RMS
SciTegic.value.DoubleValue
0.000000

@<SCITEGIC>MOL_PROPERTY
U
SciTegic.value.DoubleValue
8.964

@<SCITEGIC>MOL_PROPERTY
W
SciTegic.value.DoubleValue
-60.756

@<SCITEGIC>MOL_PROPERTY
W(PB)
SciTegic.value.DoubleValue
-63.007

@<SCITEGIC>MOL_PROPERTY
W(SA)
SciTegic.value.DoubleValue
2.251

@<SCITEGIC>MOL_PROPERTY
Valence
SciTegic.value.DoubleValue
9.327

@<SCITEGIC>MOL_PROPERTY
Coulomb
SciTegic.value.DoubleValue
-0.780

@<SCITEGIC>MOL_PROPERTY
VdW
SciTegic.value.DoubleValue
0.417

@<SCITEGIC>MOL_PROPERTY
VdW6
SciTegic.value.DoubleValue
-6.635

@<SCITEGIC>MOL_PROPERTY
VdW12
SciTegic.value.DoubleValue
7.052

@<SCITEGIC>MOL_PROPERTY
Bond
SciTegic.value.DoubleValue
0.105

@<SCITEGIC>MOL_PROPERTY
Angle
SciTegic.value.DoubleValue
2.399

@<SCITEGIC>MOL_PROPERTY
Pdih
SciTegic.value.DoubleValue
6.822

@<SCITEGIC>MOL_PROPERTY
Idih
SciTegic.value.DoubleValue
0.000

@<SCITEGIC>MOL_PROPERTY
Tether
SciTegic.value.DoubleValue
0.000

@<TRIPOS>MOLECULE
guest-s22_confgen4.mol2 : confsearch ligand conformer 307
          20          19           1
SMALL
USER_CHARGES
 
@<TRIPOS>ATOM
       1    C1      16.458799   19.553529   22.440733 C.2        1 MOL1        -0.2535
       2    H1      15.579382   18.980136   22.152574 H          1 MOL1         0.0845
       3    H2      16.438147   20.049971   23.409560 H          1 MOL1         0.0845
       4    C2      17.520857   19.639676   21.635573 C.2        1 MOL1        -0.1324
       5    H3      17.519286   19.137810   20.668422 H          1 MOL1         0.0833
       6    C3      18.773470   20.423010   21.966024 C.3        1 MOL1        -0.1813
       7    H4      18.551595   21.163449   22.746442 H          1 MOL1         0.0753
       8    H5      19.101689   20.992887   21.086502 H          1 MOL1         0.0753
       9    C4      19.923390   19.515378   22.458048 C.3        1 MOL1        -0.1855
      10    H6      20.747157   20.151630   22.809580 H          1 MOL1         0.0755
      11    H7      19.584266   18.934596   23.326854 H          1 MOL1         0.0755
      12    C5      20.447003   18.558931   21.360258 C.3        1 MOL1        -0.1855
      13    H8      20.772655   19.138705   20.485472 H          1 MOL1         0.0755
      14    H9      19.630675   17.907294   21.021924 H          1 MOL1         0.0755
      15    C6      21.619060   17.671095   21.853423 C.3        1 MOL1        -0.1958
      16    H10     21.319534   17.110895   22.747455 H          1 MOL1         0.0753
      17    H11     21.867106   16.931132   21.083434 H          1 MOL1         0.0753
      18    C7      22.895250   18.446226   22.168613 C.2        1 MOL1         0.6174
      19    O1      23.183825   18.630979   23.334649 O.co2      1 MOL1        -0.6695
      20    O2      23.573054   18.835635   21.237991 O.co2      1 MOL1        -0.6695
@<TRIPOS>BOND
    1     1     2    1
    2     1     3    1
    3     1     4    2
    4     4     5    1
    5     4     6    1
    6     6     7    1
    7     6     8    1
    8     6     9    1
    9     9    10    1
   10     9    11    1
   11     9    12    1
   12    12    13    1
   13    12    14    1
   14    12    15    1
   15    15    16    1
   16    15    17    1
   17    15    18    1
   18    18    19    1
   19    18    20    2
@<TRIPOS>SUBSTRUCTURE
       1 MOL1            1 RESIDUE      1      MOL     
@<SCITEGIC>MOL_PROPERTY
VConf Rank
SciTegic.value.IntegerValue
307

@<SCITEGIC>MOL_PROPERTY
Conf_Id
SciTegic.value.IntegerValue
27

@<SCITEGIC>MOL_PROPERTY
Delta U+W
SciTegic.value.DoubleValue
0.478

@<SCITEGIC>MOL_PROPERTY
U+W
SciTegic.value.DoubleValue
-51.267

@<SCITEGIC>MOL_PROPERTY
Grad RMS
SciTegic.value.DoubleValue
0.000000

@<SCITEGIC>MOL_PROPERTY
U
SciTegic.value.DoubleValue
9.192

@<SCITEGIC>MOL_PROPERTY
W
SciTegic.value.DoubleValue
-60.459

@<SCITEGIC>MOL_PROPERTY
W(PB)
SciTegic.value.DoubleValue
-62.649

@<SCITEGIC>MOL_PROPERTY
W(SA)
SciTegic.value.DoubleValue
2.190

@<SCITEGIC>MOL_PROPERTY
Valence
SciTegic.value.DoubleValue
9.572

@<SCITEGIC>MOL_PROPERTY
Coulomb
SciTegic.value.DoubleValue
-0.884

@<SCITEGIC>MOL_PROPERTY
VdW
SciTegic.value.DoubleValue
0.504

@<SCITEGIC>MOL_PROPERTY
VdW6
SciTegic.value.DoubleValue
-7.168

@<SCITEGIC>MOL_PROPERTY
VdW12
SciTegic.value.DoubleValue
7.672

@<SCITEGIC>MOL_PROPERTY
Bond
SciTegic.value.DoubleValue
0.127

@<SCITEGIC>MOL_PROPERTY
Angle
SciTegic.value.DoubleValue
2.504

@<SCITEGIC>MOL_PROPERTY
Pdih
SciTegic.value.DoubleValue
6.941

@<SCITEGIC>MOL_PROPERTY
Idih
SciTegic.value.DoubleValue
0.001

@<SCITEGIC>MOL_PROPERTY
Tether
SciTegic.value.DoubleValue
0.000

@<TRIPOS>MOLECULE
guest-s22_confgen4.mol2 : confsearch ligand conformer 308
          20          19           1
SMALL
USER_CHARGES
 
@<TRIPOS>ATOM
       1    C1      22.129183   20.703203   23.213135 C.2        1 MOL1        -0.2535
       2    H1      22.150416   20.507868   24.284069 H          1 MOL1         0.0845
       3    H2      22.452991   21.686605   22.876584 H          1 MOL1         0.0845
       4    C2      21.719467   19.776375   22.343192 C.2        1 MOL1        -0.1324
       5    H3      21.709064   19.991749   21.275110 H          1 MOL1         0.0833
       6    C3      21.262017   18.387975   22.736741 C.3        1 MOL1        -0.1813
       7    H4      21.635155   18.146006   23.741118 H          1 MOL1         0.0753
       8    H5      21.700143   17.643459   22.058653 H          1 MOL1         0.0753
       9    C4      19.722562   18.253310   22.734749 C.3        1 MOL1        -0.1855
      10    H6      19.452752   17.273974   23.153057 H          1 MOL1         0.0755
      11    H7      19.289295   19.010716   23.402524 H          1 MOL1         0.0755
      12    C5      19.109200   18.387919   21.322053 C.3        1 MOL1        -0.1855
      13    H8      19.562330   17.646906   20.649052 H          1 MOL1         0.0755
      14    H9      19.338056   19.378745   20.906636 H          1 MOL1         0.0755
      15    C6      17.573397   18.190364   21.340497 C.3        1 MOL1        -0.1958
      16    H10     17.323354   17.199006   21.737010 H          1 MOL1         0.0753
      17    H11     17.104593   18.931129   21.999360 H          1 MOL1         0.0753
      18    C7      16.943550   18.319753   19.958253 C.2        1 MOL1         0.6174
      19    O1      16.573510   19.419387   19.596954 O.co2      1 MOL1        -0.6695
      20    O2      16.855634   17.320534   19.272301 O.co2      1 MOL1        -0.6695
@<TRIPOS>BOND
    1     1     2    1
    2     1     3    1
    3     1     4    2
    4     4     5    1
    5     4     6    1
    6     6     7    1
    7     6     8    1
    8     6     9    1
    9     9    10    1
   10     9    11    1
   11     9    12    1
   12    12    13    1
   13    12    14    1
   14    12    15    1
   15    15    16    1
   16    15    17    1
   17    15    18    1
   18    18    19    1
   19    18    20    2
@<TRIPOS>SUBSTRUCTURE
       1 MOL1            1 RESIDUE      1      MOL     
@<SCITEGIC>MOL_PROPERTY
VConf Rank
SciTegic.value.IntegerValue
308

@<SCITEGIC>MOL_PROPERTY
Conf_Id
SciTegic.value.IntegerValue
41

@<SCITEGIC>MOL_PROPERTY
Delta U+W
SciTegic.value.DoubleValue
-0.634

@<SCITEGIC>MOL_PROPERTY
U+W
SciTegic.value.DoubleValue
-52.379

@<SCITEGIC>MOL_PROPERTY
Grad RMS
SciTegic.value.DoubleValue
0.000000

@<SCITEGIC>MOL_PROPERTY
U
SciTegic.value.DoubleValue
7.828

@<SCITEGIC>MOL_PROPERTY
W
SciTegic.value.DoubleValue
-60.207

@<SCITEGIC>MOL_PROPERTY
W(PB)
SciTegic.value.DoubleValue
-62.449

@<SCITEGIC>MOL_PROPERTY
W(SA)
SciTegic.value.DoubleValue
2.242

@<SCITEGIC>MOL_PROPERTY
Valence
SciTegic.value.DoubleValue
9.300

@<SCITEGIC>MOL_PROPERTY
Coulomb
SciTegic.value.DoubleValue
-2.080

@<SCITEGIC>MOL_PROPERTY
VdW
SciTegic.value.DoubleValue
0.608

@<SCITEGIC>MOL_PROPERTY
VdW6
SciTegic.value.DoubleValue
-6.341

@<SCITEGIC>MOL_PROPERTY
VdW12
SciTegic.value.DoubleValue
6.949

@<SCITEGIC>MOL_PROPERTY
Bond
SciTegic.value.DoubleValue
0.103

@<SCITEGIC>MOL_PROPERTY
Angle
SciTegic.value.DoubleValue
2.334

@<SCITEGIC>MOL_PROPERTY
Pdih
SciTegic.value.DoubleValue
6.862

@<SCITEGIC>MOL_PROPERTY
Idih
SciTegic.value.DoubleValue
0.001

@<SCITEGIC>MOL_PROPERTY
Tether
SciTegic.value.DoubleValue
0.000

@<TRIPOS>MOLECULE
guest-s22_confgen4.mol2 : confsearch ligand conformer 309
          20          19           1
SMALL
USER_CHARGES
 
@<TRIPOS>ATOM
       1    C1      17.690140   19.754332   19.661540 C.2        1 MOL1        -0.2535
       2    H1      17.359494   19.607827   18.634677 H          1 MOL1         0.0845
       3    H2      16.980876   20.199166   20.357686 H          1 MOL1         0.0845
       4    C2      18.917940   19.398787   20.048591 C.2        1 MOL1        -0.1324
       5    H3      19.612883   18.954357   19.336410 H          1 MOL1         0.0833
       6    C3      19.447401   19.572057   21.454737 C.3        1 MOL1        -0.1813
       7    H4      18.795829   20.247002   22.025945 H          1 MOL1         0.0753
       8    H5      20.436955   20.045107   21.410469 H          1 MOL1         0.0753
       9    C4      19.546397   18.212319   22.181710 C.3        1 MOL1        -0.1855
      10    H6      18.570811   17.709806   22.128102 H          1 MOL1         0.0755
      11    H7      20.257012   17.563282   21.651581 H          1 MOL1         0.0755
      12    C5      19.956531   18.334767   23.669993 C.3        1 MOL1        -0.1855
      13    H8      19.927287   17.336426   24.128083 H          1 MOL1         0.0755
      14    H9      19.209829   18.939243   24.202395 H          1 MOL1         0.0755
      15    C6      21.365186   18.947415   23.899717 C.3        1 MOL1        -0.1958
      16    H10     21.407295   19.974698   23.520346 H          1 MOL1         0.0753
      17    H11     21.564032   19.006241   24.976149 H          1 MOL1         0.0753
      18    C7      22.502570   18.147319   23.271274 C.2        1 MOL1         0.6174
      19    O1      22.805855   17.086401   23.781056 O.co2      1 MOL1        -0.6695
      20    O2      23.066877   18.613025   22.300899 O.co2      1 MOL1        -0.6695
@<TRIPOS>BOND
    1     1     2    1
    2     1     3    1
    3     1     4    2
    4     4     5    1
    5     4     6    1
    6     6     7    1
    7     6     8    1
    8     6     9    1
    9     9    10    1
   10     9    11    1
   11     9    12    1
   12    12    13    1
   13    12    14    1
   14    12    15    1
   15    15    16    1
   16    15    17    1
   17    15    18    1
   18    18    19    1
   19    18    20    2
@<TRIPOS>SUBSTRUCTURE
       1 MOL1            1 RESIDUE      1      MOL     
@<SCITEGIC>MOL_PROPERTY
VConf Rank
SciTegic.value.IntegerValue
309

@<SCITEGIC>MOL_PROPERTY
Conf_Id
SciTegic.value.IntegerValue
84

@<SCITEGIC>MOL_PROPERTY
Delta U+W
SciTegic.value.DoubleValue
0.942

@<SCITEGIC>MOL_PROPERTY
U+W
SciTegic.value.DoubleValue
-50.803

@<SCITEGIC>MOL_PROPERTY
Grad RMS
SciTegic.value.DoubleValue
0.000000

@<SCITEGIC>MOL_PROPERTY
U
SciTegic.value.DoubleValue
10.196

@<SCITEGIC>MOL_PROPERTY
W
SciTegic.value.DoubleValue
-60.999

@<SCITEGIC>MOL_PROPERTY
W(PB)
SciTegic.value.DoubleValue
-63.182

@<SCITEGIC>MOL_PROPERTY
W(SA)
SciTegic.value.DoubleValue
2.182

@<SCITEGIC>MOL_PROPERTY
Valence
SciTegic.value.DoubleValue
9.837

@<SCITEGIC>MOL_PROPERTY
Coulomb
SciTegic.value.DoubleValue
0.032

@<SCITEGIC>MOL_PROPERTY
VdW
SciTegic.value.DoubleValue
0.328

@<SCITEGIC>MOL_PROPERTY
VdW6
SciTegic.value.DoubleValue
-7.642

@<SCITEGIC>MOL_PROPERTY
VdW12
SciTegic.value.DoubleValue
7.969

@<SCITEGIC>MOL_PROPERTY
Bond
SciTegic.value.DoubleValue
0.151

@<SCITEGIC>MOL_PROPERTY
Angle
SciTegic.value.DoubleValue
2.748

@<SCITEGIC>MOL_PROPERTY
Pdih
SciTegic.value.DoubleValue
6.937

@<SCITEGIC>MOL_PROPERTY
Idih
SciTegic.value.DoubleValue
0.001

@<SCITEGIC>MOL_PROPERTY
Tether
SciTegic.value.DoubleValue
0.000

@<TRIPOS>MOLECULE
guest-s22_confgen4.mol2 : confsearch ligand conformer 310
          20          19           1
SMALL
USER_CHARGES
 
@<TRIPOS>ATOM
       1    C1      16.933734   20.321456   20.189190 C.2        1 MOL1        -0.2535
       2    H1      16.114193   20.025690   19.536397 H          1 MOL1         0.0845
       3    H2      16.707157   21.020994   20.992242 H          1 MOL1         0.0845
       4    C2      18.166771   19.840659   20.009981 C.2        1 MOL1        -0.1324
       5    H3      18.372300   19.140612   19.200458 H          1 MOL1         0.0833
       6    C3      19.353022   20.205813   20.874352 C.3        1 MOL1        -0.1813
       7    H4      19.121810   21.090268   21.483507 H          1 MOL1         0.0753
       8    H5      20.203979   20.476040   20.234875 H          1 MOL1         0.0753
       9    C4      19.750543   19.035705   21.798411 C.3        1 MOL1        -0.1855
      10    H6      18.892876   18.766538   22.430578 H          1 MOL1         0.0755
      11    H7      19.985897   18.151916   21.189661 H          1 MOL1         0.0755
      12    C5      20.964196   19.391677   22.686479 C.3        1 MOL1        -0.1855
      13    H8      20.727189   20.267030   23.307200 H          1 MOL1         0.0755
      14    H9      21.809947   19.677603   22.046541 H          1 MOL1         0.0755
      15    C6      21.399490   18.216875   23.600396 C.3        1 MOL1        -0.1958
      16    H10     21.613717   17.326517   22.996888 H          1 MOL1         0.0753
      17    H11     22.329096   18.480517   24.118372 H          1 MOL1         0.0753
      18    C7      20.372267   17.847060   24.666672 C.2        1 MOL1         0.6174
      19    O1      19.717384   16.835487   24.509128 O.co2      1 MOL1        -0.6695
      20    O2      20.264006   18.574956   25.633913 O.co2      1 MOL1        -0.6695
@<TRIPOS>BOND
    1     1     2    1
    2     1     3    1
    3     1     4    2
    4     4     5    1
    5     4     6    1
    6     6     7    1
    7     6     8    1
    8     6     9    1
    9     9    10    1
   10     9    11    1
   11     9    12    1
   12    12    13    1
   13    12    14    1
   14    12    15    1
   15    15    16    1
   16    15    17    1
   17    15    18    1
   18    18    19    1
   19    18    20    2
@<TRIPOS>SUBSTRUCTURE
       1 MOL1            1 RESIDUE      1      MOL     
@<SCITEGIC>MOL_PROPERTY
VConf Rank
SciTegic.value.IntegerValue
310

@<SCITEGIC>MOL_PROPERTY
Conf_Id
SciTegic.value.IntegerValue
81

@<SCITEGIC>MOL_PROPERTY
Delta U+W
SciTegic.value.DoubleValue
-0.051

@<SCITEGIC>MOL_PROPERTY
U+W
SciTegic.value.DoubleValue
-51.796

@<SCITEGIC>MOL_PROPERTY
Grad RMS
SciTegic.value.DoubleValue
0.000000

@<SCITEGIC>MOL_PROPERTY
U
SciTegic.value.DoubleValue
9.412

@<SCITEGIC>MOL_PROPERTY
W
SciTegic.value.DoubleValue
-61.209

@<SCITEGIC>MOL_PROPERTY
W(PB)
SciTegic.value.DoubleValue
-63.452

@<SCITEGIC>MOL_PROPERTY
W(SA)
SciTegic.value.DoubleValue
2.243

@<SCITEGIC>MOL_PROPERTY
Valence
SciTegic.value.DoubleValue
9.329

@<SCITEGIC>MOL_PROPERTY
Coulomb
SciTegic.value.DoubleValue
-0.323

@<SCITEGIC>MOL_PROPERTY
VdW
SciTegic.value.DoubleValue
0.406

@<SCITEGIC>MOL_PROPERTY
VdW6
SciTegic.value.DoubleValue
-6.640

@<SCITEGIC>MOL_PROPERTY
VdW12
SciTegic.value.DoubleValue
7.046

@<SCITEGIC>MOL_PROPERTY
Bond
SciTegic.value.DoubleValue
0.105

@<SCITEGIC>MOL_PROPERTY
Angle
SciTegic.value.DoubleValue
2.401

@<SCITEGIC>MOL_PROPERTY
Pdih
SciTegic.value.DoubleValue
6.823

@<SCITEGIC>MOL_PROPERTY
Idih
SciTegic.value.DoubleValue
0.000

@<SCITEGIC>MOL_PROPERTY
Tether
SciTegic.value.DoubleValue
0.000

@<TRIPOS>MOLECULE
guest-s22_confgen4.mol2 : confsearch ligand conformer 311
          20          19           1
SMALL
USER_CHARGES
 
@<TRIPOS>ATOM
       1    C1      22.174714   17.096387   21.632073 C.2        1 MOL1        -0.2535
       2    H1      22.485953   17.171749   20.591443 H          1 MOL1         0.0845
       3    H2      22.870054   16.634730   22.331015 H          1 MOL1         0.0845
       4    C2      20.988104   17.553929   22.039860 C.2        1 MOL1        -0.1324
       5    H3      20.694856   17.466587   23.085614 H          1 MOL1         0.0833
       6    C3      19.969235   18.201368   21.126485 C.3        1 MOL1        -0.1813
       7    H4      18.968594   17.800955   21.334614 H          1 MOL1         0.0753
       8    H5      20.186254   17.936305   20.083001 H          1 MOL1         0.0753
       9    C4      19.960820   19.743929   21.249538 C.3        1 MOL1        -0.1855
      10    H6      20.946506   20.127658   20.952875 H          1 MOL1         0.0755
      11    H7      19.243982   20.154833   20.525471 H          1 MOL1         0.0755
      12    C5      19.621778   20.279521   22.664559 C.3        1 MOL1        -0.1855
      13    H8      19.670041   21.377024   22.646163 H          1 MOL1         0.0755
      14    H9      20.393733   19.953820   23.374276 H          1 MOL1         0.0755
      15    C6      18.226816   19.851513   23.196613 C.3        1 MOL1        -0.1958
      16    H10     18.170373   18.761896   23.299513 H          1 MOL1         0.0753
      17    H11     18.078490   20.265892   24.200554 H          1 MOL1         0.0753
      18    C7      17.059745   20.322356   22.333598 C.2        1 MOL1         0.6174
      19    O1      16.456001   19.494890   21.679474 O.co2      1 MOL1        -0.6695
      20    O2      16.774180   21.503697   22.352277 O.co2      1 MOL1        -0.6695
@<TRIPOS>BOND
    1     1     2    1
    2     1     3    1
    3     1     4    2
    4     4     5    1
    5     4     6    1
    6     6     7    1
    7     6     8    1
    8     6     9    1
    9     9    10    1
   10     9    11    1
   11     9    12    1
   12    12    13    1
   13    12    14    1
   14    12    15    1
   15    15    16    1
   16    15    17    1
   17    15    18    1
   18    18    19    1
   19    18    20    2
@<TRIPOS>SUBSTRUCTURE
       1 MOL1            1 RESIDUE      1      MOL     
@<SCITEGIC>MOL_PROPERTY
VConf Rank
SciTegic.value.IntegerValue
311

@<SCITEGIC>MOL_PROPERTY
Conf_Id
SciTegic.value.IntegerValue
86

@<SCITEGIC>MOL_PROPERTY
Delta U+W
SciTegic.value.DoubleValue
1.248

@<SCITEGIC>MOL_PROPERTY
U+W
SciTegic.value.DoubleValue
-50.498

@<SCITEGIC>MOL_PROPERTY
Grad RMS
SciTegic.value.DoubleValue
0.000000

@<SCITEGIC>MOL_PROPERTY
U
SciTegic.value.DoubleValue
10.404

@<SCITEGIC>MOL_PROPERTY
W
SciTegic.value.DoubleValue
-60.901

@<SCITEGIC>MOL_PROPERTY
W(PB)
SciTegic.value.DoubleValue
-63.061

@<SCITEGIC>MOL_PROPERTY
W(SA)
SciTegic.value.DoubleValue
2.159

@<SCITEGIC>MOL_PROPERTY
Valence
SciTegic.value.DoubleValue
10.021

@<SCITEGIC>MOL_PROPERTY
Coulomb
SciTegic.value.DoubleValue
0.094

@<SCITEGIC>MOL_PROPERTY
VdW
SciTegic.value.DoubleValue
0.289

@<SCITEGIC>MOL_PROPERTY
VdW6
SciTegic.value.DoubleValue
-8.409

@<SCITEGIC>MOL_PROPERTY
VdW12
SciTegic.value.DoubleValue
8.698

@<SCITEGIC>MOL_PROPERTY
Bond
SciTegic.value.DoubleValue
0.179

@<SCITEGIC>MOL_PROPERTY
Angle
SciTegic.value.DoubleValue
2.939

@<SCITEGIC>MOL_PROPERTY
Pdih
SciTegic.value.DoubleValue
6.902

@<SCITEGIC>MOL_PROPERTY
Idih
SciTegic.value.DoubleValue
0.001

@<SCITEGIC>MOL_PROPERTY
Tether
SciTegic.value.DoubleValue
0.000

@<TRIPOS>MOLECULE
guest-s22_confgen4.mol2 : confsearch ligand conformer 312
          20          19           1
SMALL
USER_CHARGES
 
@<TRIPOS>ATOM
       1    C1      17.946449   18.916058   19.509548 C.2        1 MOL1        -0.2535
       2    H1      18.001329   19.111741   18.440062 H          1 MOL1         0.0845
       3    H2      17.660122   17.913018   19.821555 H          1 MOL1         0.0845
       4    C2      18.223881   19.871084   20.401165 C.2        1 MOL1        -0.1324
       5    H3      18.510752   20.868101   20.067920 H          1 MOL1         0.0833
       6    C3      18.169808   19.674291   21.901299 C.3        1 MOL1        -0.1813
       7    H4      17.683789   18.720896   22.149259 H          1 MOL1         0.0753
       8    H5      17.547619   20.463327   22.344159 H          1 MOL1         0.0753
       9    C4      19.571511   19.722405   22.550124 C.3        1 MOL1        -0.1855
      10    H6      20.059870   20.674009   22.299372 H          1 MOL1         0.0755
      11    H7      19.454895   19.708994   23.642475 H          1 MOL1         0.0755
      12    C5      20.471269   18.541197   22.115633 C.3        1 MOL1        -0.1855
      13    H8      20.594309   18.557383   21.024455 H          1 MOL1         0.0755
      14    H9      19.980787   17.589608   22.363135 H          1 MOL1         0.0755
      15    C6      21.873402   18.584666   22.776818 C.3        1 MOL1        -0.1958
      16    H10     22.506857   17.801668   22.343702 H          1 MOL1         0.0753
      17    H11     22.362755   19.542854   22.564243 H          1 MOL1         0.0753
      18    C7      21.853922   18.371864   24.287798 C.2        1 MOL1         0.6174
      19    O1      21.690838   17.241968   24.704773 O.co2      1 MOL1        -0.6695
      20    O2      22.013544   19.338024   25.007619 O.co2      1 MOL1        -0.6695
@<TRIPOS>BOND
    1     1     2    1
    2     1     3    1
    3     1     4    2
    4     4     5    1
    5     4     6    1
    6     6     7    1
    7     6     8    1
    8     6     9    1
    9     9    10    1
   10     9    11    1
   11     9    12    1
   12    12    13    1
   13    12    14    1
   14    12    15    1
   15    15    16    1
   16    15    17    1
   17    15    18    1
   18    18    19    1
   19    18    20    2
@<TRIPOS>SUBSTRUCTURE
       1 MOL1            1 RESIDUE      1      MOL     
@<SCITEGIC>MOL_PROPERTY
VConf Rank
SciTegic.value.IntegerValue
312

@<SCITEGIC>MOL_PROPERTY
Conf_Id
SciTegic.value.IntegerValue
28

@<SCITEGIC>MOL_PROPERTY
Delta U+W
SciTegic.value.DoubleValue
0.446

@<SCITEGIC>MOL_PROPERTY
U+W
SciTegic.value.DoubleValue
-51.299

@<SCITEGIC>MOL_PROPERTY
Grad RMS
SciTegic.value.DoubleValue
0.000000

@<SCITEGIC>MOL_PROPERTY
U
SciTegic.value.DoubleValue
9.295

@<SCITEGIC>MOL_PROPERTY
W
SciTegic.value.DoubleValue
-60.594

@<SCITEGIC>MOL_PROPERTY
W(PB)
SciTegic.value.DoubleValue
-62.806

@<SCITEGIC>MOL_PROPERTY
W(SA)
SciTegic.value.DoubleValue
2.212

@<SCITEGIC>MOL_PROPERTY
Valence
SciTegic.value.DoubleValue
9.495

@<SCITEGIC>MOL_PROPERTY
Coulomb
SciTegic.value.DoubleValue
-0.610

@<SCITEGIC>MOL_PROPERTY
VdW
SciTegic.value.DoubleValue
0.409

@<SCITEGIC>MOL_PROPERTY
VdW6
SciTegic.value.DoubleValue
-7.332

@<SCITEGIC>MOL_PROPERTY
VdW12
SciTegic.value.DoubleValue
7.741

@<SCITEGIC>MOL_PROPERTY
Bond
SciTegic.value.DoubleValue
0.126

@<SCITEGIC>MOL_PROPERTY
Angle
SciTegic.value.DoubleValue
2.497

@<SCITEGIC>MOL_PROPERTY
Pdih
SciTegic.value.DoubleValue
6.872

@<SCITEGIC>MOL_PROPERTY
Idih
SciTegic.value.DoubleValue
0.000

@<SCITEGIC>MOL_PROPERTY
Tether
SciTegic.value.DoubleValue
0.000

@<TRIPOS>MOLECULE
guest-s22_confgen4.mol2 : confsearch ligand conformer 313
          20          19           1
SMALL
USER_CHARGES
 
@<TRIPOS>ATOM
       1    C1      22.192228   20.379849   23.851004 C.2        1 MOL1        -0.2535
       2    H1      21.399161   20.104457   24.542884 H          1 MOL1         0.0845
       3    H2      23.148856   20.661962   24.287370 H          1 MOL1         0.0845
       4    C2      22.021431   20.374763   22.524061 C.2        1 MOL1        -0.1324
       5    H3      22.854712   20.658437   21.881635 H          1 MOL1         0.0833
       6    C3      20.752557   20.008595   21.772174 C.3        1 MOL1        -0.1813
       7    H4      20.963958   19.136102   21.140728 H          1 MOL1         0.0753
       8    H5      20.505641   20.825665   21.081389 H          1 MOL1         0.0753
       9    C4      19.523187   19.717908   22.668138 C.3        1 MOL1        -0.1855
      10    H6      19.727090   18.844314   23.302512 H          1 MOL1         0.0755
      11    H7      19.364931   20.568314   23.345233 H          1 MOL1         0.0755
      12    C5      18.217032   19.486770   21.868391 C.3        1 MOL1        -0.1855
      13    H8      17.992610   20.383332   21.274927 H          1 MOL1         0.0755
      14    H9      17.385124   19.371474   22.576942 H          1 MOL1         0.0755
      15    C6      18.246172   18.249285   20.930074 C.3        1 MOL1        -0.1958
      16    H10     17.289241   18.173293   20.400766 H          1 MOL1         0.0753
      17    H11     19.017371   18.364783   20.160131 H          1 MOL1         0.0753
      18    C7      18.470507   16.923763   21.652271 C.2        1 MOL1         0.6174
      19    O1      17.571430   16.490362   22.346012 O.co2      1 MOL1        -0.6695
      20    O2      19.528462   16.349315   21.486144 O.co2      1 MOL1        -0.6695
@<TRIPOS>BOND
    1     1     2    1
    2     1     3    1
    3     1     4    2
    4     4     5    1
    5     4     6    1
    6     6     7    1
    7     6     8    1
    8     6     9    1
    9     9    10    1
   10     9    11    1
   11     9    12    1
   12    12    13    1
   13    12    14    1
   14    12    15    1
   15    15    16    1
   16    15    17    1
   17    15    18    1
   18    18    19    1
   19    18    20    2
@<TRIPOS>SUBSTRUCTURE
       1 MOL1            1 RESIDUE      1      MOL     
@<SCITEGIC>MOL_PROPERTY
VConf Rank
SciTegic.value.IntegerValue
313

@<SCITEGIC>MOL_PROPERTY
Conf_Id
SciTegic.value.IntegerValue
53

@<SCITEGIC>MOL_PROPERTY
Delta U+W
SciTegic.value.DoubleValue
0.549

@<SCITEGIC>MOL_PROPERTY
U+W
SciTegic.value.DoubleValue
-51.197

@<SCITEGIC>MOL_PROPERTY
Grad RMS
SciTegic.value.DoubleValue
0.000000

@<SCITEGIC>MOL_PROPERTY
U
SciTegic.value.DoubleValue
10.870

@<SCITEGIC>MOL_PROPERTY
W
SciTegic.value.DoubleValue
-62.067

@<SCITEGIC>MOL_PROPERTY
W(PB)
SciTegic.value.DoubleValue
-64.228

@<SCITEGIC>MOL_PROPERTY
W(SA)
SciTegic.value.DoubleValue
2.161

@<SCITEGIC>MOL_PROPERTY
Valence
SciTegic.value.DoubleValue
8.803

@<SCITEGIC>MOL_PROPERTY
Coulomb
SciTegic.value.DoubleValue
1.020

@<SCITEGIC>MOL_PROPERTY
VdW
SciTegic.value.DoubleValue
1.048

@<SCITEGIC>MOL_PROPERTY
VdW6
SciTegic.value.DoubleValue
-8.312

@<SCITEGIC>MOL_PROPERTY
VdW12
SciTegic.value.DoubleValue
9.360

@<SCITEGIC>MOL_PROPERTY
Bond
SciTegic.value.DoubleValue
0.212

@<SCITEGIC>MOL_PROPERTY
Angle
SciTegic.value.DoubleValue
3.379

@<SCITEGIC>MOL_PROPERTY
Pdih
SciTegic.value.DoubleValue
5.211

@<SCITEGIC>MOL_PROPERTY
Idih
SciTegic.value.DoubleValue
0.001

@<SCITEGIC>MOL_PROPERTY
Tether
SciTegic.value.DoubleValue
0.000

@<TRIPOS>MOLECULE
guest-s22_confgen4.mol2 : confsearch ligand conformer 314
          20          19           1
SMALL
USER_CHARGES
 
@<TRIPOS>ATOM
       1    C1      20.803227   19.648747   19.596018 C.2        1 MOL1        -0.2535
       2    H1      21.539124   20.068539   20.278315 H          1 MOL1         0.0845
       3    H2      20.674584   20.150131   18.638423 H          1 MOL1         0.0845
       4    C2      20.085850   18.562532   19.902878 C.2        1 MOL1        -0.1324
       5    H3      19.363476   18.180934   19.181864 H          1 MOL1         0.0833
       6    C3      20.157722   17.770376   21.197951 C.3        1 MOL1        -0.1813
       7    H4      20.793697   16.890006   21.037055 H          1 MOL1         0.0753
       8    H5      19.164531   17.360107   21.421177 H          1 MOL1         0.0753
       9    C4      20.667453   18.547476   22.439749 C.3        1 MOL1        -0.1855
      10    H6      20.741225   17.847971   23.283603 H          1 MOL1         0.0755
      11    H7      21.692007   18.896809   22.256501 H          1 MOL1         0.0755
      12    C5      19.783360   19.750453   22.861746 C.3        1 MOL1        -0.1855
      13    H8      19.760202   20.493125   22.053998 H          1 MOL1         0.0755
      14    H9      20.254470   20.248866   23.720034 H          1 MOL1         0.0755
      15    C6      18.325209   19.375857   23.243575 C.3        1 MOL1        -0.1958
      16    H10     17.778541   20.284419   23.521487 H          1 MOL1         0.0753
      17    H11     17.798520   18.949301   22.382384 H          1 MOL1         0.0753
      18    C7      18.216646   18.404118   24.415054 C.2        1 MOL1         0.6174
      19    O1      17.869464   17.262036   24.186426 O.co2      1 MOL1        -0.6695
      20    O2      18.465257   18.820984   25.529470 O.co2      1 MOL1        -0.6695
@<TRIPOS>BOND
    1     1     2    1
    2     1     3    1
    3     1     4    2
    4     4     5    1
    5     4     6    1
    6     6     7    1
    7     6     8    1
    8     6     9    1
    9     9    10    1
   10     9    11    1
   11     9    12    1
   12    12    13    1
   13    12    14    1
   14    12    15    1
   15    15    16    1
   16    15    17    1
   17    15    18    1
   18    18    19    1
   19    18    20    2
@<TRIPOS>SUBSTRUCTURE
       1 MOL1            1 RESIDUE      1      MOL     
@<SCITEGIC>MOL_PROPERTY
VConf Rank
SciTegic.value.IntegerValue
314

@<SCITEGIC>MOL_PROPERTY
Conf_Id
SciTegic.value.IntegerValue
66

@<SCITEGIC>MOL_PROPERTY
Delta U+W
SciTegic.value.DoubleValue
1.737

@<SCITEGIC>MOL_PROPERTY
U+W
SciTegic.value.DoubleValue
-50.008

@<SCITEGIC>MOL_PROPERTY
Grad RMS
SciTegic.value.DoubleValue
0.000000

@<SCITEGIC>MOL_PROPERTY
U
SciTegic.value.DoubleValue
11.091

@<SCITEGIC>MOL_PROPERTY
W
SciTegic.value.DoubleValue
-61.099

@<SCITEGIC>MOL_PROPERTY
W(PB)
SciTegic.value.DoubleValue
-63.213

@<SCITEGIC>MOL_PROPERTY
W(SA)
SciTegic.value.DoubleValue
2.114

@<SCITEGIC>MOL_PROPERTY
Valence
SciTegic.value.DoubleValue
9.664

@<SCITEGIC>MOL_PROPERTY
Coulomb
SciTegic.value.DoubleValue
0.658

@<SCITEGIC>MOL_PROPERTY
VdW
SciTegic.value.DoubleValue
0.769

@<SCITEGIC>MOL_PROPERTY
VdW6
SciTegic.value.DoubleValue
-9.171

@<SCITEGIC>MOL_PROPERTY
VdW12
SciTegic.value.DoubleValue
9.940

@<SCITEGIC>MOL_PROPERTY
Bond
SciTegic.value.DoubleValue
0.244

@<SCITEGIC>MOL_PROPERTY
Angle
SciTegic.value.DoubleValue
3.658

@<SCITEGIC>MOL_PROPERTY
Pdih
SciTegic.value.DoubleValue
5.762

@<SCITEGIC>MOL_PROPERTY
Idih
SciTegic.value.DoubleValue
0.001

@<SCITEGIC>MOL_PROPERTY
Tether
SciTegic.value.DoubleValue
0.000

@<TRIPOS>MOLECULE
guest-s22_confgen4.mol2 : confsearch ligand conformer 315
          20          19           1
SMALL
USER_CHARGES
 
@<TRIPOS>ATOM
       1    C1      18.075588   17.485838   20.337343 C.2        1 MOL1        -0.2535
       2    H1      18.297040   18.331720   19.690330 H          1 MOL1         0.0845
       3    H2      18.017255   16.506164   19.866416 H          1 MOL1         0.0845
       4    C2      17.875776   17.626821   21.652287 C.2        1 MOL1        -0.1324
       5    H3      17.654548   16.745214   22.253260 H          1 MOL1         0.0833
       6    C3      17.931438   18.924645   22.441688 C.3        1 MOL1        -0.1813
       7    H4      18.331812   18.715273   23.441444 H          1 MOL1         0.0753
       8    H5      16.904669   19.271437   22.617937 H          1 MOL1         0.0753
       9    C4      18.753047   20.073747   21.800720 C.3        1 MOL1        -0.1855
      10    H6      18.322293   20.328779   20.823529 H          1 MOL1         0.0755
      11    H7      18.638956   20.974746   22.418631 H          1 MOL1         0.0755
      12    C5      20.264778   19.774482   21.633955 C.3        1 MOL1        -0.1855
      13    H8      20.730061   20.612726   21.097263 H          1 MOL1         0.0755
      14    H9      20.409075   18.887834   21.002582 H          1 MOL1         0.0755
      15    C6      21.008691   19.572190   22.979536 C.3        1 MOL1        -0.1958
      16    H10     20.833049   20.427727   23.642377 H          1 MOL1         0.0753
      17    H11     20.637325   18.678602   23.493764 H          1 MOL1         0.0753
      18    C7      22.514644   19.413847   22.802674 C.2        1 MOL1         0.6174
      19    O1      22.963338   18.292364   22.669622 O.co2      1 MOL1        -0.6695
      20    O2      23.198716   20.418223   22.788297 O.co2      1 MOL1        -0.6695
@<TRIPOS>BOND
    1     1     2    1
    2     1     3    1
    3     1     4    2
    4     4     5    1
    5     4     6    1
    6     6     7    1
    7     6     8    1
    8     6     9    1
    9     9    10    1
   10     9    11    1
   11     9    12    1
   12    12    13    1
   13    12    14    1
   14    12    15    1
   15    15    16    1
   16    15    17    1
   17    15    18    1
   18    18    19    1
   19    18    20    2
@<TRIPOS>SUBSTRUCTURE
       1 MOL1            1 RESIDUE      1      MOL     
@<SCITEGIC>MOL_PROPERTY
VConf Rank
SciTegic.value.IntegerValue
315

@<SCITEGIC>MOL_PROPERTY
Conf_Id
SciTegic.value.IntegerValue
64

@<SCITEGIC>MOL_PROPERTY
Delta U+W
SciTegic.value.DoubleValue
0.366

@<SCITEGIC>MOL_PROPERTY
U+W
SciTegic.value.DoubleValue
-51.379

@<SCITEGIC>MOL_PROPERTY
Grad RMS
SciTegic.value.DoubleValue
0.000000

@<SCITEGIC>MOL_PROPERTY
U
SciTegic.value.DoubleValue
10.000

@<SCITEGIC>MOL_PROPERTY
W
SciTegic.value.DoubleValue
-61.379

@<SCITEGIC>MOL_PROPERTY
W(PB)
SciTegic.value.DoubleValue
-63.541

@<SCITEGIC>MOL_PROPERTY
W(SA)
SciTegic.value.DoubleValue
2.162

@<SCITEGIC>MOL_PROPERTY
Valence
SciTegic.value.DoubleValue
9.398

@<SCITEGIC>MOL_PROPERTY
Coulomb
SciTegic.value.DoubleValue
-0.504

@<SCITEGIC>MOL_PROPERTY
VdW
SciTegic.value.DoubleValue
1.105

@<SCITEGIC>MOL_PROPERTY
VdW6
SciTegic.value.DoubleValue
-7.975

@<SCITEGIC>MOL_PROPERTY
VdW12
SciTegic.value.DoubleValue
9.080

@<SCITEGIC>MOL_PROPERTY
Bond
SciTegic.value.DoubleValue
0.216

@<SCITEGIC>MOL_PROPERTY
Angle
SciTegic.value.DoubleValue
3.417

@<SCITEGIC>MOL_PROPERTY
Pdih
SciTegic.value.DoubleValue
5.765

@<SCITEGIC>MOL_PROPERTY
Idih
SciTegic.value.DoubleValue
0.001

@<SCITEGIC>MOL_PROPERTY
Tether
SciTegic.value.DoubleValue
0.000

@<TRIPOS>MOLECULE
guest-s22_confgen4.mol2 : confsearch ligand conformer 316
          20          19           1
SMALL
USER_CHARGES
 
@<TRIPOS>ATOM
       1    C1      17.152132   18.147220   22.579761 C.2        1 MOL1        -0.2535
       2    H1      17.549611   17.134199   22.614646 H          1 MOL1         0.0845
       3    H2      16.185983   18.290216   22.098915 H          1 MOL1         0.0845
       4    C2      17.822606   19.177717   23.101826 C.2        1 MOL1        -0.1324
       5    H3      17.408159   20.184373   23.054189 H          1 MOL1         0.0833
       6    C3      19.168692   19.057197   23.784107 C.3        1 MOL1        -0.1813
       7    H4      19.415124   18.002909   23.969639 H          1 MOL1         0.0753
       8    H5      19.116416   19.540781   24.768616 H          1 MOL1         0.0753
       9    C4      20.301705   19.715385   22.964954 C.3        1 MOL1        -0.1855
      10    H6      20.054811   20.769661   22.778868 H          1 MOL1         0.0755
      11    H7      21.222423   19.708933   23.564220 H          1 MOL1         0.0755
      12    C5      20.563890   18.994150   21.623066 C.3        1 MOL1        -0.1855
      13    H8      19.657357   19.017167   21.002664 H          1 MOL1         0.0755
      14    H9      20.793807   17.936161   21.810381 H          1 MOL1         0.0755
      15    C6      21.732250   19.641452   20.839514 C.3        1 MOL1        -0.1958
      16    H10     21.511568   20.695782   20.633905 H          1 MOL1         0.0753
      17    H11     22.651255   19.612722   21.437084 H          1 MOL1         0.0753
      18    C7      22.010205   18.947366   19.510951 C.2        1 MOL1         0.6174
      19    O1      22.782820   18.009403   19.504602 O.co2      1 MOL1        -0.6695
      20    O2      21.436310   19.353819   18.519925 O.co2      1 MOL1        -0.6695
@<TRIPOS>BOND
    1     1     2    1
    2     1     3    1
    3     1     4    2
    4     4     5    1
    5     4     6    1
    6     6     7    1
    7     6     8    1
    8     6     9    1
    9     9    10    1
   10     9    11    1
   11     9    12    1
   12    12    13    1
   13    12    14    1
   14    12    15    1
   15    15    16    1
   16    15    17    1
   17    15    18    1
   18    18    19    1
   19    18    20    2
@<TRIPOS>SUBSTRUCTURE
       1 MOL1            1 RESIDUE      1      MOL     
@<SCITEGIC>MOL_PROPERTY
VConf Rank
SciTegic.value.IntegerValue
316

@<SCITEGIC>MOL_PROPERTY
Conf_Id
SciTegic.value.IntegerValue
42

@<SCITEGIC>MOL_PROPERTY
Delta U+W
SciTegic.value.DoubleValue
-0.601

@<SCITEGIC>MOL_PROPERTY
U+W
SciTegic.value.DoubleValue
-52.347

@<SCITEGIC>MOL_PROPERTY
Grad RMS
SciTegic.value.DoubleValue
0.000000

@<SCITEGIC>MOL_PROPERTY
U
SciTegic.value.DoubleValue
8.428

@<SCITEGIC>MOL_PROPERTY
W
SciTegic.value.DoubleValue
-60.774

@<SCITEGIC>MOL_PROPERTY
W(PB)
SciTegic.value.DoubleValue
-62.982

@<SCITEGIC>MOL_PROPERTY
W(SA)
SciTegic.value.DoubleValue
2.208

@<SCITEGIC>MOL_PROPERTY
Valence
SciTegic.value.DoubleValue
9.231

@<SCITEGIC>MOL_PROPERTY
Coulomb
SciTegic.value.DoubleValue
-1.304

@<SCITEGIC>MOL_PROPERTY
VdW
SciTegic.value.DoubleValue
0.501

@<SCITEGIC>MOL_PROPERTY
VdW6
SciTegic.value.DoubleValue
-6.515

@<SCITEGIC>MOL_PROPERTY
VdW12
SciTegic.value.DoubleValue
7.016

@<SCITEGIC>MOL_PROPERTY
Bond
SciTegic.value.DoubleValue
0.103

@<SCITEGIC>MOL_PROPERTY
Angle
SciTegic.value.DoubleValue
2.328

@<SCITEGIC>MOL_PROPERTY
Pdih
SciTegic.value.DoubleValue
6.799

@<SCITEGIC>MOL_PROPERTY
Idih
SciTegic.value.DoubleValue
0.000

@<SCITEGIC>MOL_PROPERTY
Tether
SciTegic.value.DoubleValue
0.000

@<TRIPOS>MOLECULE
guest-s22_confgen4.mol2 : confsearch ligand conformer 317
          20          19           1
SMALL
USER_CHARGES
 
@<TRIPOS>ATOM
       1    C1      20.859443   16.618532   22.991105 C.2        1 MOL1        -0.2535
       2    H1      20.895073   16.193750   21.989264 H          1 MOL1         0.0845
       3    H2      20.607092   15.948291   23.810979 H          1 MOL1         0.0845
       4    C2      21.110943   17.912012   23.209462 C.2        1 MOL1        -0.1324
       5    H3      21.067138   18.317978   24.219749 H          1 MOL1         0.0833
       6    C3      21.466354   18.903593   22.122101 C.3        1 MOL1        -0.1813
       7    H4      21.679699   18.383037   21.178642 H          1 MOL1         0.0753
       8    H5      22.389693   19.427771   22.402266 H          1 MOL1         0.0753
       9    C4      20.350226   19.947864   21.894686 C.3        1 MOL1        -0.1855
      10    H6      20.143199   20.471982   22.837966 H          1 MOL1         0.0755
      11    H7      20.712306   20.706996   21.188033 H          1 MOL1         0.0755
      12    C5      19.048526   19.319581   21.343228 C.3        1 MOL1        -0.1855
      13    H8      18.652010   18.587454   22.060249 H          1 MOL1         0.0755
      14    H9      19.275798   18.766824   20.421795 H          1 MOL1         0.0755
      15    C6      17.957471   20.379006   21.039844 C.3        1 MOL1        -0.1958
      16    H10     18.343820   21.132597   20.343021 H          1 MOL1         0.0753
      17    H11     17.105982   19.896599   20.545638 H          1 MOL1         0.0753
      18    C7      17.423341   21.090835   22.279528 C.2        1 MOL1         0.6174
      19    O1      17.808749   22.221151   22.505383 O.co2      1 MOL1        -0.6695
      20    O2      16.621106   20.501699   22.976976 O.co2      1 MOL1        -0.6695
@<TRIPOS>BOND
    1     1     2    1
    2     1     3    1
    3     1     4    2
    4     4     5    1
    5     4     6    1
    6     6     7    1
    7     6     8    1
    8     6     9    1
    9     9    10    1
   10     9    11    1
   11     9    12    1
   12    12    13    1
   13    12    14    1
   14    12    15    1
   15    15    16    1
   16    15    17    1
   17    15    18    1
   18    18    19    1
   19    18    20    2
@<TRIPOS>SUBSTRUCTURE
       1 MOL1            1 RESIDUE      1      MOL     
@<SCITEGIC>MOL_PROPERTY
VConf Rank
SciTegic.value.IntegerValue
317

@<SCITEGIC>MOL_PROPERTY
Conf_Id
SciTegic.value.IntegerValue
68

@<SCITEGIC>MOL_PROPERTY
Delta U+W
SciTegic.value.DoubleValue
0.492

@<SCITEGIC>MOL_PROPERTY
U+W
SciTegic.value.DoubleValue
-51.253

@<SCITEGIC>MOL_PROPERTY
Grad RMS
SciTegic.value.DoubleValue
0.000000

@<SCITEGIC>MOL_PROPERTY
U
SciTegic.value.DoubleValue
10.179

@<SCITEGIC>MOL_PROPERTY
W
SciTegic.value.DoubleValue
-61.432

@<SCITEGIC>MOL_PROPERTY
W(PB)
SciTegic.value.DoubleValue
-63.627

@<SCITEGIC>MOL_PROPERTY
W(SA)
SciTegic.value.DoubleValue
2.195

@<SCITEGIC>MOL_PROPERTY
Valence
SciTegic.value.DoubleValue
9.483

@<SCITEGIC>MOL_PROPERTY
Coulomb
SciTegic.value.DoubleValue
0.361

@<SCITEGIC>MOL_PROPERTY
VdW
SciTegic.value.DoubleValue
0.335

@<SCITEGIC>MOL_PROPERTY
VdW6
SciTegic.value.DoubleValue
-7.385

@<SCITEGIC>MOL_PROPERTY
VdW12
SciTegic.value.DoubleValue
7.720

@<SCITEGIC>MOL_PROPERTY
Bond
SciTegic.value.DoubleValue
0.125

@<SCITEGIC>MOL_PROPERTY
Angle
SciTegic.value.DoubleValue
2.487

@<SCITEGIC>MOL_PROPERTY
Pdih
SciTegic.value.DoubleValue
6.870

@<SCITEGIC>MOL_PROPERTY
Idih
SciTegic.value.DoubleValue
0.001

@<SCITEGIC>MOL_PROPERTY
Tether
SciTegic.value.DoubleValue
0.000

@<TRIPOS>MOLECULE
guest-s22_confgen4.mol2 : confsearch ligand conformer 318
          20          19           1
SMALL
USER_CHARGES
 
@<TRIPOS>ATOM
       1    C1      22.383913   18.699959   20.511593 C.2        1 MOL1        -0.2535
       2    H1      23.100102   19.321977   21.046062 H          1 MOL1         0.0845
       3    H2      22.545803   18.552689   19.445159 H          1 MOL1         0.0845
       4    C2      21.343985   18.140500   21.135493 C.2        1 MOL1        -0.1324
       5    H3      20.640569   17.519180   20.581948 H          1 MOL1         0.0833
       6    C3      21.058963   18.295942   22.614135 C.3        1 MOL1        -0.1813
       7    H4      21.969004   18.624068   23.134401 H          1 MOL1         0.0753
       8    H5      20.790976   17.323217   23.047708 H          1 MOL1         0.0753
       9    C4      19.934124   19.318596   22.891803 C.3        1 MOL1        -0.1855
      10    H6      19.864684   19.483216   23.975696 H          1 MOL1         0.0755
      11    H7      20.204025   20.285723   22.445242 H          1 MOL1         0.0755
      12    C5      18.556750   18.857108   22.359264 C.3        1 MOL1        -0.1855
      13    H8      18.320810   17.867801   22.773891 H          1 MOL1         0.0755
      14    H9      18.594566   18.742317   21.267381 H          1 MOL1         0.0755
      15    C6      17.416552   19.841786   22.726976 C.3        1 MOL1        -0.1958
      16    H10     16.452254   19.413015   22.429838 H          1 MOL1         0.0753
      17    H11     17.377482   19.988526   23.813117 H          1 MOL1         0.0753
      18    C7      17.536068   21.206887   22.055370 C.2        1 MOL1         0.6174
      19    O1      17.212787   21.300374   20.887528 O.co2      1 MOL1        -0.6695
      20    O2      17.930059   22.143909   22.721616 O.co2      1 MOL1        -0.6695
@<TRIPOS>BOND
    1     1     2    1
    2     1     3    1
    3     1     4    2
    4     4     5    1
    5     4     6    1
    6     6     7    1
    7     6     8    1
    8     6     9    1
    9     9    10    1
   10     9    11    1
   11     9    12    1
   12    12    13    1
   13    12    14    1
   14    12    15    1
   15    15    16    1
   16    15    17    1
   17    15    18    1
   18    18    19    1
   19    18    20    2
@<TRIPOS>SUBSTRUCTURE
       1 MOL1            1 RESIDUE      1      MOL     
@<SCITEGIC>MOL_PROPERTY
VConf Rank
SciTegic.value.IntegerValue
318

@<SCITEGIC>MOL_PROPERTY
Conf_Id
SciTegic.value.IntegerValue
87

@<SCITEGIC>MOL_PROPERTY
Delta U+W
SciTegic.value.DoubleValue
0.339

@<SCITEGIC>MOL_PROPERTY
U+W
SciTegic.value.DoubleValue
-51.407

@<SCITEGIC>MOL_PROPERTY
Grad RMS
SciTegic.value.DoubleValue
0.000000

@<SCITEGIC>MOL_PROPERTY
U
SciTegic.value.DoubleValue
10.461

@<SCITEGIC>MOL_PROPERTY
W
SciTegic.value.DoubleValue
-61.867

@<SCITEGIC>MOL_PROPERTY
W(PB)
SciTegic.value.DoubleValue
-64.045

@<SCITEGIC>MOL_PROPERTY
W(SA)
SciTegic.value.DoubleValue
2.178

@<SCITEGIC>MOL_PROPERTY
Valence
SciTegic.value.DoubleValue
9.555

@<SCITEGIC>MOL_PROPERTY
Coulomb
SciTegic.value.DoubleValue
0.483

@<SCITEGIC>MOL_PROPERTY
VdW
SciTegic.value.DoubleValue
0.423

@<SCITEGIC>MOL_PROPERTY
VdW6
SciTegic.value.DoubleValue
-7.223

@<SCITEGIC>MOL_PROPERTY
VdW12
SciTegic.value.DoubleValue
7.646

@<SCITEGIC>MOL_PROPERTY
Bond
SciTegic.value.DoubleValue
0.126

@<SCITEGIC>MOL_PROPERTY
Angle
SciTegic.value.DoubleValue
2.492

@<SCITEGIC>MOL_PROPERTY
Pdih
SciTegic.value.DoubleValue
6.936

@<SCITEGIC>MOL_PROPERTY
Idih
SciTegic.value.DoubleValue
0.001

@<SCITEGIC>MOL_PROPERTY
Tether
SciTegic.value.DoubleValue
0.000

@<TRIPOS>MOLECULE
guest-s22_confgen4.mol2 : confsearch ligand conformer 319
          20          19           1
SMALL
USER_CHARGES
 
@<TRIPOS>ATOM
       1    C1      17.845145   20.565154   23.479478 C.2        1 MOL1        -0.2535
       2    H1      18.156809   21.572387   23.207882 H          1 MOL1         0.0845
       3    H2      16.784449   20.398950   23.659252 H          1 MOL1         0.0845
       4    C2      18.728532   19.569193   23.586271 C.2        1 MOL1        -0.1324
       5    H3      18.398447   18.569962   23.867994 H          1 MOL1         0.0833
       6    C3      20.217036   19.731292   23.363366 C.3        1 MOL1        -0.1813
       7    H4      20.764430   18.903041   23.832722 H          1 MOL1         0.0753
       8    H5      20.549517   20.640166   23.882799 H          1 MOL1         0.0753
       9    C4      20.610652   19.848036   21.869845 C.3        1 MOL1        -0.1855
      10    H6      19.934507   20.545336   21.356487 H          1 MOL1         0.0755
      11    H7      21.608687   20.304191   21.819035 H          1 MOL1         0.0755
      12    C5      20.669622   18.502538   21.103517 C.3        1 MOL1        -0.1855
      13    H8      21.335702   17.803207   21.627266 H          1 MOL1         0.0755
      14    H9      21.127204   18.685409   20.121342 H          1 MOL1         0.0755
      15    C6      19.288277   17.834907   20.881219 C.3        1 MOL1        -0.1958
      16    H10     18.864266   17.501443   21.833635 H          1 MOL1         0.0753
      17    H11     18.585258   18.553498   20.443367 H          1 MOL1         0.0753
      18    C7      19.360787   16.621446   19.961498 C.2        1 MOL1         0.6174
      19    O1      19.585931   15.536058   20.459627 O.co2      1 MOL1        -0.6695
      20    O2      19.211094   16.796095   18.768195 O.co2      1 MOL1        -0.6695
@<TRIPOS>BOND
    1     1     2    1
    2     1     3    1
    3     1     4    2
    4     4     5    1
    5     4     6    1
    6     6     7    1
    7     6     8    1
    8     6     9    1
    9     9    10    1
   10     9    11    1
   11     9    12    1
   12    12    13    1
   13    12    14    1
   14    12    15    1
   15    15    16    1
   16    15    17    1
   17    15    18    1
   18    18    19    1
   19    18    20    2
@<TRIPOS>SUBSTRUCTURE
       1 MOL1            1 RESIDUE      1      MOL     
@<SCITEGIC>MOL_PROPERTY
VConf Rank
SciTegic.value.IntegerValue
319

@<SCITEGIC>MOL_PROPERTY
Conf_Id
SciTegic.value.IntegerValue
51

@<SCITEGIC>MOL_PROPERTY
Delta U+W
SciTegic.value.DoubleValue
1.709

@<SCITEGIC>MOL_PROPERTY
U+W
SciTegic.value.DoubleValue
-50.036

@<SCITEGIC>MOL_PROPERTY
Grad RMS
SciTegic.value.DoubleValue
0.000000

@<SCITEGIC>MOL_PROPERTY
U
SciTegic.value.DoubleValue
10.643

@<SCITEGIC>MOL_PROPERTY
W
SciTegic.value.DoubleValue
-60.679

@<SCITEGIC>MOL_PROPERTY
W(PB)
SciTegic.value.DoubleValue
-62.882

@<SCITEGIC>MOL_PROPERTY
W(SA)
SciTegic.value.DoubleValue
2.203

@<SCITEGIC>MOL_PROPERTY
Valence
SciTegic.value.DoubleValue
11.231

@<SCITEGIC>MOL_PROPERTY
Coulomb
SciTegic.value.DoubleValue
-1.077

@<SCITEGIC>MOL_PROPERTY
VdW
SciTegic.value.DoubleValue
0.489

@<SCITEGIC>MOL_PROPERTY
VdW6
SciTegic.value.DoubleValue
-7.546

@<SCITEGIC>MOL_PROPERTY
VdW12
SciTegic.value.DoubleValue
8.035

@<SCITEGIC>MOL_PROPERTY
Bond
SciTegic.value.DoubleValue
0.159

@<SCITEGIC>MOL_PROPERTY
Angle
SciTegic.value.DoubleValue
3.005

@<SCITEGIC>MOL_PROPERTY
Pdih
SciTegic.value.DoubleValue
8.065

@<SCITEGIC>MOL_PROPERTY
Idih
SciTegic.value.DoubleValue
0.002

@<SCITEGIC>MOL_PROPERTY
Tether
SciTegic.value.DoubleValue
0.000

@<TRIPOS>MOLECULE
guest-s22_confgen4.mol2 : confsearch ligand conformer 320
          20          19           1
SMALL
USER_CHARGES
 
@<TRIPOS>ATOM
       1    C1      17.250586   20.378968   21.041990 C.2        1 MOL1        -0.2535
       2    H1      17.319939   21.373063   21.480602 H          1 MOL1         0.0845
       3    H2      16.260828   19.932620   20.963422 H          1 MOL1         0.0845
       4    C2      18.337493   19.728785   20.618185 C.2        1 MOL1        -0.1324
       5    H3      18.246737   18.738305   20.173769 H          1 MOL1         0.0833
       6    C3      19.740547   20.293217   20.684948 C.3        1 MOL1        -0.1813
       7    H4      19.714225   21.333075   20.332231 H          1 MOL1         0.0753
       8    H5      20.399160   19.758836   19.987380 H          1 MOL1         0.0753
       9    C4      20.349105   20.273523   22.109182 C.3        1 MOL1        -0.1855
      10    H6      21.178000   20.994060   22.131459 H          1 MOL1         0.0755
      11    H7      19.612561   20.639408   22.837578 H          1 MOL1         0.0755
      12    C5      20.907834   18.900679   22.561098 C.3        1 MOL1        -0.1855
      13    H8      21.467265   19.047271   23.495462 H          1 MOL1         0.0755
      14    H9      21.633417   18.531460   21.823369 H          1 MOL1         0.0755
      15    C6      19.822928   17.820880   22.806621 C.3        1 MOL1        -0.1958
      16    H10     19.041689   18.211378   23.469568 H          1 MOL1         0.0753
      17    H11     19.341555   17.537923   21.865186 H          1 MOL1         0.0753
      18    C7      20.386120   16.550760   23.433702 C.2        1 MOL1         0.6174
      19    O1      20.803861   15.681686   22.694045 O.co2      1 MOL1        -0.6695
      20    O2      20.411392   16.471881   24.646147 O.co2      1 MOL1        -0.6695
@<TRIPOS>BOND
    1     1     2    1
    2     1     3    1
    3     1     4    2
    4     4     5    1
    5     4     6    1
    6     6     7    1
    7     6     8    1
    8     6     9    1
    9     9    10    1
   10     9    11    1
   11     9    12    1
   12    12    13    1
   13    12    14    1
   14    12    15    1
   15    15    16    1
   16    15    17    1
   17    15    18    1
   18    18    19    1
   19    18    20    2
@<TRIPOS>SUBSTRUCTURE
       1 MOL1            1 RESIDUE      1      MOL     
@<SCITEGIC>MOL_PROPERTY
VConf Rank
SciTegic.value.IntegerValue
320

@<SCITEGIC>MOL_PROPERTY
Conf_Id
SciTegic.value.IntegerValue
91

@<SCITEGIC>MOL_PROPERTY
Delta U+W
SciTegic.value.DoubleValue
1.604

@<SCITEGIC>MOL_PROPERTY
U+W
SciTegic.value.DoubleValue
-50.141

@<SCITEGIC>MOL_PROPERTY
Grad RMS
SciTegic.value.DoubleValue
0.000000

@<SCITEGIC>MOL_PROPERTY
U
SciTegic.value.DoubleValue
10.644

@<SCITEGIC>MOL_PROPERTY
W
SciTegic.value.DoubleValue
-60.786

@<SCITEGIC>MOL_PROPERTY
W(PB)
SciTegic.value.DoubleValue
-62.965

@<SCITEGIC>MOL_PROPERTY
W(SA)
SciTegic.value.DoubleValue
2.179

@<SCITEGIC>MOL_PROPERTY
Valence
SciTegic.value.DoubleValue
11.230

@<SCITEGIC>MOL_PROPERTY
Coulomb
SciTegic.value.DoubleValue
-1.075

@<SCITEGIC>MOL_PROPERTY
VdW
SciTegic.value.DoubleValue
0.489

@<SCITEGIC>MOL_PROPERTY
VdW6
SciTegic.value.DoubleValue
-7.547

@<SCITEGIC>MOL_PROPERTY
VdW12
SciTegic.value.DoubleValue
8.036

@<SCITEGIC>MOL_PROPERTY
Bond
SciTegic.value.DoubleValue
0.159

@<SCITEGIC>MOL_PROPERTY
Angle
SciTegic.value.DoubleValue
3.006

@<SCITEGIC>MOL_PROPERTY
Pdih
SciTegic.value.DoubleValue
8.064

@<SCITEGIC>MOL_PROPERTY
Idih
SciTegic.value.DoubleValue
0.002

@<SCITEGIC>MOL_PROPERTY
Tether
SciTegic.value.DoubleValue
0.000

@<TRIPOS>MOLECULE
guest-s22_confgen4.mol2 : confsearch ligand conformer 321
          20          19           1
SMALL
USER_CHARGES
 
@<TRIPOS>ATOM
       1    C1      19.206782   15.690599   20.387779 C.2        1 MOL1        -0.2535
       2    H1      19.720410   15.251110   21.241376 H          1 MOL1         0.0845
       3    H2      19.125981   15.085878   19.486081 H          1 MOL1         0.0845
       4    C2      18.696654   16.923775   20.439707 C.2        1 MOL1        -0.1324
       5    H3      18.186845   17.345441   19.573710 H          1 MOL1         0.0833
       6    C3      18.769348   17.820730   21.655367 C.3        1 MOL1        -0.1813
       7    H4      19.055090   17.237808   22.541572 H          1 MOL1         0.0753
       8    H5      17.776207   18.241995   21.861162 H          1 MOL1         0.0753
       9    C4      19.783128   18.964588   21.443918 C.3        1 MOL1        -0.1855
      10    H6      20.773765   18.537872   21.234309 H          1 MOL1         0.0755
      11    H7      19.494362   19.550061   20.560178 H          1 MOL1         0.0755
      12    C5      19.867850   19.892483   22.675563 C.3        1 MOL1        -0.1855
      13    H8      20.157109   19.307682   23.559803 H          1 MOL1         0.0755
      14    H9      18.877150   20.318584   22.886456 H          1 MOL1         0.0755
      15    C6      20.888099   21.042354   22.462757 C.3        1 MOL1        -0.1958
      16    H10     21.880637   20.624136   22.258124 H          1 MOL1         0.0753
      17    H11     20.601997   21.634206   21.585394 H          1 MOL1         0.0753
      18    C7      21.034568   22.010374   23.637832 C.2        1 MOL1         0.6174
      19    O1      21.823647   22.925007   23.507686 O.co2      1 MOL1        -0.6695
      20    O2      20.373445   21.841256   24.644293 O.co2      1 MOL1        -0.6695
@<TRIPOS>BOND
    1     1     2    1
    2     1     3    1
    3     1     4    2
    4     4     5    1
    5     4     6    1
    6     6     7    1
    7     6     8    1
    8     6     9    1
    9     9    10    1
   10     9    11    1
   11     9    12    1
   12    12    13    1
   13    12    14    1
   14    12    15    1
   15    15    16    1
   16    15    17    1
   17    15    18    1
   18    18    19    1
   19    18    20    2
@<TRIPOS>SUBSTRUCTURE
       1 MOL1            1 RESIDUE      1      MOL     
@<SCITEGIC>MOL_PROPERTY
VConf Rank
SciTegic.value.IntegerValue
321

@<SCITEGIC>MOL_PROPERTY
Conf_Id
SciTegic.value.IntegerValue
33

@<SCITEGIC>MOL_PROPERTY
Delta U+W
SciTegic.value.DoubleValue
0.000

@<SCITEGIC>MOL_PROPERTY
U+W
SciTegic.value.DoubleValue
-51.745

@<SCITEGIC>MOL_PROPERTY
Grad RMS
SciTegic.value.DoubleValue
0.000000

@<SCITEGIC>MOL_PROPERTY
U
SciTegic.value.DoubleValue
7.593

@<SCITEGIC>MOL_PROPERTY
W
SciTegic.value.DoubleValue
-59.338

@<SCITEGIC>MOL_PROPERTY
W(PB)
SciTegic.value.DoubleValue
-61.574

@<SCITEGIC>MOL_PROPERTY
W(SA)
SciTegic.value.DoubleValue
2.236

@<SCITEGIC>MOL_PROPERTY
Valence
SciTegic.value.DoubleValue
9.570

@<SCITEGIC>MOL_PROPERTY
Coulomb
SciTegic.value.DoubleValue
-3.091

@<SCITEGIC>MOL_PROPERTY
VdW
SciTegic.value.DoubleValue
1.114

@<SCITEGIC>MOL_PROPERTY
VdW6
SciTegic.value.DoubleValue
-6.064

@<SCITEGIC>MOL_PROPERTY
VdW12
SciTegic.value.DoubleValue
7.178

@<SCITEGIC>MOL_PROPERTY
Bond
SciTegic.value.DoubleValue
0.117

@<SCITEGIC>MOL_PROPERTY
Angle
SciTegic.value.DoubleValue
2.692

@<SCITEGIC>MOL_PROPERTY
Pdih
SciTegic.value.DoubleValue
6.761

@<SCITEGIC>MOL_PROPERTY
Idih
SciTegic.value.DoubleValue
0.000

@<SCITEGIC>MOL_PROPERTY
Tether
SciTegic.value.DoubleValue
0.000

@<TRIPOS>MOLECULE
guest-s22_confgen4.mol2 : confsearch ligand conformer 322
          20          19           1
SMALL
USER_CHARGES
 
@<TRIPOS>ATOM
       1    C1      18.435224   15.876324   23.159229 C.2        1 MOL1        -0.2535
       2    H1      17.459963   16.109506   22.734883 H          1 MOL1         0.0845
       3    H2      18.499115   15.018273   23.826256 H          1 MOL1         0.0845
       4    C2      19.512969   16.612921   22.877152 C.2        1 MOL1        -0.1324
       5    H3      20.479969   16.363020   23.313146 H          1 MOL1         0.0833
       6    C3      19.501457   17.816158   21.960740 C.3        1 MOL1        -0.1813
       7    H4      18.571743   17.839260   21.376192 H          1 MOL1         0.0753
       8    H5      20.326161   17.729118   21.242174 H          1 MOL1         0.0753
       9    C4      19.635621   19.128134   22.766053 C.3        1 MOL1        -0.1855
      10    H6      18.850735   19.152931   23.534610 H          1 MOL1         0.0755
      11    H7      20.594652   19.136461   23.301948 H          1 MOL1         0.0755
      12    C5      19.514362   20.401744   21.895769 C.3        1 MOL1        -0.1855
      13    H8      19.506669   21.280065   22.556061 H          1 MOL1         0.0755
      14    H9      18.549848   20.401362   21.369360 H          1 MOL1         0.0755
      15    C6      20.665016   20.561235   20.868378 C.3        1 MOL1        -0.1958
      16    H10     21.635400   20.520283   21.377360 H          1 MOL1         0.0753
      17    H11     20.646107   19.745565   20.136895 H          1 MOL1         0.0753
      18    C7      20.589782   21.875194   20.099079 C.2        1 MOL1         0.6174
      19    O1      19.943365   21.901661   19.070414 O.co2      1 MOL1        -0.6695
      20    O2      21.163209   22.842833   20.559067 O.co2      1 MOL1        -0.6695
@<TRIPOS>BOND
    1     1     2    1
    2     1     3    1
    3     1     4    2
    4     4     5    1
    5     4     6    1
    6     6     7    1
    7     6     8    1
    8     6     9    1
    9     9    10    1
   10     9    11    1
   11     9    12    1
   12    12    13    1
   13    12    14    1
   14    12    15    1
   15    15    16    1
   16    15    17    1
   17    15    18    1
   18    18    19    1
   19    18    20    2
@<TRIPOS>SUBSTRUCTURE
       1 MOL1            1 RESIDUE      1      MOL     
@<SCITEGIC>MOL_PROPERTY
VConf Rank
SciTegic.value.IntegerValue
322

@<SCITEGIC>MOL_PROPERTY
Conf_Id
SciTegic.value.IntegerValue
37

@<SCITEGIC>MOL_PROPERTY
Delta U+W
SciTegic.value.DoubleValue
-0.384

@<SCITEGIC>MOL_PROPERTY
U+W
SciTegic.value.DoubleValue
-52.130

@<SCITEGIC>MOL_PROPERTY
Grad RMS
SciTegic.value.DoubleValue
0.000000

@<SCITEGIC>MOL_PROPERTY
U
SciTegic.value.DoubleValue
7.491

@<SCITEGIC>MOL_PROPERTY
W
SciTegic.value.DoubleValue
-59.621

@<SCITEGIC>MOL_PROPERTY
W(PB)
SciTegic.value.DoubleValue
-61.853

@<SCITEGIC>MOL_PROPERTY
W(SA)
SciTegic.value.DoubleValue
2.232

@<SCITEGIC>MOL_PROPERTY
Valence
SciTegic.value.DoubleValue
9.604

@<SCITEGIC>MOL_PROPERTY
Coulomb
SciTegic.value.DoubleValue
-2.799

@<SCITEGIC>MOL_PROPERTY
VdW
SciTegic.value.DoubleValue
0.686

@<SCITEGIC>MOL_PROPERTY
VdW6
SciTegic.value.DoubleValue
-6.435

@<SCITEGIC>MOL_PROPERTY
VdW12
SciTegic.value.DoubleValue
7.121

@<SCITEGIC>MOL_PROPERTY
Bond
SciTegic.value.DoubleValue
0.124

@<SCITEGIC>MOL_PROPERTY
Angle
SciTegic.value.DoubleValue
2.493

@<SCITEGIC>MOL_PROPERTY
Pdih
SciTegic.value.DoubleValue
6.986

@<SCITEGIC>MOL_PROPERTY
Idih
SciTegic.value.DoubleValue
0.001

@<SCITEGIC>MOL_PROPERTY
Tether
SciTegic.value.DoubleValue
0.000

@<TRIPOS>MOLECULE
guest-s22_confgen4.mol2 : confsearch ligand conformer 323
          20          19           1
SMALL
USER_CHARGES
 
@<TRIPOS>ATOM
       1    C1      22.533343   17.972211   20.292496 C.2        1 MOL1        -0.2535
       2    H1      23.434516   17.630827   19.786004 H          1 MOL1         0.0845
       3    H2      21.698383   18.269373   19.661557 H          1 MOL1         0.0845
       4    C2      22.475725   18.016836   21.628386 C.2        1 MOL1        -0.1324
       5    H3      23.345388   17.706060   22.206949 H          1 MOL1         0.0833
       6    C3      21.295074   18.467374   22.472241 C.3        1 MOL1        -0.1813
       7    H4      21.619463   19.291802   23.121260 H          1 MOL1         0.0753
       8    H5      21.013562   17.650299   23.149939 H          1 MOL1         0.0753
       9    C4      20.049862   18.912994   21.670459 C.3        1 MOL1        -0.1855
      10    H6      20.320004   19.744605   21.005228 H          1 MOL1         0.0755
      11    H7      19.707544   18.085300   21.034198 H          1 MOL1         0.0755
      12    C5      18.898355   19.354253   22.600160 C.3        1 MOL1        -0.1855
      13    H8      19.234583   20.182320   23.239584 H          1 MOL1         0.0755
      14    H9      18.623386   18.526407   23.268493 H          1 MOL1         0.0755
      15    C6      17.650259   19.800946   21.799657 C.3        1 MOL1        -0.1958
      16    H10     17.904626   20.636528   21.136555 H          1 MOL1         0.0753
      17    H11     17.293476   18.980573   21.165389 H          1 MOL1         0.0753
      18    C7      16.498645   20.241570   22.696107 C.2        1 MOL1         0.6174
      19    O1      16.441903   21.410254   23.024138 O.co2      1 MOL1        -0.6695
      20    O2      15.699962   19.400611   23.058793 O.co2      1 MOL1        -0.6695
@<TRIPOS>BOND
    1     1     2    1
    2     1     3    1
    3     1     4    2
    4     4     5    1
    5     4     6    1
    6     6     7    1
    7     6     8    1
    8     6     9    1
    9     9    10    1
   10     9    11    1
   11     9    12    1
   12    12    13    1
   13    12    14    1
   14    12    15    1
   15    15    16    1
   16    15    17    1
   17    15    18    1
   18    18    19    1
   19    18    20    2
@<TRIPOS>SUBSTRUCTURE
       1 MOL1            1 RESIDUE      1      MOL     
@<SCITEGIC>MOL_PROPERTY
VConf Rank
SciTegic.value.IntegerValue
323

@<SCITEGIC>MOL_PROPERTY
Conf_Id
SciTegic.value.IntegerValue
44

@<SCITEGIC>MOL_PROPERTY
Delta U+W
SciTegic.value.DoubleValue
-1.440

@<SCITEGIC>MOL_PROPERTY
U+W
SciTegic.value.DoubleValue
-53.185

@<SCITEGIC>MOL_PROPERTY
Grad RMS
SciTegic.value.DoubleValue
0.000000

@<SCITEGIC>MOL_PROPERTY
U
SciTegic.value.DoubleValue
6.572

@<SCITEGIC>MOL_PROPERTY
W
SciTegic.value.DoubleValue
-59.757

@<SCITEGIC>MOL_PROPERTY
W(PB)
SciTegic.value.DoubleValue
-62.007

@<SCITEGIC>MOL_PROPERTY
W(SA)
SciTegic.value.DoubleValue
2.249

@<SCITEGIC>MOL_PROPERTY
Valence
SciTegic.value.DoubleValue
7.989

@<SCITEGIC>MOL_PROPERTY
Coulomb
SciTegic.value.DoubleValue
-2.697

@<SCITEGIC>MOL_PROPERTY
VdW
SciTegic.value.DoubleValue
1.281

@<SCITEGIC>MOL_PROPERTY
VdW6
SciTegic.value.DoubleValue
-6.467

@<SCITEGIC>MOL_PROPERTY
VdW12
SciTegic.value.DoubleValue
7.748

@<SCITEGIC>MOL_PROPERTY
Bond
SciTegic.value.DoubleValue
0.136

@<SCITEGIC>MOL_PROPERTY
Angle
SciTegic.value.DoubleValue
2.854

@<SCITEGIC>MOL_PROPERTY
Pdih
SciTegic.value.DoubleValue
4.997

@<SCITEGIC>MOL_PROPERTY
Idih
SciTegic.value.DoubleValue
0.001

@<SCITEGIC>MOL_PROPERTY
Tether
SciTegic.value.DoubleValue
0.000

@<TRIPOS>MOLECULE
guest-s22_confgen4.mol2 : confsearch ligand conformer 324
          20          19           1
SMALL
USER_CHARGES
 
@<TRIPOS>ATOM
       1    C1      18.575897   15.950144   22.821068 C.2        1 MOL1        -0.2535
       2    H1      19.512922   15.934900   23.375441 H          1 MOL1         0.0845
       3    H2      18.043898   15.006745   22.710480 H          1 MOL1         0.0845
       4    C2      18.095699   17.079188   22.293445 C.2        1 MOL1        -0.1324
       5    H3      17.156007   17.072573   21.741566 H          1 MOL1         0.0833
       6    C3      18.776904   18.424912   22.406952 C.3        1 MOL1        -0.1813
       7    H4      19.546196   18.388441   23.188910 H          1 MOL1         0.0753
       8    H5      18.044240   19.181645   22.717584 H          1 MOL1         0.0753
       9    C4      19.412518   18.840553   21.061144 C.3        1 MOL1        -0.1855
      10    H6      20.184146   18.111316   20.778307 H          1 MOL1         0.0755
      11    H7      18.644119   18.798361   20.277009 H          1 MOL1         0.0755
      12    C5      20.021143   20.263083   21.078658 C.3        1 MOL1        -0.1855
      13    H8      19.248158   20.994642   21.351946 H          1 MOL1         0.0755
      14    H9      20.344843   20.519992   20.060464 H          1 MOL1         0.0755
      15    C6      21.232110   20.406649   22.036783 C.3        1 MOL1        -0.1958
      16    H10     20.924224   20.246129   23.076082 H          1 MOL1         0.0753
      17    H11     21.992244   19.652085   21.801782 H          1 MOL1         0.0753
      18    C7      21.888293   21.780211   21.955037 C.2        1 MOL1         0.6174
      19    O1      22.786886   21.939810   21.152669 O.co2      1 MOL1        -0.6695
      20    O2      21.470337   22.659967   22.681711 O.co2      1 MOL1        -0.6695
@<TRIPOS>BOND
    1     1     2    1
    2     1     3    1
    3     1     4    2
    4     4     5    1
    5     4     6    1
    6     6     7    1
    7     6     8    1
    8     6     9    1
    9     9    10    1
   10     9    11    1
   11     9    12    1
   12    12    13    1
   13    12    14    1
   14    12    15    1
   15    15    16    1
   16    15    17    1
   17    15    18    1
   18    18    19    1
   19    18    20    2
@<TRIPOS>SUBSTRUCTURE
       1 MOL1            1 RESIDUE      1      MOL     
@<SCITEGIC>MOL_PROPERTY
VConf Rank
SciTegic.value.IntegerValue
324

@<SCITEGIC>MOL_PROPERTY
Conf_Id
SciTegic.value.IntegerValue
38

@<SCITEGIC>MOL_PROPERTY
Delta U+W
SciTegic.value.DoubleValue
-0.381

@<SCITEGIC>MOL_PROPERTY
U+W
SciTegic.value.DoubleValue
-52.126

@<SCITEGIC>MOL_PROPERTY
Grad RMS
SciTegic.value.DoubleValue
0.000000

@<SCITEGIC>MOL_PROPERTY
U
SciTegic.value.DoubleValue
7.601

@<SCITEGIC>MOL_PROPERTY
W
SciTegic.value.DoubleValue
-59.727

@<SCITEGIC>MOL_PROPERTY
W(PB)
SciTegic.value.DoubleValue
-61.964

@<SCITEGIC>MOL_PROPERTY
W(SA)
SciTegic.value.DoubleValue
2.236

@<SCITEGIC>MOL_PROPERTY
Valence
SciTegic.value.DoubleValue
9.602

@<SCITEGIC>MOL_PROPERTY
Coulomb
SciTegic.value.DoubleValue
-2.686

@<SCITEGIC>MOL_PROPERTY
VdW
SciTegic.value.DoubleValue
0.685

@<SCITEGIC>MOL_PROPERTY
VdW6
SciTegic.value.DoubleValue
-6.453

@<SCITEGIC>MOL_PROPERTY
VdW12
SciTegic.value.DoubleValue
7.139

@<SCITEGIC>MOL_PROPERTY
Bond
SciTegic.value.DoubleValue
0.125

@<SCITEGIC>MOL_PROPERTY
Angle
SciTegic.value.DoubleValue
2.485

@<SCITEGIC>MOL_PROPERTY
Pdih
SciTegic.value.DoubleValue
6.991

@<SCITEGIC>MOL_PROPERTY
Idih
SciTegic.value.DoubleValue
0.001

@<SCITEGIC>MOL_PROPERTY
Tether
SciTegic.value.DoubleValue
0.000

@<TRIPOS>MOLECULE
guest-s22_confgen4.mol2 : confsearch ligand conformer 325
          20          19           1
SMALL
USER_CHARGES
 
@<TRIPOS>ATOM
       1    C1      17.696100   21.860001   23.349597 C.2        1 MOL1        -0.2535
       2    H1      18.540811   22.339832   23.841332 H          1 MOL1         0.0845
       3    H2      16.822540   22.475238   23.140686 H          1 MOL1         0.0845
       4    C2      17.727057   20.568187   23.012071 C.2        1 MOL1        -0.1324
       5    H3      16.871086   20.107298   22.519574 H          1 MOL1         0.0833
       6    C3      18.902787   19.652399   23.270218 C.3        1 MOL1        -0.1813
       7    H4      18.549002   18.722692   23.735628 H          1 MOL1         0.0753
       8    H5      19.598113   20.117742   23.982060 H          1 MOL1         0.0753
       9    C4      19.650458   19.323157   21.961173 C.3        1 MOL1        -0.1855
      10    H6      18.953418   18.855753   21.251876 H          1 MOL1         0.0755
      11    H7      19.998586   20.255805   21.496150 H          1 MOL1         0.0755
      12    C5      20.853873   18.385222   22.206940 C.3        1 MOL1        -0.1855
      13    H8      20.507747   17.446904   22.662408 H          1 MOL1         0.0755
      14    H9      21.536815   18.853780   22.928485 H          1 MOL1         0.0755
      15    C6      21.636856   18.066707   20.906793 C.3        1 MOL1        -0.1958
      16    H10     21.965421   18.995613   20.425090 H          1 MOL1         0.0753
      17    H11     22.542111   17.499671   21.153697 H          1 MOL1         0.0753
      18    C7      20.846334   17.245106   19.892440 C.2        1 MOL1         0.6174
      19    O1      20.408000   17.810183   18.909831 O.co2      1 MOL1        -0.6695
      20    O2      20.699596   16.057940   20.107393 O.co2      1 MOL1        -0.6695
@<TRIPOS>BOND
    1     1     2    1
    2     1     3    1
    3     1     4    2
    4     4     5    1
    5     4     6    1
    6     6     7    1
    7     6     8    1
    8     6     9    1
    9     9    10    1
   10     9    11    1
   11     9    12    1
   12    12    13    1
   13    12    14    1
   14    12    15    1
   15    15    16    1
   16    15    17    1
   17    15    18    1
   18    18    19    1
   19    18    20    2
@<TRIPOS>SUBSTRUCTURE
       1 MOL1            1 RESIDUE      1      MOL     
@<SCITEGIC>MOL_PROPERTY
VConf Rank
SciTegic.value.IntegerValue
325

@<SCITEGIC>MOL_PROPERTY
Conf_Id
SciTegic.value.IntegerValue
58

@<SCITEGIC>MOL_PROPERTY
Delta U+W
SciTegic.value.DoubleValue
0.019

@<SCITEGIC>MOL_PROPERTY
U+W
SciTegic.value.DoubleValue
-51.727

@<SCITEGIC>MOL_PROPERTY
Grad RMS
SciTegic.value.DoubleValue
0.000000

@<SCITEGIC>MOL_PROPERTY
U
SciTegic.value.DoubleValue
8.963

@<SCITEGIC>MOL_PROPERTY
W
SciTegic.value.DoubleValue
-60.690

@<SCITEGIC>MOL_PROPERTY
W(PB)
SciTegic.value.DoubleValue
-62.934

@<SCITEGIC>MOL_PROPERTY
W(SA)
SciTegic.value.DoubleValue
2.244

@<SCITEGIC>MOL_PROPERTY
Valence
SciTegic.value.DoubleValue
9.327

@<SCITEGIC>MOL_PROPERTY
Coulomb
SciTegic.value.DoubleValue
-0.780

@<SCITEGIC>MOL_PROPERTY
VdW
SciTegic.value.DoubleValue
0.417

@<SCITEGIC>MOL_PROPERTY
VdW6
SciTegic.value.DoubleValue
-6.635

@<SCITEGIC>MOL_PROPERTY
VdW12
SciTegic.value.DoubleValue
7.052

@<SCITEGIC>MOL_PROPERTY
Bond
SciTegic.value.DoubleValue
0.105

@<SCITEGIC>MOL_PROPERTY
Angle
SciTegic.value.DoubleValue
2.399

@<SCITEGIC>MOL_PROPERTY
Pdih
SciTegic.value.DoubleValue
6.822

@<SCITEGIC>MOL_PROPERTY
Idih
SciTegic.value.DoubleValue
0.000

@<SCITEGIC>MOL_PROPERTY
Tether
SciTegic.value.DoubleValue
0.000

@<TRIPOS>MOLECULE
guest-s22_confgen4.mol2 : confsearch ligand conformer 326
          20          19           1
SMALL
USER_CHARGES
 
@<TRIPOS>ATOM
       1    C1      16.598625   18.520426   20.533951 C.2        1 MOL1        -0.2535
       2    H1      16.129859   18.289425   21.489186 H          1 MOL1         0.0845
       3    H2      16.134130   18.114526   19.636869 H          1 MOL1         0.0845
       4    C2      17.701740   19.269768   20.461222 C.2        1 MOL1        -0.1324
       5    H3      18.155851   19.488510   19.494994 H          1 MOL1         0.0833
       6    C3      18.401393   19.867350   21.661648 C.3        1 MOL1        -0.1813
       7    H4      17.750365   19.817379   22.545054 H          1 MOL1         0.0753
       8    H5      18.603184   20.931044   21.477361 H          1 MOL1         0.0753
       9    C4      19.726280   19.133462   21.956762 C.3        1 MOL1        -0.1855
      10    H6      19.520925   18.069025   22.135854 H          1 MOL1         0.0755
      11    H7      20.376450   19.186894   21.072535 H          1 MOL1         0.0755
      12    C5      20.455931   19.734035   23.179567 C.3        1 MOL1        -0.1855
      13    H8      19.792937   19.690525   24.054283 H          1 MOL1         0.0755
      14    H9      20.672389   20.796272   22.999311 H          1 MOL1         0.0755
      15    C6      21.775624   18.990113   23.511055 C.3        1 MOL1        -0.1958
      16    H10     22.188629   19.377115   24.450008 H          1 MOL1         0.0753
      17    H11     21.579923   17.922207   23.666419 H          1 MOL1         0.0753
      18    C7      22.855448   19.137143   22.442772 C.2        1 MOL1         0.6174
      19    O1      23.454709   20.192394   22.376227 O.co2      1 MOL1        -0.6695
      20    O2      23.076695   18.190584   21.713358 O.co2      1 MOL1        -0.6695
@<TRIPOS>BOND
    1     1     2    1
    2     1     3    1
    3     1     4    2
    4     4     5    1
    5     4     6    1
    6     6     7    1
    7     6     8    1
    8     6     9    1
    9     9    10    1
   10     9    11    1
   11     9    12    1
   12    12    13    1
   13    12    14    1
   14    12    15    1
   15    15    16    1
   16    15    17    1
   17    15    18    1
   18    18    19    1
   19    18    20    2
@<TRIPOS>SUBSTRUCTURE
       1 MOL1            1 RESIDUE      1      MOL     
@<SCITEGIC>MOL_PROPERTY
VConf Rank
SciTegic.value.IntegerValue
326

@<SCITEGIC>MOL_PROPERTY
Conf_Id
SciTegic.value.IntegerValue
54

@<SCITEGIC>MOL_PROPERTY
Delta U+W
SciTegic.value.DoubleValue
-0.048

@<SCITEGIC>MOL_PROPERTY
U+W
SciTegic.value.DoubleValue
-51.793

@<SCITEGIC>MOL_PROPERTY
Grad RMS
SciTegic.value.DoubleValue
0.000000

@<SCITEGIC>MOL_PROPERTY
U
SciTegic.value.DoubleValue
8.964

@<SCITEGIC>MOL_PROPERTY
W
SciTegic.value.DoubleValue
-60.756

@<SCITEGIC>MOL_PROPERTY
W(PB)
SciTegic.value.DoubleValue
-63.007

@<SCITEGIC>MOL_PROPERTY
W(SA)
SciTegic.value.DoubleValue
2.251

@<SCITEGIC>MOL_PROPERTY
Valence
SciTegic.value.DoubleValue
9.327

@<SCITEGIC>MOL_PROPERTY
Coulomb
SciTegic.value.DoubleValue
-0.780

@<SCITEGIC>MOL_PROPERTY
VdW
SciTegic.value.DoubleValue
0.417

@<SCITEGIC>MOL_PROPERTY
VdW6
SciTegic.value.DoubleValue
-6.635

@<SCITEGIC>MOL_PROPERTY
VdW12
SciTegic.value.DoubleValue
7.052

@<SCITEGIC>MOL_PROPERTY
Bond
SciTegic.value.DoubleValue
0.105

@<SCITEGIC>MOL_PROPERTY
Angle
SciTegic.value.DoubleValue
2.399

@<SCITEGIC>MOL_PROPERTY
Pdih
SciTegic.value.DoubleValue
6.822

@<SCITEGIC>MOL_PROPERTY
Idih
SciTegic.value.DoubleValue
0.000

@<SCITEGIC>MOL_PROPERTY
Tether
SciTegic.value.DoubleValue
0.000

@<TRIPOS>MOLECULE
guest-s22_confgen4.mol2 : confsearch ligand conformer 327
          20          19           1
SMALL
USER_CHARGES
 
@<TRIPOS>ATOM
       1    C1      20.449711   20.802649   24.831156 C.2        1 MOL1        -0.2535
       2    H1      20.877270   20.519812   25.791564 H          1 MOL1         0.0845
       3    H2      20.715548   21.780391   24.432585 H          1 MOL1         0.0845
       4    C2      19.633644   19.978224   24.169318 C.2        1 MOL1        -0.1324
       5    H3      19.377750   19.005344   24.587978 H          1 MOL1         0.0833
       6    C3      18.997504   20.306079   22.835270 C.3        1 MOL1        -0.1813
       7    H4      19.007571   21.393117   22.677861 H          1 MOL1         0.0753
       8    H5      17.941006   20.006360   22.840457 H          1 MOL1         0.0753
       9    C4      19.725893   19.628390   21.652736 C.3        1 MOL1        -0.1855
      10    H6      19.305438   20.013946   20.713829 H          1 MOL1         0.0755
      11    H7      20.785865   19.917353   21.662547 H          1 MOL1         0.0755
      12    C5      19.602862   18.086150   21.674274 C.3        1 MOL1        -0.1855
      13    H8      18.542739   17.797097   21.679236 H          1 MOL1         0.0755
      14    H9      20.041450   17.696321   22.602265 H          1 MOL1         0.0755
      15    C6      20.312623   17.415210   20.469591 C.3        1 MOL1        -0.1958
      16    H10     21.365074   17.721384   20.431702 H          1 MOL1         0.0753
      17    H11     20.303168   16.326564   20.598875 H          1 MOL1         0.0753
      18    C7      19.667455   17.719622   19.120544 C.2        1 MOL1         0.6174
      19    O1      20.220502   18.511811   18.383235 O.co2      1 MOL1        -0.6695
      20    O2      18.633128   17.147139   18.838505 O.co2      1 MOL1        -0.6695
@<TRIPOS>BOND
    1     1     2    1
    2     1     3    1
    3     1     4    2
    4     4     5    1
    5     4     6    1
    6     6     7    1
    7     6     8    1
    8     6     9    1
    9     9    10    1
   10     9    11    1
   11     9    12    1
   12    12    13    1
   13    12    14    1
   14    12    15    1
   15    15    16    1
   16    15    17    1
   17    15    18    1
   18    18    19    1
   19    18    20    2
@<TRIPOS>SUBSTRUCTURE
       1 MOL1            1 RESIDUE      1      MOL     
@<SCITEGIC>MOL_PROPERTY
VConf Rank
SciTegic.value.IntegerValue
327

@<SCITEGIC>MOL_PROPERTY
Conf_Id
SciTegic.value.IntegerValue
27

@<SCITEGIC>MOL_PROPERTY
Delta U+W
SciTegic.value.DoubleValue
0.478

@<SCITEGIC>MOL_PROPERTY
U+W
SciTegic.value.DoubleValue
-51.267

@<SCITEGIC>MOL_PROPERTY
Grad RMS
SciTegic.value.DoubleValue
0.000000

@<SCITEGIC>MOL_PROPERTY
U
SciTegic.value.DoubleValue
9.192

@<SCITEGIC>MOL_PROPERTY
W
SciTegic.value.DoubleValue
-60.459

@<SCITEGIC>MOL_PROPERTY
W(PB)
SciTegic.value.DoubleValue
-62.649

@<SCITEGIC>MOL_PROPERTY
W(SA)
SciTegic.value.DoubleValue
2.190

@<SCITEGIC>MOL_PROPERTY
Valence
SciTegic.value.DoubleValue
9.572

@<SCITEGIC>MOL_PROPERTY
Coulomb
SciTegic.value.DoubleValue
-0.884

@<SCITEGIC>MOL_PROPERTY
VdW
SciTegic.value.DoubleValue
0.504

@<SCITEGIC>MOL_PROPERTY
VdW6
SciTegic.value.DoubleValue
-7.168

@<SCITEGIC>MOL_PROPERTY
VdW12
SciTegic.value.DoubleValue
7.672

@<SCITEGIC>MOL_PROPERTY
Bond
SciTegic.value.DoubleValue
0.127

@<SCITEGIC>MOL_PROPERTY
Angle
SciTegic.value.DoubleValue
2.504

@<SCITEGIC>MOL_PROPERTY
Pdih
SciTegic.value.DoubleValue
6.941

@<SCITEGIC>MOL_PROPERTY
Idih
SciTegic.value.DoubleValue
0.001

@<SCITEGIC>MOL_PROPERTY
Tether
SciTegic.value.DoubleValue
0.000

@<TRIPOS>MOLECULE
guest-s22_confgen4.mol2 : confsearch ligand conformer 328
          20          19           1
SMALL
USER_CHARGES
 
@<TRIPOS>ATOM
       1    C1      22.298497   19.673880   23.835016 C.2        1 MOL1        -0.2535
       2    H1      21.894043   20.098078   24.752609 H          1 MOL1         0.0845
       3    H2      23.270928   20.033353   23.502815 H          1 MOL1         0.0845
       4    C2      21.629481   18.750730   23.139394 C.2        1 MOL1        -0.1324
       5    H3      22.054069   18.337050   22.225126 H          1 MOL1         0.0833
       6    C3      20.278366   18.199802   23.542832 C.3        1 MOL1        -0.1813
       7    H4      20.104676   18.390250   24.610595 H          1 MOL1         0.0753
       8    H5      20.267330   17.108579   23.419658 H          1 MOL1         0.0753
       9    C4      19.121531   18.827855   22.733300 C.3        1 MOL1        -0.1855
      10    H6      18.167223   18.489482   23.159537 H          1 MOL1         0.0755
      11    H7      19.147330   19.920351   22.847725 H          1 MOL1         0.0755
      12    C5      19.166962   18.456981   21.233157 C.3        1 MOL1        -0.1855
      13    H8      19.167299   17.363881   21.121402 H          1 MOL1         0.0755
      14    H9      20.099775   18.824228   20.784077 H          1 MOL1         0.0755
      15    C6      17.965121   19.050012   20.457300 C.3        1 MOL1        -0.1958
      16    H10     17.022358   18.682263   20.879786 H          1 MOL1         0.0753
      17    H11     17.957562   20.142762   20.549223 H          1 MOL1         0.0753
      18    C7      17.987427   18.699469   18.973835 C.2        1 MOL1         0.6174
      19    O1      18.563129   19.453660   18.214609 O.co2      1 MOL1        -0.6695
      20    O2      17.443561   17.672319   18.619051 O.co2      1 MOL1        -0.6695
@<TRIPOS>BOND
    1     1     2    1
    2     1     3    1
    3     1     4    2
    4     4     5    1
    5     4     6    1
    6     6     7    1
    7     6     8    1
    8     6     9    1
    9     9    10    1
   10     9    11    1
   11     9    12    1
   12    12    13    1
   13    12    14    1
   14    12    15    1
   15    15    16    1
   16    15    17    1
   17    15    18    1
   18    18    19    1
   19    18    20    2
@<TRIPOS>SUBSTRUCTURE
       1 MOL1            1 RESIDUE      1      MOL     
@<SCITEGIC>MOL_PROPERTY
VConf Rank
SciTegic.value.IntegerValue
328

@<SCITEGIC>MOL_PROPERTY
Conf_Id
SciTegic.value.IntegerValue
41

@<SCITEGIC>MOL_PROPERTY
Delta U+W
SciTegic.value.DoubleValue
-0.634

@<SCITEGIC>MOL_PROPERTY
U+W
SciTegic.value.DoubleValue
-52.379

@<SCITEGIC>MOL_PROPERTY
Grad RMS
SciTegic.value.DoubleValue
0.000000

@<SCITEGIC>MOL_PROPERTY
U
SciTegic.value.DoubleValue
7.828

@<SCITEGIC>MOL_PROPERTY
W
SciTegic.value.DoubleValue
-60.207

@<SCITEGIC>MOL_PROPERTY
W(PB)
SciTegic.value.DoubleValue
-62.449

@<SCITEGIC>MOL_PROPERTY
W(SA)
SciTegic.value.DoubleValue
2.242

@<SCITEGIC>MOL_PROPERTY
Valence
SciTegic.value.DoubleValue
9.300

@<SCITEGIC>MOL_PROPERTY
Coulomb
SciTegic.value.DoubleValue
-2.080

@<SCITEGIC>MOL_PROPERTY
VdW
SciTegic.value.DoubleValue
0.608

@<SCITEGIC>MOL_PROPERTY
VdW6
SciTegic.value.DoubleValue
-6.341

@<SCITEGIC>MOL_PROPERTY
VdW12
SciTegic.value.DoubleValue
6.949

@<SCITEGIC>MOL_PROPERTY
Bond
SciTegic.value.DoubleValue
0.103

@<SCITEGIC>MOL_PROPERTY
Angle
SciTegic.value.DoubleValue
2.334

@<SCITEGIC>MOL_PROPERTY
Pdih
SciTegic.value.DoubleValue
6.862

@<SCITEGIC>MOL_PROPERTY
Idih
SciTegic.value.DoubleValue
0.001

@<SCITEGIC>MOL_PROPERTY
Tether
SciTegic.value.DoubleValue
0.000

@<TRIPOS>MOLECULE
guest-s22_confgen4.mol2 : confsearch ligand conformer 329
          20          19           1
SMALL
USER_CHARGES
 
@<TRIPOS>ATOM
       1    C1      22.568424   16.593079   22.412399 C.2        1 MOL1        -0.2535
       2    H1      23.114953   15.910852   23.061329 H          1 MOL1         0.0845
       3    H2      22.669372   16.451182   21.337584 H          1 MOL1         0.0845
       4    C2      21.803317   17.563424   22.919113 C.2        1 MOL1        -0.1324
       5    H3      21.714979   17.688414   23.998112 H          1 MOL1         0.0833
       6    C3      21.017007   18.547778   22.082236 C.3        1 MOL1        -0.1813
       7    H4      21.359227   18.518494   21.038971 H          1 MOL1         0.0753
       8    H5      21.204986   19.564241   22.451589 H          1 MOL1         0.0753
       9    C4      19.504126   18.239165   22.138118 C.3        1 MOL1        -0.1855
      10    H6      19.346322   17.187749   21.861019 H          1 MOL1         0.0755
      11    H7      19.146102   18.342625   23.171740 H          1 MOL1         0.0755
      12    C5      18.655805   19.129498   21.196922 C.3        1 MOL1        -0.1855
      13    H8      17.610334   18.794079   21.240199 H          1 MOL1         0.0755
      14    H9      18.985045   18.976484   20.160295 H          1 MOL1         0.0755
      15    C6      18.706780   20.645985   21.528719 C.3        1 MOL1        -0.1958
      16    H10     19.726987   21.031710   21.421954 H          1 MOL1         0.0753
      17    H11     18.090580   21.195938   20.807917 H          1 MOL1         0.0753
      18    C7      18.195305   20.996157   22.923175 C.2        1 MOL1         0.6174
      19    O1      16.999839   20.921477   23.129794 O.co2      1 MOL1        -0.6695
      20    O2      19.001712   21.351248   23.760177 O.co2      1 MOL1        -0.6695
@<TRIPOS>BOND
    1     1     2    1
    2     1     3    1
    3     1     4    2
    4     4     5    1
    5     4     6    1
    6     6     7    1
    7     6     8    1
    8     6     9    1
    9     9    10    1
   10     9    11    1
   11     9    12    1
   12    12    13    1
   13    12    14    1
   14    12    15    1
   15    15    16    1
   16    15    17    1
   17    15    18    1
   18    18    19    1
   19    18    20    2
@<TRIPOS>SUBSTRUCTURE
       1 MOL1            1 RESIDUE      1      MOL     
@<SCITEGIC>MOL_PROPERTY
VConf Rank
SciTegic.value.IntegerValue
329

@<SCITEGIC>MOL_PROPERTY
Conf_Id
SciTegic.value.IntegerValue
84

@<SCITEGIC>MOL_PROPERTY
Delta U+W
SciTegic.value.DoubleValue
0.942

@<SCITEGIC>MOL_PROPERTY
U+W
SciTegic.value.DoubleValue
-50.803

@<SCITEGIC>MOL_PROPERTY
Grad RMS
SciTegic.value.DoubleValue
0.000000

@<SCITEGIC>MOL_PROPERTY
U
SciTegic.value.DoubleValue
10.196

@<SCITEGIC>MOL_PROPERTY
W
SciTegic.value.DoubleValue
-60.999

@<SCITEGIC>MOL_PROPERTY
W(PB)
SciTegic.value.DoubleValue
-63.182

@<SCITEGIC>MOL_PROPERTY
W(SA)
SciTegic.value.DoubleValue
2.182

@<SCITEGIC>MOL_PROPERTY
Valence
SciTegic.value.DoubleValue
9.837

@<SCITEGIC>MOL_PROPERTY
Coulomb
SciTegic.value.DoubleValue
0.032

@<SCITEGIC>MOL_PROPERTY
VdW
SciTegic.value.DoubleValue
0.328

@<SCITEGIC>MOL_PROPERTY
VdW6
SciTegic.value.DoubleValue
-7.642

@<SCITEGIC>MOL_PROPERTY
VdW12
SciTegic.value.DoubleValue
7.969

@<SCITEGIC>MOL_PROPERTY
Bond
SciTegic.value.DoubleValue
0.151

@<SCITEGIC>MOL_PROPERTY
Angle
SciTegic.value.DoubleValue
2.748

@<SCITEGIC>MOL_PROPERTY
Pdih
SciTegic.value.DoubleValue
6.937

@<SCITEGIC>MOL_PROPERTY
Idih
SciTegic.value.DoubleValue
0.001

@<SCITEGIC>MOL_PROPERTY
Tether
SciTegic.value.DoubleValue
0.000

@<TRIPOS>MOLECULE
guest-s22_confgen4.mol2 : confsearch ligand conformer 330
          20          19           1
SMALL
USER_CHARGES
 
@<TRIPOS>ATOM
       1    C1      17.309640   16.684348   21.718179 C.2        1 MOL1        -0.2535
       2    H1      16.406413   16.354798   21.207454 H          1 MOL1         0.0845
       3    H2      18.134595   15.976727   21.783796 H          1 MOL1         0.0845
       4    C2      17.398982   17.910402   22.240166 C.2        1 MOL1        -0.1324
       5    H3      16.561866   18.603869   22.162847 H          1 MOL1         0.0833
       6    C3      18.618580   18.437180   22.963181 C.3        1 MOL1        -0.1813
       7    H4      19.295917   17.610796   23.218313 H          1 MOL1         0.0753
       8    H5      18.312358   18.899150   23.911282 H          1 MOL1         0.0753
       9    C4      19.372967   19.472198   22.102543 C.3        1 MOL1        -0.1855
      10    H6      19.670623   19.005237   21.153318 H          1 MOL1         0.0755
      11    H7      18.697317   20.301033   21.850395 H          1 MOL1         0.0755
      12    C5      20.620833   20.023197   22.828879 C.3        1 MOL1        -0.1855
      13    H8      21.305623   19.198229   23.070132 H          1 MOL1         0.0755
      14    H9      20.315735   20.470518   23.784594 H          1 MOL1         0.0755
      15    C6      21.375530   21.089088   21.992702 C.3        1 MOL1        -0.1958
      16    H10     20.697524   21.907116   21.720690 H          1 MOL1         0.0753
      17    H11     22.177249   21.529013   22.597424 H          1 MOL1         0.0753
      18    C7      22.013131   20.540921   20.719175 C.2        1 MOL1         0.6174
      19    O1      21.483301   20.793680   19.655049 O.co2      1 MOL1        -0.6695
      20    O2      23.031388   19.885914   20.825122 O.co2      1 MOL1        -0.6695
@<TRIPOS>BOND
    1     1     2    1
    2     1     3    1
    3     1     4    2
    4     4     5    1
    5     4     6    1
    6     6     7    1
    7     6     8    1
    8     6     9    1
    9     9    10    1
   10     9    11    1
   11     9    12    1
   12    12    13    1
   13    12    14    1
   14    12    15    1
   15    15    16    1
   16    15    17    1
   17    15    18    1
   18    18    19    1
   19    18    20    2
@<TRIPOS>SUBSTRUCTURE
       1 MOL1            1 RESIDUE      1      MOL     
@<SCITEGIC>MOL_PROPERTY
VConf Rank
SciTegic.value.IntegerValue
330

@<SCITEGIC>MOL_PROPERTY
Conf_Id
SciTegic.value.IntegerValue
81

@<SCITEGIC>MOL_PROPERTY
Delta U+W
SciTegic.value.DoubleValue
-0.051

@<SCITEGIC>MOL_PROPERTY
U+W
SciTegic.value.DoubleValue
-51.796

@<SCITEGIC>MOL_PROPERTY
Grad RMS
SciTegic.value.DoubleValue
0.000000

@<SCITEGIC>MOL_PROPERTY
U
SciTegic.value.DoubleValue
9.412

@<SCITEGIC>MOL_PROPERTY
W
SciTegic.value.DoubleValue
-61.209

@<SCITEGIC>MOL_PROPERTY
W(PB)
SciTegic.value.DoubleValue
-63.452

@<SCITEGIC>MOL_PROPERTY
W(SA)
SciTegic.value.DoubleValue
2.243

@<SCITEGIC>MOL_PROPERTY
Valence
SciTegic.value.DoubleValue
9.329

@<SCITEGIC>MOL_PROPERTY
Coulomb
SciTegic.value.DoubleValue
-0.323

@<SCITEGIC>MOL_PROPERTY
VdW
SciTegic.value.DoubleValue
0.406

@<SCITEGIC>MOL_PROPERTY
VdW6
SciTegic.value.DoubleValue
-6.640

@<SCITEGIC>MOL_PROPERTY
VdW12
SciTegic.value.DoubleValue
7.046

@<SCITEGIC>MOL_PROPERTY
Bond
SciTegic.value.DoubleValue
0.105

@<SCITEGIC>MOL_PROPERTY
Angle
SciTegic.value.DoubleValue
2.401

@<SCITEGIC>MOL_PROPERTY
Pdih
SciTegic.value.DoubleValue
6.823

@<SCITEGIC>MOL_PROPERTY
Idih
SciTegic.value.DoubleValue
0.000

@<SCITEGIC>MOL_PROPERTY
Tether
SciTegic.value.DoubleValue
0.000

@<TRIPOS>MOLECULE
guest-s22_confgen4.mol2 : confsearch ligand conformer 331
          20          19           1
SMALL
USER_CHARGES
 
@<TRIPOS>ATOM
       1    C1      19.275472   16.557661   20.039771 C.2        1 MOL1        -0.2535
       2    H1      18.531569   16.836818   19.295365 H          1 MOL1         0.0845
       3    H2      19.892531   15.685839   19.829277 H          1 MOL1         0.0845
       4    C2      19.430129   17.256678   21.167217 C.2        1 MOL1        -0.1324
       5    H3      20.179057   16.958964   21.900497 H          1 MOL1         0.0833
       6    C3      18.606905   18.474127   21.530045 C.3        1 MOL1        -0.1813
       7    H4      18.285746   18.413010   22.577926 H          1 MOL1         0.0753
       8    H5      17.684029   18.487769   20.934789 H          1 MOL1         0.0753
       9    C4      19.369349   19.798074   21.283978 C.3        1 MOL1        -0.1855
      10    H6      19.603860   19.877350   20.213672 H          1 MOL1         0.0755
      11    H7      18.702365   20.640647   21.512397 H          1 MOL1         0.0755
      12    C5      20.681818   19.950731   22.095281 C.3        1 MOL1        -0.1855
      13    H8      21.152584   20.906318   21.826181 H          1 MOL1         0.0755
      14    H9      21.391137   19.168063   21.795291 H          1 MOL1         0.0755
      15    C6      20.493865   19.905022   23.636311 C.3        1 MOL1        -0.1958
      16    H10     20.095064   18.933018   23.948092 H          1 MOL1         0.0753
      17    H11     21.469734   20.010776   24.124268 H          1 MOL1         0.0753
      18    C7      19.589248   21.003993   24.186288 C.2        1 MOL1         0.6174
      19    O1      18.486947   20.693350   24.593128 O.co2      1 MOL1        -0.6695
      20    O2      20.018819   22.140832   24.209241 O.co2      1 MOL1        -0.6695
@<TRIPOS>BOND
    1     1     2    1
    2     1     3    1
    3     1     4    2
    4     4     5    1
    5     4     6    1
    6     6     7    1
    7     6     8    1
    8     6     9    1
    9     9    10    1
   10     9    11    1
   11     9    12    1
   12    12    13    1
   13    12    14    1
   14    12    15    1
   15    15    16    1
   16    15    17    1
   17    15    18    1
   18    18    19    1
   19    18    20    2
@<TRIPOS>SUBSTRUCTURE
       1 MOL1            1 RESIDUE      1      MOL     
@<SCITEGIC>MOL_PROPERTY
VConf Rank
SciTegic.value.IntegerValue
331

@<SCITEGIC>MOL_PROPERTY
Conf_Id
SciTegic.value.IntegerValue
86

@<SCITEGIC>MOL_PROPERTY
Delta U+W
SciTegic.value.DoubleValue
1.248

@<SCITEGIC>MOL_PROPERTY
U+W
SciTegic.value.DoubleValue
-50.498

@<SCITEGIC>MOL_PROPERTY
Grad RMS
SciTegic.value.DoubleValue
0.000000

@<SCITEGIC>MOL_PROPERTY
U
SciTegic.value.DoubleValue
10.404

@<SCITEGIC>MOL_PROPERTY
W
SciTegic.value.DoubleValue
-60.901

@<SCITEGIC>MOL_PROPERTY
W(PB)
SciTegic.value.DoubleValue
-63.061

@<SCITEGIC>MOL_PROPERTY
W(SA)
SciTegic.value.DoubleValue
2.159

@<SCITEGIC>MOL_PROPERTY
Valence
SciTegic.value.DoubleValue
10.021

@<SCITEGIC>MOL_PROPERTY
Coulomb
SciTegic.value.DoubleValue
0.094

@<SCITEGIC>MOL_PROPERTY
VdW
SciTegic.value.DoubleValue
0.289

@<SCITEGIC>MOL_PROPERTY
VdW6
SciTegic.value.DoubleValue
-8.409

@<SCITEGIC>MOL_PROPERTY
VdW12
SciTegic.value.DoubleValue
8.698

@<SCITEGIC>MOL_PROPERTY
Bond
SciTegic.value.DoubleValue
0.179

@<SCITEGIC>MOL_PROPERTY
Angle
SciTegic.value.DoubleValue
2.939

@<SCITEGIC>MOL_PROPERTY
Pdih
SciTegic.value.DoubleValue
6.902

@<SCITEGIC>MOL_PROPERTY
Idih
SciTegic.value.DoubleValue
0.001

@<SCITEGIC>MOL_PROPERTY
Tether
SciTegic.value.DoubleValue
0.000

@<TRIPOS>MOLECULE
guest-s22_confgen4.mol2 : confsearch ligand conformer 332
          20          19           1
SMALL
USER_CHARGES
 
@<TRIPOS>ATOM
       1    C1      18.651289   16.859380   20.122345 C.2        1 MOL1        -0.2535
       2    H1      18.493548   15.782246   20.124364 H          1 MOL1         0.0845
       3    H2      17.778856   17.493467   19.973288 H          1 MOL1         0.0845
       4    C2      19.868858   17.379058   20.299784 C.2        1 MOL1        -0.1324
       5    H3      20.728791   16.726783   20.449593 H          1 MOL1         0.0833
       6    C3      20.165622   18.863606   20.309845 C.3        1 MOL1        -0.1813
       7    H4      19.296780   19.434343   19.954833 H          1 MOL1         0.0753
       8    H5      20.981359   19.070895   19.604562 H          1 MOL1         0.0753
       9    C4      20.577636   19.369955   21.710529 C.3        1 MOL1        -0.1855
      10    H6      21.444149   18.796997   22.068016 H          1 MOL1         0.0755
      11    H7      20.907119   20.414516   21.624838 H          1 MOL1         0.0755
      12    C5      19.427194   19.277704   22.740856 C.3        1 MOL1        -0.1855
      13    H8      19.101413   18.232946   22.832597 H          1 MOL1         0.0755
      14    H9      18.559404   19.847724   22.381177 H          1 MOL1         0.0755
      15    C6      19.838912   19.797192   24.142873 C.3        1 MOL1        -0.1958
      16    H10     19.033264   19.596450   24.858816 H          1 MOL1         0.0753
      17    H11     20.724127   19.258157   24.501501 H          1 MOL1         0.0753
      18    C7      20.128014   21.294846   24.189542 C.2        1 MOL1         0.6174
      19    O1      19.184277   22.060629   24.181449 O.co2      1 MOL1        -0.6695
      20    O2      21.287094   21.656263   24.244305 O.co2      1 MOL1        -0.6695
@<TRIPOS>BOND
    1     1     2    1
    2     1     3    1
    3     1     4    2
    4     4     5    1
    5     4     6    1
    6     6     7    1
    7     6     8    1
    8     6     9    1
    9     9    10    1
   10     9    11    1
   11     9    12    1
   12    12    13    1
   13    12    14    1
   14    12    15    1
   15    15    16    1
   16    15    17    1
   17    15    18    1
   18    18    19    1
   19    18    20    2
@<TRIPOS>SUBSTRUCTURE
       1 MOL1            1 RESIDUE      1      MOL     
@<SCITEGIC>MOL_PROPERTY
VConf Rank
SciTegic.value.IntegerValue
332

@<SCITEGIC>MOL_PROPERTY
Conf_Id
SciTegic.value.IntegerValue
28

@<SCITEGIC>MOL_PROPERTY
Delta U+W
SciTegic.value.DoubleValue
0.446

@<SCITEGIC>MOL_PROPERTY
U+W
SciTegic.value.DoubleValue
-51.299

@<SCITEGIC>MOL_PROPERTY
Grad RMS
SciTegic.value.DoubleValue
0.000000

@<SCITEGIC>MOL_PROPERTY
U
SciTegic.value.DoubleValue
9.295

@<SCITEGIC>MOL_PROPERTY
W
SciTegic.value.DoubleValue
-60.594

@<SCITEGIC>MOL_PROPERTY
W(PB)
SciTegic.value.DoubleValue
-62.806

@<SCITEGIC>MOL_PROPERTY
W(SA)
SciTegic.value.DoubleValue
2.212

@<SCITEGIC>MOL_PROPERTY
Valence
SciTegic.value.DoubleValue
9.495

@<SCITEGIC>MOL_PROPERTY
Coulomb
SciTegic.value.DoubleValue
-0.610

@<SCITEGIC>MOL_PROPERTY
VdW
SciTegic.value.DoubleValue
0.409

@<SCITEGIC>MOL_PROPERTY
VdW6
SciTegic.value.DoubleValue
-7.332

@<SCITEGIC>MOL_PROPERTY
VdW12
SciTegic.value.DoubleValue
7.741

@<SCITEGIC>MOL_PROPERTY
Bond
SciTegic.value.DoubleValue
0.126

@<SCITEGIC>MOL_PROPERTY
Angle
SciTegic.value.DoubleValue
2.497

@<SCITEGIC>MOL_PROPERTY
Pdih
SciTegic.value.DoubleValue
6.872

@<SCITEGIC>MOL_PROPERTY
Idih
SciTegic.value.DoubleValue
0.000

@<SCITEGIC>MOL_PROPERTY
Tether
SciTegic.value.DoubleValue
0.000

@<TRIPOS>MOLECULE
guest-s22_confgen4.mol2 : confsearch ligand conformer 333
          20          19           1
SMALL
USER_CHARGES
 
@<TRIPOS>ATOM
       1    C1      19.872932   22.062575   20.764139 C.2        1 MOL1        -0.2535
       2    H1      19.027005   21.514065   20.355435 H          1 MOL1         0.0845
       3    H2      19.958116   23.111942   20.487170 H          1 MOL1         0.0845
       4    C2      20.774171   21.494095   21.573196 C.2        1 MOL1        -0.1324
       5    H3      21.599208   22.096164   21.953153 H          1 MOL1         0.0833
       6    C3      20.789360   20.049428   22.044537 C.3        1 MOL1        -0.1813
       7    H4      20.696941   20.041163   23.138177 H          1 MOL1         0.0753
       8    H5      21.774921   19.618484   21.823833 H          1 MOL1         0.0753
       9    C4      19.694737   19.147725   21.422177 C.3        1 MOL1        -0.1855
      10    H6      18.702012   19.519411   21.711177 H          1 MOL1         0.0755
      11    H7      19.751353   19.220125   20.327532 H          1 MOL1         0.0755
      12    C5      19.826524   17.655471   21.815713 C.3        1 MOL1        -0.1855
      13    H8      20.801241   17.277194   21.479230 H          1 MOL1         0.0755
      14    H9      19.067913   17.078094   21.269312 H          1 MOL1         0.0755
      15    C6      19.667639   17.373006   23.334800 C.3        1 MOL1        -0.1958
      16    H10     19.786698   16.298800   23.518005 H          1 MOL1         0.0753
      17    H11     20.456906   17.873822   23.906762 H          1 MOL1         0.0753
      18    C7      18.313604   17.782508   23.907339 C.2        1 MOL1         0.6174
      19    O1      17.337525   17.130688   23.591345 O.co2      1 MOL1        -0.6695
      20    O2      18.272899   18.727984   24.669754 O.co2      1 MOL1        -0.6695
@<TRIPOS>BOND
    1     1     2    1
    2     1     3    1
    3     1     4    2
    4     4     5    1
    5     4     6    1
    6     6     7    1
    7     6     8    1
    8     6     9    1
    9     9    10    1
   10     9    11    1
   11     9    12    1
   12    12    13    1
   13    12    14    1
   14    12    15    1
   15    15    16    1
   16    15    17    1
   17    15    18    1
   18    18    19    1
   19    18    20    2
@<TRIPOS>SUBSTRUCTURE
       1 MOL1            1 RESIDUE      1      MOL     
@<SCITEGIC>MOL_PROPERTY
VConf Rank
SciTegic.value.IntegerValue
333

@<SCITEGIC>MOL_PROPERTY
Conf_Id
SciTegic.value.IntegerValue
53

@<SCITEGIC>MOL_PROPERTY
Delta U+W
SciTegic.value.DoubleValue
0.549

@<SCITEGIC>MOL_PROPERTY
U+W
SciTegic.value.DoubleValue
-51.197

@<SCITEGIC>MOL_PROPERTY
Grad RMS
SciTegic.value.DoubleValue
0.000000

@<SCITEGIC>MOL_PROPERTY
U
SciTegic.value.DoubleValue
10.870

@<SCITEGIC>MOL_PROPERTY
W
SciTegic.value.DoubleValue
-62.067

@<SCITEGIC>MOL_PROPERTY
W(PB)
SciTegic.value.DoubleValue
-64.228

@<SCITEGIC>MOL_PROPERTY
W(SA)
SciTegic.value.DoubleValue
2.161

@<SCITEGIC>MOL_PROPERTY
Valence
SciTegic.value.DoubleValue
8.803

@<SCITEGIC>MOL_PROPERTY
Coulomb
SciTegic.value.DoubleValue
1.020

@<SCITEGIC>MOL_PROPERTY
VdW
SciTegic.value.DoubleValue
1.048

@<SCITEGIC>MOL_PROPERTY
VdW6
SciTegic.value.DoubleValue
-8.312

@<SCITEGIC>MOL_PROPERTY
VdW12
SciTegic.value.DoubleValue
9.360

@<SCITEGIC>MOL_PROPERTY
Bond
SciTegic.value.DoubleValue
0.212

@<SCITEGIC>MOL_PROPERTY
Angle
SciTegic.value.DoubleValue
3.379

@<SCITEGIC>MOL_PROPERTY
Pdih
SciTegic.value.DoubleValue
5.211

@<SCITEGIC>MOL_PROPERTY
Idih
SciTegic.value.DoubleValue
0.001

@<SCITEGIC>MOL_PROPERTY
Tether
SciTegic.value.DoubleValue
0.000

@<TRIPOS>MOLECULE
guest-s22_confgen4.mol2 : confsearch ligand conformer 334
          20          19           1
SMALL
USER_CHARGES
 
@<TRIPOS>ATOM
       1    C1      20.600737   16.271882   21.524865 C.2        1 MOL1        -0.2535
       2    H1      19.721774   16.305217   20.884856 H          1 MOL1         0.0845
       3    H2      20.896466   15.296798   21.907853 H          1 MOL1         0.0845
       4    C2      21.300538   17.369663   21.831152 C.2        1 MOL1        -0.1324
       5    H3      22.175423   17.280535   22.474529 H          1 MOL1         0.0833
       6    C3      20.999902   18.787654   21.374196 C.3        1 MOL1        -0.1813
       7    H4      21.645033   19.025720   20.518315 H          1 MOL1         0.0753
       8    H5      21.308581   19.489034   22.159920 H          1 MOL1         0.0753
       9    C4      19.523951   19.078950   20.996719 C.3        1 MOL1        -0.1855
      10    H6      19.456988   20.107488   20.616636 H          1 MOL1         0.0755
      11    H7      19.227825   18.435313   20.158051 H          1 MOL1         0.0755
      12    C5      18.509847   18.906772   22.158099 C.3        1 MOL1        -0.1855
      13    H8      18.513193   17.863802   22.499797 H          1 MOL1         0.0755
      14    H9      17.498756   19.097641   21.773025 H          1 MOL1         0.0755
      15    C6      18.761383   19.836779   23.376350 C.3        1 MOL1        -0.1958
      16    H10     18.003272   19.641883   24.143715 H          1 MOL1         0.0753
      17    H11     19.731115   19.615730   23.836522 H          1 MOL1         0.0753
      18    C7      18.702792   21.325732   23.047696 C.2        1 MOL1         0.6174
      19    O1      19.741316   21.957096   23.046354 O.co2      1 MOL1        -0.6695
      20    O2      17.615676   21.819099   22.819057 O.co2      1 MOL1        -0.6695
@<TRIPOS>BOND
    1     1     2    1
    2     1     3    1
    3     1     4    2
    4     4     5    1
    5     4     6    1
    6     6     7    1
    7     6     8    1
    8     6     9    1
    9     9    10    1
   10     9    11    1
   11     9    12    1
   12    12    13    1
   13    12    14    1
   14    12    15    1
   15    15    16    1
   16    15    17    1
   17    15    18    1
   18    18    19    1
   19    18    20    2
@<TRIPOS>SUBSTRUCTURE
       1 MOL1            1 RESIDUE      1      MOL     
@<SCITEGIC>MOL_PROPERTY
VConf Rank
SciTegic.value.IntegerValue
334

@<SCITEGIC>MOL_PROPERTY
Conf_Id
SciTegic.value.IntegerValue
66

@<SCITEGIC>MOL_PROPERTY
Delta U+W
SciTegic.value.DoubleValue
1.737

@<SCITEGIC>MOL_PROPERTY
U+W
SciTegic.value.DoubleValue
-50.008

@<SCITEGIC>MOL_PROPERTY
Grad RMS
SciTegic.value.DoubleValue
0.000000

@<SCITEGIC>MOL_PROPERTY
U
SciTegic.value.DoubleValue
11.091

@<SCITEGIC>MOL_PROPERTY
W
SciTegic.value.DoubleValue
-61.099

@<SCITEGIC>MOL_PROPERTY
W(PB)
SciTegic.value.DoubleValue
-63.213

@<SCITEGIC>MOL_PROPERTY
W(SA)
SciTegic.value.DoubleValue
2.114

@<SCITEGIC>MOL_PROPERTY
Valence
SciTegic.value.DoubleValue
9.664

@<SCITEGIC>MOL_PROPERTY
Coulomb
SciTegic.value.DoubleValue
0.658

@<SCITEGIC>MOL_PROPERTY
VdW
SciTegic.value.DoubleValue
0.769

@<SCITEGIC>MOL_PROPERTY
VdW6
SciTegic.value.DoubleValue
-9.171

@<SCITEGIC>MOL_PROPERTY
VdW12
SciTegic.value.DoubleValue
9.940

@<SCITEGIC>MOL_PROPERTY
Bond
SciTegic.value.DoubleValue
0.244

@<SCITEGIC>MOL_PROPERTY
Angle
SciTegic.value.DoubleValue
3.658

@<SCITEGIC>MOL_PROPERTY
Pdih
SciTegic.value.DoubleValue
5.762

@<SCITEGIC>MOL_PROPERTY
Idih
SciTegic.value.DoubleValue
0.001

@<SCITEGIC>MOL_PROPERTY
Tether
SciTegic.value.DoubleValue
0.000

@<TRIPOS>MOLECULE
guest-s22_confgen4.mol2 : confsearch ligand conformer 335
          20          19           1
SMALL
USER_CHARGES
 
@<TRIPOS>ATOM
       1    C1      20.854938   17.301801   20.349334 C.2        1 MOL1        -0.2535
       2    H1      20.889392   18.215219   19.759703 H          1 MOL1         0.0845
       3    H2      21.711096   16.633674   20.274933 H          1 MOL1         0.0845
       4    C2      19.813220   16.996035   21.130494 C.2        1 MOL1        -0.1324
       5    H3      19.830077   16.066014   21.698047 H          1 MOL1         0.0833
       6    C3      18.559959   17.831553   21.335055 C.3        1 MOL1        -0.1813
       7    H4      18.215039   17.707046   22.369066 H          1 MOL1         0.0753
       8    H5      17.754561   17.411244   20.718405 H          1 MOL1         0.0753
       9    C4      18.696950   19.346077   21.028840 C.3        1 MOL1        -0.1855
      10    H6      18.985886   19.480900   19.978206 H          1 MOL1         0.0755
      11    H7      17.708616   19.815425   21.126497 H          1 MOL1         0.0755
      12    C5      19.697933   20.103089   21.938603 C.3        1 MOL1        -0.1855
      13    H8      19.779815   21.139160   21.582187 H          1 MOL1         0.0755
      14    H9      20.701012   19.666313   21.845560 H          1 MOL1         0.0755
      15    C6      19.284214   20.123276   23.433041 C.3        1 MOL1        -0.1958
      16    H10     18.263837   20.510284   23.538908 H          1 MOL1         0.0753
      17    H11     19.294016   19.109327   23.848555 H          1 MOL1         0.0753
      18    C7      20.206502   20.984500   24.288566 C.2        1 MOL1         0.6174
      19    O1      21.163779   20.453403   24.816116 O.co2      1 MOL1        -0.6695
      20    O2      19.951256   22.168039   24.393539 O.co2      1 MOL1        -0.6695
@<TRIPOS>BOND
    1     1     2    1
    2     1     3    1
    3     1     4    2
    4     4     5    1
    5     4     6    1
    6     6     7    1
    7     6     8    1
    8     6     9    1
    9     9    10    1
   10     9    11    1
   11     9    12    1
   12    12    13    1
   13    12    14    1
   14    12    15    1
   15    15    16    1
   16    15    17    1
   17    15    18    1
   18    18    19    1
   19    18    20    2
@<TRIPOS>SUBSTRUCTURE
       1 MOL1            1 RESIDUE      1      MOL     
@<SCITEGIC>MOL_PROPERTY
VConf Rank
SciTegic.value.IntegerValue
335

@<SCITEGIC>MOL_PROPERTY
Conf_Id
SciTegic.value.IntegerValue
64

@<SCITEGIC>MOL_PROPERTY
Delta U+W
SciTegic.value.DoubleValue
0.366

@<SCITEGIC>MOL_PROPERTY
U+W
SciTegic.value.DoubleValue
-51.379

@<SCITEGIC>MOL_PROPERTY
Grad RMS
SciTegic.value.DoubleValue
0.000000

@<SCITEGIC>MOL_PROPERTY
U
SciTegic.value.DoubleValue
10.000

@<SCITEGIC>MOL_PROPERTY
W
SciTegic.value.DoubleValue
-61.379

@<SCITEGIC>MOL_PROPERTY
W(PB)
SciTegic.value.DoubleValue
-63.541

@<SCITEGIC>MOL_PROPERTY
W(SA)
SciTegic.value.DoubleValue
2.162

@<SCITEGIC>MOL_PROPERTY
Valence
SciTegic.value.DoubleValue
9.398

@<SCITEGIC>MOL_PROPERTY
Coulomb
SciTegic.value.DoubleValue
-0.504

@<SCITEGIC>MOL_PROPERTY
VdW
SciTegic.value.DoubleValue
1.105

@<SCITEGIC>MOL_PROPERTY
VdW6
SciTegic.value.DoubleValue
-7.975

@<SCITEGIC>MOL_PROPERTY
VdW12
SciTegic.value.DoubleValue
9.080

@<SCITEGIC>MOL_PROPERTY
Bond
SciTegic.value.DoubleValue
0.216

@<SCITEGIC>MOL_PROPERTY
Angle
SciTegic.value.DoubleValue
3.417

@<SCITEGIC>MOL_PROPERTY
Pdih
SciTegic.value.DoubleValue
5.765

@<SCITEGIC>MOL_PROPERTY
Idih
SciTegic.value.DoubleValue
0.001

@<SCITEGIC>MOL_PROPERTY
Tether
SciTegic.value.DoubleValue
0.000

@<TRIPOS>MOLECULE
guest-s22_confgen4.mol2 : confsearch ligand conformer 336
          20          19           1
SMALL
USER_CHARGES
 
@<TRIPOS>ATOM
       1    C1      19.185955   21.823831   22.978760 C.2        1 MOL1        -0.2535
       2    H1      18.979752   22.091825   21.943832 H          1 MOL1         0.0845
       3    H2      19.679095   22.568902   23.600682 H          1 MOL1         0.0845
       4    C2      18.852137   20.627044   23.468944 C.2        1 MOL1        -0.1324
       5    H3      19.069720   20.377776   24.507171 H          1 MOL1         0.0833
       6    C3      18.166426   19.541700   22.666568 C.3        1 MOL1        -0.1813
       7    H4      17.803931   19.939372   21.708900 H          1 MOL1         0.0753
       8    H5      17.279309   19.196904   23.214274 H          1 MOL1         0.0753
       9    C4      19.092409   18.332397   22.405641 C.3        1 MOL1        -0.1855
      10    H6      19.455446   17.935163   23.363499 H          1 MOL1         0.0755
      11    H7      18.505814   17.531584   21.935016 H          1 MOL1         0.0755
      12    C5      20.291897   18.684963   21.496516 C.3        1 MOL1        -0.1855
      13    H8      20.902233   19.466929   21.969009 H          1 MOL1         0.0755
      14    H9      19.926924   19.097898   20.545954 H          1 MOL1         0.0755
      15    C6      21.181127   17.449792   21.210782 C.3        1 MOL1        -0.1958
      16    H10     21.563543   17.033502   22.150489 H          1 MOL1         0.0753
      17    H11     20.592369   16.663547   20.723269 H          1 MOL1         0.0753
      18    C7      22.372233   17.772398   20.315638 C.2        1 MOL1         0.6174
      19    O1      22.221525   17.699024   19.112038 O.co2      1 MOL1        -0.6695
      20    O2      23.415281   18.102061   20.844850 O.co2      1 MOL1        -0.6695
@<TRIPOS>BOND
    1     1     2    1
    2     1     3    1
    3     1     4    2
    4     4     5    1
    5     4     6    1
    6     6     7    1
    7     6     8    1
    8     6     9    1
    9     9    10    1
   10     9    11    1
   11     9    12    1
   12    12    13    1
   13    12    14    1
   14    12    15    1
   15    15    16    1
   16    15    17    1
   17    15    18    1
   18    18    19    1
   19    18    20    2
@<TRIPOS>SUBSTRUCTURE
       1 MOL1            1 RESIDUE      1      MOL     
@<SCITEGIC>MOL_PROPERTY
VConf Rank
SciTegic.value.IntegerValue
336

@<SCITEGIC>MOL_PROPERTY
Conf_Id
SciTegic.value.IntegerValue
42

@<SCITEGIC>MOL_PROPERTY
Delta U+W
SciTegic.value.DoubleValue
-0.601

@<SCITEGIC>MOL_PROPERTY
U+W
SciTegic.value.DoubleValue
-52.347

@<SCITEGIC>MOL_PROPERTY
Grad RMS
SciTegic.value.DoubleValue
0.000000

@<SCITEGIC>MOL_PROPERTY
U
SciTegic.value.DoubleValue
8.428

@<SCITEGIC>MOL_PROPERTY
W
SciTegic.value.DoubleValue
-60.774

@<SCITEGIC>MOL_PROPERTY
W(PB)
SciTegic.value.DoubleValue
-62.982

@<SCITEGIC>MOL_PROPERTY
W(SA)
SciTegic.value.DoubleValue
2.208

@<SCITEGIC>MOL_PROPERTY
Valence
SciTegic.value.DoubleValue
9.231

@<SCITEGIC>MOL_PROPERTY
Coulomb
SciTegic.value.DoubleValue
-1.304

@<SCITEGIC>MOL_PROPERTY
VdW
SciTegic.value.DoubleValue
0.501

@<SCITEGIC>MOL_PROPERTY
VdW6
SciTegic.value.DoubleValue
-6.515

@<SCITEGIC>MOL_PROPERTY
VdW12
SciTegic.value.DoubleValue
7.016

@<SCITEGIC>MOL_PROPERTY
Bond
SciTegic.value.DoubleValue
0.103

@<SCITEGIC>MOL_PROPERTY
Angle
SciTegic.value.DoubleValue
2.328

@<SCITEGIC>MOL_PROPERTY
Pdih
SciTegic.value.DoubleValue
6.799

@<SCITEGIC>MOL_PROPERTY
Idih
SciTegic.value.DoubleValue
0.000

@<SCITEGIC>MOL_PROPERTY
Tether
SciTegic.value.DoubleValue
0.000

@<TRIPOS>MOLECULE
guest-s22_confgen4.mol2 : confsearch ligand conformer 337
          20          19           1
SMALL
USER_CHARGES
 
@<TRIPOS>ATOM
       1    C1      18.677504   16.765581   20.652229 C.2        1 MOL1        -0.2535
       2    H1      18.182124   17.326178   19.861201 H          1 MOL1         0.0845
       3    H2      18.185143   15.863388   21.011012 H          1 MOL1         0.0845
       4    C2      19.842075   17.167939   21.167889 C.2        1 MOL1        -0.1324
       5    H3      20.319983   16.593876   21.961275 H          1 MOL1         0.0833
       6    C3      20.584487   18.409816   20.722386 C.3        1 MOL1        -0.1813
       7    H4      20.143488   18.814528   19.801334 H          1 MOL1         0.0753
       8    H5      21.620339   18.140111   20.477272 H          1 MOL1         0.0753
       9    C4      20.599628   19.505233   21.812244 C.3        1 MOL1        -0.1855
      10    H6      21.047271   19.100314   22.730392 H          1 MOL1         0.0755
      11    H7      21.251018   20.325951   21.482316 H          1 MOL1         0.0755
      12    C5      19.189710   20.065365   22.114986 C.3        1 MOL1        -0.1855
      13    H8      18.538441   19.262075   22.486374 H          1 MOL1         0.0755
      14    H9      18.738190   20.431489   21.183152 H          1 MOL1         0.0755
      15    C6      19.216723   21.219815   23.150039 C.3        1 MOL1        -0.1958
      16    H10     19.881508   22.021633   22.806708 H          1 MOL1         0.0753
      17    H11     18.214408   21.654960   23.239507 H          1 MOL1         0.0753
      18    C7      19.654596   20.789272   24.547076 C.2        1 MOL1         0.6174
      19    O1      20.785242   21.056458   24.904030 O.co2      1 MOL1        -0.6695
      20    O2      18.846094   20.213569   25.248492 O.co2      1 MOL1        -0.6695
@<TRIPOS>BOND
    1     1     2    1
    2     1     3    1
    3     1     4    2
    4     4     5    1
    5     4     6    1
    6     6     7    1
    7     6     8    1
    8     6     9    1
    9     9    10    1
   10     9    11    1
   11     9    12    1
   12    12    13    1
   13    12    14    1
   14    12    15    1
   15    15    16    1
   16    15    17    1
   17    15    18    1
   18    18    19    1
   19    18    20    2
@<TRIPOS>SUBSTRUCTURE
       1 MOL1            1 RESIDUE      1      MOL     
@<SCITEGIC>MOL_PROPERTY
VConf Rank
SciTegic.value.IntegerValue
337

@<SCITEGIC>MOL_PROPERTY
Conf_Id
SciTegic.value.IntegerValue
68

@<SCITEGIC>MOL_PROPERTY
Delta U+W
SciTegic.value.DoubleValue
0.492

@<SCITEGIC>MOL_PROPERTY
U+W
SciTegic.value.DoubleValue
-51.253

@<SCITEGIC>MOL_PROPERTY
Grad RMS
SciTegic.value.DoubleValue
0.000000

@<SCITEGIC>MOL_PROPERTY
U
SciTegic.value.DoubleValue
10.179

@<SCITEGIC>MOL_PROPERTY
W
SciTegic.value.DoubleValue
-61.432

@<SCITEGIC>MOL_PROPERTY
W(PB)
SciTegic.value.DoubleValue
-63.627

@<SCITEGIC>MOL_PROPERTY
W(SA)
SciTegic.value.DoubleValue
2.195

@<SCITEGIC>MOL_PROPERTY
Valence
SciTegic.value.DoubleValue
9.483

@<SCITEGIC>MOL_PROPERTY
Coulomb
SciTegic.value.DoubleValue
0.361

@<SCITEGIC>MOL_PROPERTY
VdW
SciTegic.value.DoubleValue
0.335

@<SCITEGIC>MOL_PROPERTY
VdW6
SciTegic.value.DoubleValue
-7.385

@<SCITEGIC>MOL_PROPERTY
VdW12
SciTegic.value.DoubleValue
7.720

@<SCITEGIC>MOL_PROPERTY
Bond
SciTegic.value.DoubleValue
0.125

@<SCITEGIC>MOL_PROPERTY
Angle
SciTegic.value.DoubleValue
2.487

@<SCITEGIC>MOL_PROPERTY
Pdih
SciTegic.value.DoubleValue
6.870

@<SCITEGIC>MOL_PROPERTY
Idih
SciTegic.value.DoubleValue
0.001

@<SCITEGIC>MOL_PROPERTY
Tether
SciTegic.value.DoubleValue
0.000

@<TRIPOS>MOLECULE
guest-s22_confgen4.mol2 : confsearch ligand conformer 338
          20          19           1
SMALL
USER_CHARGES
 
@<TRIPOS>ATOM
       1    C1      16.674176   19.494529   23.199509 C.2        1 MOL1        -0.2535
       2    H1      16.728509   20.373271   23.840096 H          1 MOL1         0.0845
       3    H2      15.975125   18.709776   23.483531 H          1 MOL1         0.0845
       4    C2      17.436230   19.378356   22.108879 C.2        1 MOL1        -0.1324
       5    H3      17.363975   18.491422   21.480093 H          1 MOL1         0.0833
       6    C3      18.424368   20.429222   21.649483 C.3        1 MOL1        -0.1813
       7    H4      18.183871   21.393570   22.117152 H          1 MOL1         0.0753
       8    H5      18.331597   20.581625   20.565895 H          1 MOL1         0.0753
       9    C4      19.882834   20.058637   22.001229 C.3        1 MOL1        -0.1855
      10    H6      20.532503   20.911679   21.762493 H          1 MOL1         0.0755
      11    H7      19.965208   19.896459   23.084978 H          1 MOL1         0.0755
      12    C5      20.386065   18.808900   21.240541 C.3        1 MOL1        -0.1855
      13    H8      20.252834   18.963462   20.161342 H          1 MOL1         0.0755
      14    H9      19.780535   17.933569   21.512470 H          1 MOL1         0.0755
      15    C6      21.879270   18.501144   21.524232 C.3        1 MOL1        -0.1958
      16    H10     22.214187   17.682853   20.875975 H          1 MOL1         0.0753
      17    H11     22.499128   19.372623   21.281202 H          1 MOL1         0.0753
      18    C7      22.163871   18.088105   22.965495 C.2        1 MOL1         0.6174
      19    O1      21.887162   16.953161   23.300816 O.co2      1 MOL1        -0.6695
      20    O2      22.672026   18.904427   23.708812 O.co2      1 MOL1        -0.6695
@<TRIPOS>BOND
    1     1     2    1
    2     1     3    1
    3     1     4    2
    4     4     5    1
    5     4     6    1
    6     6     7    1
    7     6     8    1
    8     6     9    1
    9     9    10    1
   10     9    11    1
   11     9    12    1
   12    12    13    1
   13    12    14    1
   14    12    15    1
   15    15    16    1
   16    15    17    1
   17    15    18    1
   18    18    19    1
   19    18    20    2
@<TRIPOS>SUBSTRUCTURE
       1 MOL1            1 RESIDUE      1      MOL     
@<SCITEGIC>MOL_PROPERTY
VConf Rank
SciTegic.value.IntegerValue
338

@<SCITEGIC>MOL_PROPERTY
Conf_Id
SciTegic.value.IntegerValue
87

@<SCITEGIC>MOL_PROPERTY
Delta U+W
SciTegic.value.DoubleValue
0.339

@<SCITEGIC>MOL_PROPERTY
U+W
SciTegic.value.DoubleValue
-51.407

@<SCITEGIC>MOL_PROPERTY
Grad RMS
SciTegic.value.DoubleValue
0.000000

@<SCITEGIC>MOL_PROPERTY
U
SciTegic.value.DoubleValue
10.461

@<SCITEGIC>MOL_PROPERTY
W
SciTegic.value.DoubleValue
-61.867

@<SCITEGIC>MOL_PROPERTY
W(PB)
SciTegic.value.DoubleValue
-64.045

@<SCITEGIC>MOL_PROPERTY
W(SA)
SciTegic.value.DoubleValue
2.178

@<SCITEGIC>MOL_PROPERTY
Valence
SciTegic.value.DoubleValue
9.555

@<SCITEGIC>MOL_PROPERTY
Coulomb
SciTegic.value.DoubleValue
0.483

@<SCITEGIC>MOL_PROPERTY
VdW
SciTegic.value.DoubleValue
0.423

@<SCITEGIC>MOL_PROPERTY
VdW6
SciTegic.value.DoubleValue
-7.223

@<SCITEGIC>MOL_PROPERTY
VdW12
SciTegic.value.DoubleValue
7.646

@<SCITEGIC>MOL_PROPERTY
Bond
SciTegic.value.DoubleValue
0.126

@<SCITEGIC>MOL_PROPERTY
Angle
SciTegic.value.DoubleValue
2.492

@<SCITEGIC>MOL_PROPERTY
Pdih
SciTegic.value.DoubleValue
6.936

@<SCITEGIC>MOL_PROPERTY
Idih
SciTegic.value.DoubleValue
0.001

@<SCITEGIC>MOL_PROPERTY
Tether
SciTegic.value.DoubleValue
0.000

@<TRIPOS>MOLECULE
guest-s22_confgen4.mol2 : confsearch ligand conformer 339
          20          19           1
SMALL
USER_CHARGES
 
@<TRIPOS>ATOM
       1    C1      21.092393   20.997584   23.158295 C.2        1 MOL1        -0.2535
       2    H1      20.382286   21.452576   23.846878 H          1 MOL1         0.0845
       3    H2      22.133463   20.945624   23.472129 H          1 MOL1         0.0845
       4    C2      20.702888   20.518522   21.974023 C.2        1 MOL1        -0.1324
       5    H3      21.429981   20.074921   21.294801 H          1 MOL1         0.0833
       6    C3      19.276771   20.568901   21.468791 C.3        1 MOL1        -0.1813
       7    H4      19.255277   20.448154   20.377510 H          1 MOL1         0.0753
       8    H5      18.873374   21.571401   21.665442 H          1 MOL1         0.0753
       9    C4      18.345999   19.526014   22.136038 C.3        1 MOL1        -0.1855
      10    H6      18.507003   19.519572   23.222763 H          1 MOL1         0.0755
      11    H7      17.308835   19.856056   21.987388 H          1 MOL1         0.0755
      12    C5      18.466772   18.087990   21.571593 C.3        1 MOL1        -0.1855
      13    H8      18.319001   18.100330   20.482992 H          1 MOL1         0.0755
      14    H9      17.646727   17.485345   21.986122 H          1 MOL1         0.0755
      15    C6      19.806680   17.383174   21.904977 C.3        1 MOL1        -0.1958
      16    H10     20.637525   17.870093   21.384703 H          1 MOL1         0.0753
      17    H11     20.011599   17.446147   22.980321 H          1 MOL1         0.0753
      18    C7      19.814614   15.912040   21.505811 C.2        1 MOL1         0.6174
      19    O1      20.169652   15.624555   20.379672 O.co2      1 MOL1        -0.6695
      20    O2      19.445512   15.093310   22.324547 O.co2      1 MOL1        -0.6695
@<TRIPOS>BOND
    1     1     2    1
    2     1     3    1
    3     1     4    2
    4     4     5    1
    5     4     6    1
    6     6     7    1
    7     6     8    1
    8     6     9    1
    9     9    10    1
   10     9    11    1
   11     9    12    1
   12    12    13    1
   13    12    14    1
   14    12    15    1
   15    15    16    1
   16    15    17    1
   17    15    18    1
   18    18    19    1
   19    18    20    2
@<TRIPOS>SUBSTRUCTURE
       1 MOL1            1 RESIDUE      1      MOL     
@<SCITEGIC>MOL_PROPERTY
VConf Rank
SciTegic.value.IntegerValue
339

@<SCITEGIC>MOL_PROPERTY
Conf_Id
SciTegic.value.IntegerValue
51

@<SCITEGIC>MOL_PROPERTY
Delta U+W
SciTegic.value.DoubleValue
1.709

@<SCITEGIC>MOL_PROPERTY
U+W
SciTegic.value.DoubleValue
-50.036

@<SCITEGIC>MOL_PROPERTY
Grad RMS
SciTegic.value.DoubleValue
0.000000

@<SCITEGIC>MOL_PROPERTY
U
SciTegic.value.DoubleValue
10.643

@<SCITEGIC>MOL_PROPERTY
W
SciTegic.value.DoubleValue
-60.679

@<SCITEGIC>MOL_PROPERTY
W(PB)
SciTegic.value.DoubleValue
-62.882

@<SCITEGIC>MOL_PROPERTY
W(SA)
SciTegic.value.DoubleValue
2.203

@<SCITEGIC>MOL_PROPERTY
Valence
SciTegic.value.DoubleValue
11.231

@<SCITEGIC>MOL_PROPERTY
Coulomb
SciTegic.value.DoubleValue
-1.077

@<SCITEGIC>MOL_PROPERTY
VdW
SciTegic.value.DoubleValue
0.489

@<SCITEGIC>MOL_PROPERTY
VdW6
SciTegic.value.DoubleValue
-7.546

@<SCITEGIC>MOL_PROPERTY
VdW12
SciTegic.value.DoubleValue
8.035

@<SCITEGIC>MOL_PROPERTY
Bond
SciTegic.value.DoubleValue
0.159

@<SCITEGIC>MOL_PROPERTY
Angle
SciTegic.value.DoubleValue
3.005

@<SCITEGIC>MOL_PROPERTY
Pdih
SciTegic.value.DoubleValue
8.065

@<SCITEGIC>MOL_PROPERTY
Idih
SciTegic.value.DoubleValue
0.002

@<SCITEGIC>MOL_PROPERTY
Tether
SciTegic.value.DoubleValue
0.000

@<TRIPOS>MOLECULE
guest-s22_confgen4.mol2 : confsearch ligand conformer 340
          20          19           1
SMALL
USER_CHARGES
 
@<TRIPOS>ATOM
       1    C1      21.156898   21.023218   20.553434 C.2        1 MOL1        -0.2535
       2    H1      20.906458   21.956971   21.054236 H          1 MOL1         0.0845
       3    H2      21.327242   21.059616   19.478875 H          1 MOL1         0.0845
       4    C2      21.249534   19.875030   21.229301 C.2        1 MOL1        -0.1324
       5    H3      21.510100   18.952457   20.711847 H          1 MOL1         0.0833
       6    C3      21.038393   19.753557   22.723378 C.3        1 MOL1        -0.1813
       7    H4      21.577985   20.572129   23.218541 H          1 MOL1         0.0753
       8    H5      21.494012   18.827228   23.097892 H          1 MOL1         0.0753
       9    C4      19.549802   19.820791   23.146163 C.3        1 MOL1        -0.1855
      10    H6      19.513930   20.077807   24.213586 H          1 MOL1         0.0755
      11    H7      19.046941   20.644466   22.621167 H          1 MOL1         0.0755
      12    C5      18.756563   18.503727   22.953234 C.3        1 MOL1        -0.1855
      13    H8      17.780988   18.613869   23.446803 H          1 MOL1         0.0755
      14    H9      19.269783   17.679731   23.467699 H          1 MOL1         0.0755
      15    C6      18.512682   18.118106   21.471651 C.3        1 MOL1        -0.1958
      16    H10     18.085662   18.966528   20.923787 H          1 MOL1         0.0753
      17    H11     19.455597   17.854169   20.982434 H          1 MOL1         0.0753
      18    C7      17.568644   16.931071   21.318809 C.2        1 MOL1         0.6174
      19    O1      18.045684   15.813365   21.326273 O.co2      1 MOL1        -0.6695
      20    O2      16.378345   17.153942   21.216829 O.co2      1 MOL1        -0.6695
@<TRIPOS>BOND
    1     1     2    1
    2     1     3    1
    3     1     4    2
    4     4     5    1
    5     4     6    1
    6     6     7    1
    7     6     8    1
    8     6     9    1
    9     9    10    1
   10     9    11    1
   11     9    12    1
   12    12    13    1
   13    12    14    1
   14    12    15    1
   15    15    16    1
   16    15    17    1
   17    15    18    1
   18    18    19    1
   19    18    20    2
@<TRIPOS>SUBSTRUCTURE
       1 MOL1            1 RESIDUE      1      MOL     
@<SCITEGIC>MOL_PROPERTY
VConf Rank
SciTegic.value.IntegerValue
340

@<SCITEGIC>MOL_PROPERTY
Conf_Id
SciTegic.value.IntegerValue
91

@<SCITEGIC>MOL_PROPERTY
Delta U+W
SciTegic.value.DoubleValue
1.604

@<SCITEGIC>MOL_PROPERTY
U+W
SciTegic.value.DoubleValue
-50.141

@<SCITEGIC>MOL_PROPERTY
Grad RMS
SciTegic.value.DoubleValue
0.000000

@<SCITEGIC>MOL_PROPERTY
U
SciTegic.value.DoubleValue
10.644

@<SCITEGIC>MOL_PROPERTY
W
SciTegic.value.DoubleValue
-60.786

@<SCITEGIC>MOL_PROPERTY
W(PB)
SciTegic.value.DoubleValue
-62.965

@<SCITEGIC>MOL_PROPERTY
W(SA)
SciTegic.value.DoubleValue
2.179

@<SCITEGIC>MOL_PROPERTY
Valence
SciTegic.value.DoubleValue
11.230

@<SCITEGIC>MOL_PROPERTY
Coulomb
SciTegic.value.DoubleValue
-1.075

@<SCITEGIC>MOL_PROPERTY
VdW
SciTegic.value.DoubleValue
0.489

@<SCITEGIC>MOL_PROPERTY
VdW6
SciTegic.value.DoubleValue
-7.547

@<SCITEGIC>MOL_PROPERTY
VdW12
SciTegic.value.DoubleValue
8.036

@<SCITEGIC>MOL_PROPERTY
Bond
SciTegic.value.DoubleValue
0.159

@<SCITEGIC>MOL_PROPERTY
Angle
SciTegic.value.DoubleValue
3.006

@<SCITEGIC>MOL_PROPERTY
Pdih
SciTegic.value.DoubleValue
8.064

@<SCITEGIC>MOL_PROPERTY
Idih
SciTegic.value.DoubleValue
0.002

@<SCITEGIC>MOL_PROPERTY
Tether
SciTegic.value.DoubleValue
0.000

@<TRIPOS>MOLECULE
guest-s22_confgen4.mol2 : confsearch ligand conformer 341
          20          19           1
SMALL
USER_CHARGES
 
@<TRIPOS>ATOM
       1    C1      17.403133   19.443221   19.112445 C.2        1 MOL1        -0.2535
       2    H1      17.861756   18.584088   18.625467 H          1 MOL1         0.0845
       3    H2      16.827771   20.124782   18.488177 H          1 MOL1         0.0845
       4    C2      17.540616   19.657716   20.423453 C.2        1 MOL1        -0.1324
       5    H3      17.073975   20.524328   20.891305 H          1 MOL1         0.0833
       6    C3      18.322439   18.755973   21.352569 C.3        1 MOL1        -0.1813
       7    H4      18.529959   17.794312   20.863745 H          1 MOL1         0.0753
       8    H5      17.719136   18.533967   22.243008 H          1 MOL1         0.0753
       9    C4      19.651834   19.413219   21.778726 C.3        1 MOL1        -0.1855
      10    H6      20.249547   19.637012   20.884276 H          1 MOL1         0.0755
      11    H7      19.443525   20.372802   22.271645 H          1 MOL1         0.0755
      12    C5      20.462069   18.506416   22.730746 C.3        1 MOL1        -0.1855
      13    H8      20.671231   17.546611   22.238232 H          1 MOL1         0.0755
      14    H9      19.864354   18.281224   23.624921 H          1 MOL1         0.0755
      15    C6      21.799361   19.167511   23.158530 C.3        1 MOL1        -0.1958
      16    H10     22.403831   19.389158   22.271174 H          1 MOL1         0.0753
      17    H11     21.597860   20.123144   23.656599 H          1 MOL1         0.0753
      18    C7      22.665917   18.334253   24.104087 C.2        1 MOL1         0.6174
      19    O1      23.720547   18.819687   24.462207 O.co2      1 MOL1        -0.6695
      20    O2      22.284213   17.236518   24.461754 O.co2      1 MOL1        -0.6695
@<TRIPOS>BOND
    1     1     2    1
    2     1     3    1
    3     1     4    2
    4     4     5    1
    5     4     6    1
    6     6     7    1
    7     6     8    1
    8     6     9    1
    9     9    10    1
   10     9    11    1
   11     9    12    1
   12    12    13    1
   13    12    14    1
   14    12    15    1
   15    15    16    1
   16    15    17    1
   17    15    18    1
   18    18    19    1
   19    18    20    2
@<TRIPOS>SUBSTRUCTURE
       1 MOL1            1 RESIDUE      1      MOL     
@<SCITEGIC>MOL_PROPERTY
VConf Rank
SciTegic.value.IntegerValue
341

@<SCITEGIC>MOL_PROPERTY
Conf_Id
SciTegic.value.IntegerValue
33

@<SCITEGIC>MOL_PROPERTY
Delta U+W
SciTegic.value.DoubleValue
0.000

@<SCITEGIC>MOL_PROPERTY
U+W
SciTegic.value.DoubleValue
-51.745

@<SCITEGIC>MOL_PROPERTY
Grad RMS
SciTegic.value.DoubleValue
0.000000

@<SCITEGIC>MOL_PROPERTY
U
SciTegic.value.DoubleValue
7.593

@<SCITEGIC>MOL_PROPERTY
W
SciTegic.value.DoubleValue
-59.338

@<SCITEGIC>MOL_PROPERTY
W(PB)
SciTegic.value.DoubleValue
-61.574

@<SCITEGIC>MOL_PROPERTY
W(SA)
SciTegic.value.DoubleValue
2.236

@<SCITEGIC>MOL_PROPERTY
Valence
SciTegic.value.DoubleValue
9.570

@<SCITEGIC>MOL_PROPERTY
Coulomb
SciTegic.value.DoubleValue
-3.091

@<SCITEGIC>MOL_PROPERTY
VdW
SciTegic.value.DoubleValue
1.114

@<SCITEGIC>MOL_PROPERTY
VdW6
SciTegic.value.DoubleValue
-6.064

@<SCITEGIC>MOL_PROPERTY
VdW12
SciTegic.value.DoubleValue
7.178

@<SCITEGIC>MOL_PROPERTY
Bond
SciTegic.value.DoubleValue
0.117

@<SCITEGIC>MOL_PROPERTY
Angle
SciTegic.value.DoubleValue
2.692

@<SCITEGIC>MOL_PROPERTY
Pdih
SciTegic.value.DoubleValue
6.761

@<SCITEGIC>MOL_PROPERTY
Idih
SciTegic.value.DoubleValue
0.000

@<SCITEGIC>MOL_PROPERTY
Tether
SciTegic.value.DoubleValue
0.000

@<TRIPOS>MOLECULE
guest-s22_confgen4.mol2 : confsearch ligand conformer 342
          20          19           1
SMALL
USER_CHARGES
 
@<TRIPOS>ATOM
       1    C1      16.572075   17.784217   23.213443 C.2        1 MOL1        -0.2535
       2    H1      17.108730   16.985812   23.723472 H          1 MOL1         0.0845
       3    H2      15.485234   17.723976   23.193285 H          1 MOL1         0.0845
       4    C2      17.217955   18.798256   22.631861 C.2        1 MOL1        -0.1324
       5    H3      16.661900   19.587048   22.125658 H          1 MOL1         0.0833
       6    C3      18.722854   18.949433   22.619639 C.3        1 MOL1        -0.1813
       7    H4      19.178411   18.272110   23.354689 H          1 MOL1         0.0753
       8    H5      18.984409   19.970662   22.924156 H          1 MOL1         0.0753
       9    C4      19.299128   18.649817   21.217516 C.3        1 MOL1        -0.1855
      10    H6      18.954129   17.656587   20.898439 H          1 MOL1         0.0755
      11    H7      18.894161   19.367028   20.490465 H          1 MOL1         0.0755
      12    C5      20.845434   18.674581   21.167484 C.3        1 MOL1        -0.1855
      13    H8      21.170948   18.342408   20.171896 H          1 MOL1         0.0755
      14    H9      21.251867   17.948131   21.884754 H          1 MOL1         0.0755
      15    C6      21.451465   20.074181   21.448232 C.3        1 MOL1        -0.1958
      16    H10     21.021204   20.816864   20.765824 H          1 MOL1         0.0753
      17    H11     21.220673   20.397734   22.469404 H          1 MOL1         0.0753
      18    C7      22.966803   20.103501   21.284339 C.2        1 MOL1         0.6174
      19    O1      23.653763   19.838790   22.251150 O.co2      1 MOL1        -0.6695
      20    O2      23.420220   20.370914   20.189060 O.co2      1 MOL1        -0.6695
@<TRIPOS>BOND
    1     1     2    1
    2     1     3    1
    3     1     4    2
    4     4     5    1
    5     4     6    1
    6     6     7    1
    7     6     8    1
    8     6     9    1
    9     9    10    1
   10     9    11    1
   11     9    12    1
   12    12    13    1
   13    12    14    1
   14    12    15    1
   15    15    16    1
   16    15    17    1
   17    15    18    1
   18    18    19    1
   19    18    20    2
@<TRIPOS>SUBSTRUCTURE
       1 MOL1            1 RESIDUE      1      MOL     
@<SCITEGIC>MOL_PROPERTY
VConf Rank
SciTegic.value.IntegerValue
342

@<SCITEGIC>MOL_PROPERTY
Conf_Id
SciTegic.value.IntegerValue
37

@<SCITEGIC>MOL_PROPERTY
Delta U+W
SciTegic.value.DoubleValue
-0.384

@<SCITEGIC>MOL_PROPERTY
U+W
SciTegic.value.DoubleValue
-52.130

@<SCITEGIC>MOL_PROPERTY
Grad RMS
SciTegic.value.DoubleValue
0.000000

@<SCITEGIC>MOL_PROPERTY
U
SciTegic.value.DoubleValue
7.491

@<SCITEGIC>MOL_PROPERTY
W
SciTegic.value.DoubleValue
-59.621

@<SCITEGIC>MOL_PROPERTY
W(PB)
SciTegic.value.DoubleValue
-61.853

@<SCITEGIC>MOL_PROPERTY
W(SA)
SciTegic.value.DoubleValue
2.232

@<SCITEGIC>MOL_PROPERTY
Valence
SciTegic.value.DoubleValue
9.604

@<SCITEGIC>MOL_PROPERTY
Coulomb
SciTegic.value.DoubleValue
-2.799

@<SCITEGIC>MOL_PROPERTY
VdW
SciTegic.value.DoubleValue
0.686

@<SCITEGIC>MOL_PROPERTY
VdW6
SciTegic.value.DoubleValue
-6.435

@<SCITEGIC>MOL_PROPERTY
VdW12
SciTegic.value.DoubleValue
7.121

@<SCITEGIC>MOL_PROPERTY
Bond
SciTegic.value.DoubleValue
0.124

@<SCITEGIC>MOL_PROPERTY
Angle
SciTegic.value.DoubleValue
2.493

@<SCITEGIC>MOL_PROPERTY
Pdih
SciTegic.value.DoubleValue
6.986

@<SCITEGIC>MOL_PROPERTY
Idih
SciTegic.value.DoubleValue
0.001

@<SCITEGIC>MOL_PROPERTY
Tether
SciTegic.value.DoubleValue
0.000

@<TRIPOS>MOLECULE
guest-s22_confgen4.mol2 : confsearch ligand conformer 343
          20          19           1
SMALL
USER_CHARGES
 
@<TRIPOS>ATOM
       1    C1      22.266410   20.212527   19.995364 C.2        1 MOL1        -0.2535
       2    H1      23.081892   20.586358   19.378573 H          1 MOL1         0.0845
       3    H2      21.413213   20.873121   20.133998 H          1 MOL1         0.0845
       4    C2      22.329953   18.995658   20.547726 C.2        1 MOL1        -0.1324
       5    H3      23.211645   18.379585   20.372504 H          1 MOL1         0.0833
       6    C3      21.277581   18.340944   21.426859 C.3        1 MOL1        -0.1813
       7    H4      21.737156   18.073797   22.387878 H          1 MOL1         0.0753
       8    H5      20.976683   17.389602   20.968009 H          1 MOL1         0.0753
       9    C4      20.017524   19.198759   21.688385 C.3        1 MOL1        -0.1855
      10    H6      20.309674   20.143721   22.166697 H          1 MOL1         0.0755
      11    H7      19.540963   19.452125   20.731420 H          1 MOL1         0.0755
      12    C5      19.000595   18.462568   22.587773 C.3        1 MOL1        -0.1855
      13    H8      19.471431   18.206171   23.547034 H          1 MOL1         0.0755
      14    H9      18.704303   17.515991   22.114690 H          1 MOL1         0.0755
      15    C6      17.737897   19.319495   22.851127 C.3        1 MOL1        -0.1958
      16    H10     18.014986   20.263351   23.335852 H          1 MOL1         0.0753
      17    H11     17.247894   19.573226   21.903435 H          1 MOL1         0.0753
      18    C7      16.717904   18.613710   23.737394 C.2        1 MOL1         0.6174
      19    O1      16.805787   18.758829   24.940666 O.co2      1 MOL1        -0.6695
      20    O2      15.874569   17.921603   23.202211 O.co2      1 MOL1        -0.6695
@<TRIPOS>BOND
    1     1     2    1
    2     1     3    1
    3     1     4    2
    4     4     5    1
    5     4     6    1
    6     6     7    1
    7     6     8    1
    8     6     9    1
    9     9    10    1
   10     9    11    1
   11     9    12    1
   12    12    13    1
   13    12    14    1
   14    12    15    1
   15    15    16    1
   16    15    17    1
   17    15    18    1
   18    18    19    1
   19    18    20    2
@<TRIPOS>SUBSTRUCTURE
       1 MOL1            1 RESIDUE      1      MOL     
@<SCITEGIC>MOL_PROPERTY
VConf Rank
SciTegic.value.IntegerValue
343

@<SCITEGIC>MOL_PROPERTY
Conf_Id
SciTegic.value.IntegerValue
44

@<SCITEGIC>MOL_PROPERTY
Delta U+W
SciTegic.value.DoubleValue
-1.440

@<SCITEGIC>MOL_PROPERTY
U+W
SciTegic.value.DoubleValue
-53.185

@<SCITEGIC>MOL_PROPERTY
Grad RMS
SciTegic.value.DoubleValue
0.000000

@<SCITEGIC>MOL_PROPERTY
U
SciTegic.value.DoubleValue
6.572

@<SCITEGIC>MOL_PROPERTY
W
SciTegic.value.DoubleValue
-59.757

@<SCITEGIC>MOL_PROPERTY
W(PB)
SciTegic.value.DoubleValue
-62.007

@<SCITEGIC>MOL_PROPERTY
W(SA)
SciTegic.value.DoubleValue
2.249

@<SCITEGIC>MOL_PROPERTY
Valence
SciTegic.value.DoubleValue
7.989

@<SCITEGIC>MOL_PROPERTY
Coulomb
SciTegic.value.DoubleValue
-2.697

@<SCITEGIC>MOL_PROPERTY
VdW
SciTegic.value.DoubleValue
1.281

@<SCITEGIC>MOL_PROPERTY
VdW6
SciTegic.value.DoubleValue
-6.467

@<SCITEGIC>MOL_PROPERTY
VdW12
SciTegic.value.DoubleValue
7.748

@<SCITEGIC>MOL_PROPERTY
Bond
SciTegic.value.DoubleValue
0.136

@<SCITEGIC>MOL_PROPERTY
Angle
SciTegic.value.DoubleValue
2.854

@<SCITEGIC>MOL_PROPERTY
Pdih
SciTegic.value.DoubleValue
4.997

@<SCITEGIC>MOL_PROPERTY
Idih
SciTegic.value.DoubleValue
0.001

@<SCITEGIC>MOL_PROPERTY
Tether
SciTegic.value.DoubleValue
0.000

@<TRIPOS>MOLECULE
guest-s22_confgen4.mol2 : confsearch ligand conformer 344
          20          19           1
SMALL
USER_CHARGES
 
@<TRIPOS>ATOM
       1    C1      19.510400   15.662066   21.357386 C.2        1 MOL1        -0.2535
       2    H1      20.584744   15.771914   21.218474 H          1 MOL1         0.0845
       3    H2      19.054916   14.730873   21.024717 H          1 MOL1         0.0845
       4    C2      18.775919   16.630296   21.911269 C.2        1 MOL1        -0.1324
       5    H3      17.701670   16.500412   22.040710 H          1 MOL1         0.0833
       6    C3      19.337722   17.947741   22.397697 C.3        1 MOL1        -0.1813
       7    H4      20.430147   17.879807   22.478890 H          1 MOL1         0.0753
       8    H5      18.957048   18.158722   23.405916 H          1 MOL1         0.0753
       9    C4      18.950646   19.101636   21.445510 C.3        1 MOL1        -0.1855
      10    H6      19.378347   18.916330   20.450560 H          1 MOL1         0.0755
      11    H7      17.859443   19.106192   21.317680 H          1 MOL1         0.0755
      12    C5      19.393315   20.495189   21.951845 C.3        1 MOL1        -0.1855
      13    H8      18.958387   20.685932   22.942717 H          1 MOL1         0.0755
      14    H9      18.981424   21.260977   21.279970 H          1 MOL1         0.0755
      15    C6      20.932879   20.668947   22.019734 C.3        1 MOL1        -0.1958
      16    H10     21.368066   19.979455   22.751797 H          1 MOL1         0.0753
      17    H11     21.383103   20.438184   21.046881 H          1 MOL1         0.0753
      18    C7      21.349478   22.082434   22.410160 C.2        1 MOL1         0.6174
      19    O1      21.519098   22.895986   21.523540 O.co2      1 MOL1        -0.6695
      20    O2      21.474033   22.338251   23.591581 O.co2      1 MOL1        -0.6695
@<TRIPOS>BOND
    1     1     2    1
    2     1     3    1
    3     1     4    2
    4     4     5    1
    5     4     6    1
    6     6     7    1
    7     6     8    1
    8     6     9    1
    9     9    10    1
   10     9    11    1
   11     9    12    1
   12    12    13    1
   13    12    14    1
   14    12    15    1
   15    15    16    1
   16    15    17    1
   17    15    18    1
   18    18    19    1
   19    18    20    2
@<TRIPOS>SUBSTRUCTURE
       1 MOL1            1 RESIDUE      1      MOL     
@<SCITEGIC>MOL_PROPERTY
VConf Rank
SciTegic.value.IntegerValue
344

@<SCITEGIC>MOL_PROPERTY
Conf_Id
SciTegic.value.IntegerValue
38

@<SCITEGIC>MOL_PROPERTY
Delta U+W
SciTegic.value.DoubleValue
-0.381

@<SCITEGIC>MOL_PROPERTY
U+W
SciTegic.value.DoubleValue
-52.126

@<SCITEGIC>MOL_PROPERTY
Grad RMS
SciTegic.value.DoubleValue
0.000000

@<SCITEGIC>MOL_PROPERTY
U
SciTegic.value.DoubleValue
7.601

@<SCITEGIC>MOL_PROPERTY
W
SciTegic.value.DoubleValue
-59.727

@<SCITEGIC>MOL_PROPERTY
W(PB)
SciTegic.value.DoubleValue
-61.964

@<SCITEGIC>MOL_PROPERTY
W(SA)
SciTegic.value.DoubleValue
2.236

@<SCITEGIC>MOL_PROPERTY
Valence
SciTegic.value.DoubleValue
9.602

@<SCITEGIC>MOL_PROPERTY
Coulomb
SciTegic.value.DoubleValue
-2.686

@<SCITEGIC>MOL_PROPERTY
VdW
SciTegic.value.DoubleValue
0.685

@<SCITEGIC>MOL_PROPERTY
VdW6
SciTegic.value.DoubleValue
-6.453

@<SCITEGIC>MOL_PROPERTY
VdW12
SciTegic.value.DoubleValue
7.139

@<SCITEGIC>MOL_PROPERTY
Bond
SciTegic.value.DoubleValue
0.125

@<SCITEGIC>MOL_PROPERTY
Angle
SciTegic.value.DoubleValue
2.485

@<SCITEGIC>MOL_PROPERTY
Pdih
SciTegic.value.DoubleValue
6.991

@<SCITEGIC>MOL_PROPERTY
Idih
SciTegic.value.DoubleValue
0.001

@<SCITEGIC>MOL_PROPERTY
Tether
SciTegic.value.DoubleValue
0.000

@<TRIPOS>MOLECULE
guest-s22_confgen4.mol2 : confsearch ligand conformer 345
          20          19           1
SMALL
USER_CHARGES
 
@<TRIPOS>ATOM
       1    C1      22.476295   19.659681   19.824257 C.2        1 MOL1        -0.2535
       2    H1      23.119725   20.049205   20.611559 H          1 MOL1         0.0845
       3    H2      22.959972   19.241356   18.943161 H          1 MOL1         0.0845
       4    C2      21.145458   19.689746   19.932111 C.2        1 MOL1        -0.1324
       5    H3      20.519366   19.293679   19.132861 H          1 MOL1         0.0833
       6    C3      20.403936   20.254595   21.123220 C.3        1 MOL1        -0.1813
       7    H4      19.614976   20.935030   20.775837 H          1 MOL1         0.0753
       8    H5      21.083991   20.850934   21.746635 H          1 MOL1         0.0753
       9    C4      19.778554   19.129912   21.974687 C.3        1 MOL1        -0.1855
      10    H6      19.097103   18.536482   21.349469 H          1 MOL1         0.0755
      11    H7      20.570113   18.448723   22.316284 H          1 MOL1         0.0755
      12    C5      19.014036   19.690493   23.195176 C.3        1 MOL1        -0.1855
      13    H8      18.214570   20.364167   22.856485 H          1 MOL1         0.0755
      14    H9      19.699069   20.294567   23.805428 H          1 MOL1         0.0755
      15    C6      18.403441   18.573443   24.080766 C.3        1 MOL1        -0.1958
      16    H10     19.185756   17.876140   24.404201 H          1 MOL1         0.0753
      17    H11     17.978200   19.016913   24.988776 H          1 MOL1         0.0753
      18    C7      17.293810   17.778351   23.398554 C.2        1 MOL1         0.6174
      19    O1      17.546297   16.655505   23.008121 O.co2      1 MOL1        -0.6695
      20    O2      16.202043   18.300309   23.285852 O.co2      1 MOL1        -0.6695
@<TRIPOS>BOND
    1     1     2    1
    2     1     3    1
    3     1     4    2
    4     4     5    1
    5     4     6    1
    6     6     7    1
    7     6     8    1
    8     6     9    1
    9     9    10    1
   10     9    11    1
   11     9    12    1
   12    12    13    1
   13    12    14    1
   14    12    15    1
   15    15    16    1
   16    15    17    1
   17    15    18    1
   18    18    19    1
   19    18    20    2
@<TRIPOS>SUBSTRUCTURE
       1 MOL1            1 RESIDUE      1      MOL     
@<SCITEGIC>MOL_PROPERTY
VConf Rank
SciTegic.value.IntegerValue
345

@<SCITEGIC>MOL_PROPERTY
Conf_Id
SciTegic.value.IntegerValue
58

@<SCITEGIC>MOL_PROPERTY
Delta U+W
SciTegic.value.DoubleValue
0.019

@<SCITEGIC>MOL_PROPERTY
U+W
SciTegic.value.DoubleValue
-51.727

@<SCITEGIC>MOL_PROPERTY
Grad RMS
SciTegic.value.DoubleValue
0.000000

@<SCITEGIC>MOL_PROPERTY
U
SciTegic.value.DoubleValue
8.963

@<SCITEGIC>MOL_PROPERTY
W
SciTegic.value.DoubleValue
-60.690

@<SCITEGIC>MOL_PROPERTY
W(PB)
SciTegic.value.DoubleValue
-62.934

@<SCITEGIC>MOL_PROPERTY
W(SA)
SciTegic.value.DoubleValue
2.244

@<SCITEGIC>MOL_PROPERTY
Valence
SciTegic.value.DoubleValue
9.327

@<SCITEGIC>MOL_PROPERTY
Coulomb
SciTegic.value.DoubleValue
-0.780

@<SCITEGIC>MOL_PROPERTY
VdW
SciTegic.value.DoubleValue
0.417

@<SCITEGIC>MOL_PROPERTY
VdW6
SciTegic.value.DoubleValue
-6.635

@<SCITEGIC>MOL_PROPERTY
VdW12
SciTegic.value.DoubleValue
7.052

@<SCITEGIC>MOL_PROPERTY
Bond
SciTegic.value.DoubleValue
0.105

@<SCITEGIC>MOL_PROPERTY
Angle
SciTegic.value.DoubleValue
2.399

@<SCITEGIC>MOL_PROPERTY
Pdih
SciTegic.value.DoubleValue
6.822

@<SCITEGIC>MOL_PROPERTY
Idih
SciTegic.value.DoubleValue
0.000

@<SCITEGIC>MOL_PROPERTY
Tether
SciTegic.value.DoubleValue
0.000

@<TRIPOS>MOLECULE
guest-s22_confgen4.mol2 : confsearch ligand conformer 346
          20          19           1
SMALL
USER_CHARGES
 
@<TRIPOS>ATOM
       1    C1      21.224980   18.338076   18.925908 C.2        1 MOL1        -0.2535
       2    H1      21.367227   19.376276   18.630132 H          1 MOL1         0.0845
       3    H2      21.204703   17.590181   18.135016 H          1 MOL1         0.0845
       4    C2      21.078109   17.991540   20.207317 C.2        1 MOL1        -0.1324
       5    H3      20.935889   16.946590   20.482109 H          1 MOL1         0.0833
       6    C3      21.095971   18.972632   21.358309 C.3        1 MOL1        -0.1813
       7    H4      21.493169   19.941425   21.026022 H          1 MOL1         0.0753
       8    H5      21.771523   18.606238   22.142853 H          1 MOL1         0.0753
       9    C4      19.682185   19.169878   21.944239 C.3        1 MOL1        -0.1855
      10    H6      19.008305   19.531837   21.155478 H          1 MOL1         0.0755
      11    H7      19.288164   18.199905   22.277903 H          1 MOL1         0.0755
      12    C5      19.683177   20.167909   23.124181 C.3        1 MOL1        -0.1855
      13    H8      20.092931   21.129054   22.785236 H          1 MOL1         0.0755
      14    H9      20.348162   19.803469   23.919589 H          1 MOL1         0.0755
      15    C6      18.265654   20.402970   23.707506 C.3        1 MOL1        -0.1958
      16    H10     18.305572   21.202303   24.456806 H          1 MOL1         0.0753
      17    H11     17.582529   20.740788   22.918787 H          1 MOL1         0.0753
      18    C7      17.661362   19.174823   24.382304 C.2        1 MOL1         0.6174
      19    O1      18.074257   18.865125   25.482623 O.co2      1 MOL1        -0.6695
      20    O2      16.787218   18.567181   23.796121 O.co2      1 MOL1        -0.6695
@<TRIPOS>BOND
    1     1     2    1
    2     1     3    1
    3     1     4    2
    4     4     5    1
    5     4     6    1
    6     6     7    1
    7     6     8    1
    8     6     9    1
    9     9    10    1
   10     9    11    1
   11     9    12    1
   12    12    13    1
   13    12    14    1
   14    12    15    1
   15    15    16    1
   16    15    17    1
   17    15    18    1
   18    18    19    1
   19    18    20    2
@<TRIPOS>SUBSTRUCTURE
       1 MOL1            1 RESIDUE      1      MOL     
@<SCITEGIC>MOL_PROPERTY
VConf Rank
SciTegic.value.IntegerValue
346

@<SCITEGIC>MOL_PROPERTY
Conf_Id
SciTegic.value.IntegerValue
54

@<SCITEGIC>MOL_PROPERTY
Delta U+W
SciTegic.value.DoubleValue
-0.048

@<SCITEGIC>MOL_PROPERTY
U+W
SciTegic.value.DoubleValue
-51.793

@<SCITEGIC>MOL_PROPERTY
Grad RMS
SciTegic.value.DoubleValue
0.000000

@<SCITEGIC>MOL_PROPERTY
U
SciTegic.value.DoubleValue
8.964

@<SCITEGIC>MOL_PROPERTY
W
SciTegic.value.DoubleValue
-60.756

@<SCITEGIC>MOL_PROPERTY
W(PB)
SciTegic.value.DoubleValue
-63.007

@<SCITEGIC>MOL_PROPERTY
W(SA)
SciTegic.value.DoubleValue
2.251

@<SCITEGIC>MOL_PROPERTY
Valence
SciTegic.value.DoubleValue
9.327

@<SCITEGIC>MOL_PROPERTY
Coulomb
SciTegic.value.DoubleValue
-0.780

@<SCITEGIC>MOL_PROPERTY
VdW
SciTegic.value.DoubleValue
0.417

@<SCITEGIC>MOL_PROPERTY
VdW6
SciTegic.value.DoubleValue
-6.635

@<SCITEGIC>MOL_PROPERTY
VdW12
SciTegic.value.DoubleValue
7.052

@<SCITEGIC>MOL_PROPERTY
Bond
SciTegic.value.DoubleValue
0.105

@<SCITEGIC>MOL_PROPERTY
Angle
SciTegic.value.DoubleValue
2.399

@<SCITEGIC>MOL_PROPERTY
Pdih
SciTegic.value.DoubleValue
6.822

@<SCITEGIC>MOL_PROPERTY
Idih
SciTegic.value.DoubleValue
0.000

@<SCITEGIC>MOL_PROPERTY
Tether
SciTegic.value.DoubleValue
0.000

@<TRIPOS>MOLECULE
guest-s22_confgen4.mol2 : confsearch ligand conformer 347
          20          19           1
SMALL
USER_CHARGES
 
@<TRIPOS>ATOM
       1    C1      19.711086   21.080987   19.272709 C.2        1 MOL1        -0.2535
       2    H1      19.856256   22.149764   19.124963 H          1 MOL1         0.0845
       3    H2      20.101912   20.411638   18.508029 H          1 MOL1         0.0845
       4    C2      19.080243   20.612965   20.352831 C.2        1 MOL1        -0.1324
       5    H3      18.693722   21.300667   21.104443 H          1 MOL1         0.0833
       6    C3      18.836091   19.143196   20.621188 C.3        1 MOL1        -0.1813
       7    H4      18.918883   18.577229   19.683447 H          1 MOL1         0.0753
       8    H5      17.809131   18.993674   20.980413 H          1 MOL1         0.0753
       9    C4      19.836361   18.556651   21.642769 C.3        1 MOL1        -0.1855
      10    H6      19.695149   17.468047   21.687290 H          1 MOL1         0.0755
      11    H7      20.862326   18.724543   21.287318 H          1 MOL1         0.0755
      12    C5      19.668508   19.153679   23.060333 C.3        1 MOL1        -0.1855
      13    H8      18.638420   18.998808   23.410148 H          1 MOL1         0.0755
      14    H9      19.829994   20.239029   23.022492 H          1 MOL1         0.0755
      15    C6      20.656995   18.540135   24.085827 C.3        1 MOL1        -0.1958
      16    H10     21.689042   18.657232   23.733693 H          1 MOL1         0.0753
      17    H11     20.582316   19.082103   25.035906 H          1 MOL1         0.0753
      18    C7      20.407526   17.064084   24.382261 C.2        1 MOL1         0.6174
      19    O1      21.160753   16.243599   23.895945 O.co2      1 MOL1        -0.6695
      20    O2      19.471486   16.774934   25.101524 O.co2      1 MOL1        -0.6695
@<TRIPOS>BOND
    1     1     2    1
    2     1     3    1
    3     1     4    2
    4     4     5    1
    5     4     6    1
    6     6     7    1
    7     6     8    1
    8     6     9    1
    9     9    10    1
   10     9    11    1
   11     9    12    1
   12    12    13    1
   13    12    14    1
   14    12    15    1
   15    15    16    1
   16    15    17    1
   17    15    18    1
   18    18    19    1
   19    18    20    2
@<TRIPOS>SUBSTRUCTURE
       1 MOL1            1 RESIDUE      1      MOL     
@<SCITEGIC>MOL_PROPERTY
VConf Rank
SciTegic.value.IntegerValue
347

@<SCITEGIC>MOL_PROPERTY
Conf_Id
SciTegic.value.IntegerValue
27

@<SCITEGIC>MOL_PROPERTY
Delta U+W
SciTegic.value.DoubleValue
0.478

@<SCITEGIC>MOL_PROPERTY
U+W
SciTegic.value.DoubleValue
-51.267

@<SCITEGIC>MOL_PROPERTY
Grad RMS
SciTegic.value.DoubleValue
0.000000

@<SCITEGIC>MOL_PROPERTY
U
SciTegic.value.DoubleValue
9.192

@<SCITEGIC>MOL_PROPERTY
W
SciTegic.value.DoubleValue
-60.459

@<SCITEGIC>MOL_PROPERTY
W(PB)
SciTegic.value.DoubleValue
-62.649

@<SCITEGIC>MOL_PROPERTY
W(SA)
SciTegic.value.DoubleValue
2.190

@<SCITEGIC>MOL_PROPERTY
Valence
SciTegic.value.DoubleValue
9.572

@<SCITEGIC>MOL_PROPERTY
Coulomb
SciTegic.value.DoubleValue
-0.884

@<SCITEGIC>MOL_PROPERTY
VdW
SciTegic.value.DoubleValue
0.504

@<SCITEGIC>MOL_PROPERTY
VdW6
SciTegic.value.DoubleValue
-7.168

@<SCITEGIC>MOL_PROPERTY
VdW12
SciTegic.value.DoubleValue
7.672

@<SCITEGIC>MOL_PROPERTY
Bond
SciTegic.value.DoubleValue
0.127

@<SCITEGIC>MOL_PROPERTY
Angle
SciTegic.value.DoubleValue
2.504

@<SCITEGIC>MOL_PROPERTY
Pdih
SciTegic.value.DoubleValue
6.941

@<SCITEGIC>MOL_PROPERTY
Idih
SciTegic.value.DoubleValue
0.001

@<SCITEGIC>MOL_PROPERTY
Tether
SciTegic.value.DoubleValue
0.000

@<TRIPOS>MOLECULE
guest-s22_confgen4.mol2 : confsearch ligand conformer 348
          20          19           1
SMALL
USER_CHARGES
 
@<TRIPOS>ATOM
       1    C1      20.944944   21.353157   20.152732 C.2        1 MOL1        -0.2535
       2    H1      20.137196   22.068852   20.008409 H          1 MOL1         0.0845
       3    H2      21.717641   21.308459   19.387134 H          1 MOL1         0.0845
       4    C2      20.988131   20.557018   21.224168 C.2        1 MOL1        -0.1324
       5    H3      21.807419   19.849853   21.350572 H          1 MOL1         0.0833
       6    C3      19.954539   20.567780   22.330229 C.3        1 MOL1        -0.1813
       7    H4      19.397124   21.513983   22.306908 H          1 MOL1         0.0753
       8    H5      20.452665   20.528724   23.308189 H          1 MOL1         0.0753
       9    C4      18.951058   19.398864   22.208896 C.3        1 MOL1        -0.1855
      10    H6      18.155772   19.536791   22.954132 H          1 MOL1         0.0755
      11    H7      18.467602   19.434036   21.222823 H          1 MOL1         0.0755
      12    C5      19.610098   18.016464   22.420261 C.3        1 MOL1        -0.1855
      13    H8      20.115177   17.991864   23.395786 H          1 MOL1         0.0755
      14    H9      20.381730   17.848132   21.656762 H          1 MOL1         0.0755
      15    C6      18.573146   16.868356   22.352153 C.3        1 MOL1        -0.1958
      16    H10     17.801455   17.008439   23.118577 H          1 MOL1         0.0753
      17    H11     18.068180   16.871948   21.378703 H          1 MOL1         0.0753
      18    C7      19.198684   15.493200   22.556347 C.2        1 MOL1         0.6174
      19    O1      19.595960   14.892472   21.577593 O.co2      1 MOL1        -0.6695
      20    O2      19.288145   15.066590   23.690675 O.co2      1 MOL1        -0.6695
@<TRIPOS>BOND
    1     1     2    1
    2     1     3    1
    3     1     4    2
    4     4     5    1
    5     4     6    1
    6     6     7    1
    7     6     8    1
    8     6     9    1
    9     9    10    1
   10     9    11    1
   11     9    12    1
   12    12    13    1
   13    12    14    1
   14    12    15    1
   15    15    16    1
   16    15    17    1
   17    15    18    1
   18    18    19    1
   19    18    20    2
@<TRIPOS>SUBSTRUCTURE
       1 MOL1            1 RESIDUE      1      MOL     
@<SCITEGIC>MOL_PROPERTY
VConf Rank
SciTegic.value.IntegerValue
348

@<SCITEGIC>MOL_PROPERTY
Conf_Id
SciTegic.value.IntegerValue
41

@<SCITEGIC>MOL_PROPERTY
Delta U+W
SciTegic.value.DoubleValue
-0.634

@<SCITEGIC>MOL_PROPERTY
U+W
SciTegic.value.DoubleValue
-52.379

@<SCITEGIC>MOL_PROPERTY
Grad RMS
SciTegic.value.DoubleValue
0.000000

@<SCITEGIC>MOL_PROPERTY
U
SciTegic.value.DoubleValue
7.828

@<SCITEGIC>MOL_PROPERTY
W
SciTegic.value.DoubleValue
-60.207

@<SCITEGIC>MOL_PROPERTY
W(PB)
SciTegic.value.DoubleValue
-62.449

@<SCITEGIC>MOL_PROPERTY
W(SA)
SciTegic.value.DoubleValue
2.242

@<SCITEGIC>MOL_PROPERTY
Valence
SciTegic.value.DoubleValue
9.300

@<SCITEGIC>MOL_PROPERTY
Coulomb
SciTegic.value.DoubleValue
-2.080

@<SCITEGIC>MOL_PROPERTY
VdW
SciTegic.value.DoubleValue
0.608

@<SCITEGIC>MOL_PROPERTY
VdW6
SciTegic.value.DoubleValue
-6.341

@<SCITEGIC>MOL_PROPERTY
VdW12
SciTegic.value.DoubleValue
6.949

@<SCITEGIC>MOL_PROPERTY
Bond
SciTegic.value.DoubleValue
0.103

@<SCITEGIC>MOL_PROPERTY
Angle
SciTegic.value.DoubleValue
2.334

@<SCITEGIC>MOL_PROPERTY
Pdih
SciTegic.value.DoubleValue
6.862

@<SCITEGIC>MOL_PROPERTY
Idih
SciTegic.value.DoubleValue
0.001

@<SCITEGIC>MOL_PROPERTY
Tether
SciTegic.value.DoubleValue
0.000

@<TRIPOS>MOLECULE
guest-s22_confgen4.mol2 : confsearch ligand conformer 349
          20          19           1
SMALL
USER_CHARGES
 
@<TRIPOS>ATOM
       1    C1      22.773536   20.714777   21.207381 C.2        1 MOL1        -0.2535
       2    H1      23.214271   21.405190   20.490219 H          1 MOL1         0.0845
       3    H2      23.250634   20.633229   22.182717 H          1 MOL1         0.0845
       4    C2      21.688603   19.999337   20.899516 C.2        1 MOL1        -0.1324
       5    H3      21.225475   20.095917   19.917757 H          1 MOL1         0.0833
       6    C3      21.022115   19.021476   21.841418 C.3        1 MOL1        -0.1813
       7    H4      21.685219   18.796380   22.687585 H          1 MOL1         0.0753
       8    H5      20.846838   18.075637   21.312625 H          1 MOL1         0.0753
       9    C4      19.683874   19.584549   22.369847 C.3        1 MOL1        -0.1855
      10    H6      19.864358   20.576480   22.806491 H          1 MOL1         0.0755
      11    H7      18.992894   19.738703   21.529584 H          1 MOL1         0.0755
      12    C5      19.015667   18.688486   23.441649 C.3        1 MOL1        -0.1855
      13    H8      18.116582   19.196684   23.816840 H          1 MOL1         0.0755
      14    H9      19.692259   18.586555   24.300858 H          1 MOL1         0.0755
      15    C6      18.615497   17.274689   22.938200 C.3        1 MOL1        -0.1958
      16    H10     19.501019   16.710120   22.624961 H          1 MOL1         0.0753
      17    H11     18.163889   16.710475   23.762468 H          1 MOL1         0.0753
      18    C7      17.610222   17.283631   21.790124 C.2        1 MOL1         0.6174
      19    O1      16.461716   17.595362   22.037435 O.co2      1 MOL1        -0.6695
      20    O2      17.996534   16.961898   20.683686 O.co2      1 MOL1        -0.6695
@<TRIPOS>BOND
    1     1     2    1
    2     1     3    1
    3     1     4    2
    4     4     5    1
    5     4     6    1
    6     6     7    1
    7     6     8    1
    8     6     9    1
    9     9    10    1
   10     9    11    1
   11     9    12    1
   12    12    13    1
   13    12    14    1
   14    12    15    1
   15    15    16    1
   16    15    17    1
   17    15    18    1
   18    18    19    1
   19    18    20    2
@<TRIPOS>SUBSTRUCTURE
       1 MOL1            1 RESIDUE      1      MOL     
@<SCITEGIC>MOL_PROPERTY
VConf Rank
SciTegic.value.IntegerValue
349

@<SCITEGIC>MOL_PROPERTY
Conf_Id
SciTegic.value.IntegerValue
84

@<SCITEGIC>MOL_PROPERTY
Delta U+W
SciTegic.value.DoubleValue
0.942

@<SCITEGIC>MOL_PROPERTY
U+W
SciTegic.value.DoubleValue
-50.803

@<SCITEGIC>MOL_PROPERTY
Grad RMS
SciTegic.value.DoubleValue
0.000000

@<SCITEGIC>MOL_PROPERTY
U
SciTegic.value.DoubleValue
10.196

@<SCITEGIC>MOL_PROPERTY
W
SciTegic.value.DoubleValue
-60.999

@<SCITEGIC>MOL_PROPERTY
W(PB)
SciTegic.value.DoubleValue
-63.182

@<SCITEGIC>MOL_PROPERTY
W(SA)
SciTegic.value.DoubleValue
2.182

@<SCITEGIC>MOL_PROPERTY
Valence
SciTegic.value.DoubleValue
9.837

@<SCITEGIC>MOL_PROPERTY
Coulomb
SciTegic.value.DoubleValue
0.032

@<SCITEGIC>MOL_PROPERTY
VdW
SciTegic.value.DoubleValue
0.328

@<SCITEGIC>MOL_PROPERTY
VdW6
SciTegic.value.DoubleValue
-7.642

@<SCITEGIC>MOL_PROPERTY
VdW12
SciTegic.value.DoubleValue
7.969

@<SCITEGIC>MOL_PROPERTY
Bond
SciTegic.value.DoubleValue
0.151

@<SCITEGIC>MOL_PROPERTY
Angle
SciTegic.value.DoubleValue
2.748

@<SCITEGIC>MOL_PROPERTY
Pdih
SciTegic.value.DoubleValue
6.937

@<SCITEGIC>MOL_PROPERTY
Idih
SciTegic.value.DoubleValue
0.001

@<SCITEGIC>MOL_PROPERTY
Tether
SciTegic.value.DoubleValue
0.000

@<TRIPOS>MOLECULE
guest-s22_confgen4.mol2 : confsearch ligand conformer 350
          20          19           1
SMALL
USER_CHARGES
 
@<TRIPOS>ATOM
       1    C1      20.984703   16.033747   22.164354 C.2        1 MOL1        -0.2535
       2    H1      21.585533   15.324835   22.731548 H          1 MOL1         0.0845
       3    H2      20.047556   15.672454   21.743871 H          1 MOL1         0.0845
       4    C2      21.384053   17.296943   21.995485 C.2        1 MOL1        -0.1324
       5    H3      22.325282   17.638779   22.425451 H          1 MOL1         0.0833
       6    C3      20.604513   18.336152   21.220870 C.3        1 MOL1        -0.1813
       7    H4      19.822597   17.854055   20.618394 H          1 MOL1         0.0753
       8    H5      21.274359   18.848888   20.517670 H          1 MOL1         0.0753
       9    C4      19.958967   19.369165   22.168085 C.3        1 MOL1        -0.1855
      10    H6      19.295326   18.848735   22.872650 H          1 MOL1         0.0755
      11    H7      20.740825   19.854683   22.768101 H          1 MOL1         0.0755
      12    C5      19.160985   20.440819   21.391479 C.3        1 MOL1        -0.1855
      13    H8      18.368784   19.959741   20.800977 H          1 MOL1         0.0755
      14    H9      19.827843   20.941978   20.676839 H          1 MOL1         0.0755
      15    C6      18.530389   21.507262   22.324182 C.3        1 MOL1        -0.1958
      16    H10     19.305982   21.978055   22.940350 H          1 MOL1         0.0753
      17    H11     18.079325   22.302565   21.719195 H          1 MOL1         0.0753
      18    C7      17.442172   20.961069   23.244155 C.2        1 MOL1         0.6174
      19    O1      17.707818   20.802326   24.419402 O.co2      1 MOL1        -0.6695
      20    O2      16.352561   20.721160   22.762183 O.co2      1 MOL1        -0.6695
@<TRIPOS>BOND
    1     1     2    1
    2     1     3    1
    3     1     4    2
    4     4     5    1
    5     4     6    1
    6     6     7    1
    7     6     8    1
    8     6     9    1
    9     9    10    1
   10     9    11    1
   11     9    12    1
   12    12    13    1
   13    12    14    1
   14    12    15    1
   15    15    16    1
   16    15    17    1
   17    15    18    1
   18    18    19    1
   19    18    20    2
@<TRIPOS>SUBSTRUCTURE
       1 MOL1            1 RESIDUE      1      MOL     
@<SCITEGIC>MOL_PROPERTY
VConf Rank
SciTegic.value.IntegerValue
350

@<SCITEGIC>MOL_PROPERTY
Conf_Id
SciTegic.value.IntegerValue
81

@<SCITEGIC>MOL_PROPERTY
Delta U+W
SciTegic.value.DoubleValue
-0.051

@<SCITEGIC>MOL_PROPERTY
U+W
SciTegic.value.DoubleValue
-51.796

@<SCITEGIC>MOL_PROPERTY
Grad RMS
SciTegic.value.DoubleValue
0.000000

@<SCITEGIC>MOL_PROPERTY
U
SciTegic.value.DoubleValue
9.412

@<SCITEGIC>MOL_PROPERTY
W
SciTegic.value.DoubleValue
-61.209

@<SCITEGIC>MOL_PROPERTY
W(PB)
SciTegic.value.DoubleValue
-63.452

@<SCITEGIC>MOL_PROPERTY
W(SA)
SciTegic.value.DoubleValue
2.243

@<SCITEGIC>MOL_PROPERTY
Valence
SciTegic.value.DoubleValue
9.329

@<SCITEGIC>MOL_PROPERTY
Coulomb
SciTegic.value.DoubleValue
-0.323

@<SCITEGIC>MOL_PROPERTY
VdW
SciTegic.value.DoubleValue
0.406

@<SCITEGIC>MOL_PROPERTY
VdW6
SciTegic.value.DoubleValue
-6.640

@<SCITEGIC>MOL_PROPERTY
VdW12
SciTegic.value.DoubleValue
7.046

@<SCITEGIC>MOL_PROPERTY
Bond
SciTegic.value.DoubleValue
0.105

@<SCITEGIC>MOL_PROPERTY
Angle
SciTegic.value.DoubleValue
2.401

@<SCITEGIC>MOL_PROPERTY
Pdih
SciTegic.value.DoubleValue
6.823

@<SCITEGIC>MOL_PROPERTY
Idih
SciTegic.value.DoubleValue
0.000

@<SCITEGIC>MOL_PROPERTY
Tether
SciTegic.value.DoubleValue
0.000

@<TRIPOS>MOLECULE
guest-s22_confgen4.mol2 : confsearch ligand conformer 351
          20          19           1
SMALL
USER_CHARGES
 
@<TRIPOS>ATOM
       1    C1      22.358149   17.314131   22.176038 C.2        1 MOL1        -0.2535
       2    H1      22.369644   16.812316   23.142221 H          1 MOL1         0.0845
       3    H2      23.040406   16.945834   21.411821 H          1 MOL1         0.0845
       4    C2      21.538390   18.340066   21.932874 C.2        1 MOL1        -0.1324
       5    H3      21.544310   18.830017   20.959664 H          1 MOL1         0.0833
       6    C3      20.568337   18.909236   22.946072 C.3        1 MOL1        -0.1813
       7    H4      20.614925   20.005906   22.937368 H          1 MOL1         0.0753
       8    H5      20.868937   18.605223   23.957720 H          1 MOL1         0.0753
       9    C4      19.114878   18.436869   22.703099 C.3        1 MOL1        -0.1855
      10    H6      19.077156   17.343478   22.802639 H          1 MOL1         0.0755
      11    H7      18.472714   18.837097   23.499601 H          1 MOL1         0.0755
      12    C5      18.526319   18.833278   21.324496 C.3        1 MOL1        -0.1855
      13    H8      17.508162   18.427669   21.246909 H          1 MOL1         0.0755
      14    H9      19.106368   18.351552   20.526261 H          1 MOL1         0.0755
      15    C6      18.473657   20.363509   21.064094 C.3        1 MOL1        -0.1958
      16    H10     19.483409   20.789442   21.059302 H          1 MOL1         0.0753
      17    H11     18.054562   20.547980   20.068134 H          1 MOL1         0.0753
      18    C7      17.621410   21.136846   22.066176 C.2        1 MOL1         0.6174
      19    O1      18.185199   21.848169   22.874413 O.co2      1 MOL1        -0.6695
      20    O2      16.413295   21.020422   22.000116 O.co2      1 MOL1        -0.6695
@<TRIPOS>BOND
    1     1     2    1
    2     1     3    1
    3     1     4    2
    4     4     5    1
    5     4     6    1
    6     6     7    1
    7     6     8    1
    8     6     9    1
    9     9    10    1
   10     9    11    1
   11     9    12    1
   12    12    13    1
   13    12    14    1
   14    12    15    1
   15    15    16    1
   16    15    17    1
   17    15    18    1
   18    18    19    1
   19    18    20    2
@<TRIPOS>SUBSTRUCTURE
       1 MOL1            1 RESIDUE      1      MOL     
@<SCITEGIC>MOL_PROPERTY
VConf Rank
SciTegic.value.IntegerValue
351

@<SCITEGIC>MOL_PROPERTY
Conf_Id
SciTegic.value.IntegerValue
86

@<SCITEGIC>MOL_PROPERTY
Delta U+W
SciTegic.value.DoubleValue
1.248

@<SCITEGIC>MOL_PROPERTY
U+W
SciTegic.value.DoubleValue
-50.498

@<SCITEGIC>MOL_PROPERTY
Grad RMS
SciTegic.value.DoubleValue
0.000000

@<SCITEGIC>MOL_PROPERTY
U
SciTegic.value.DoubleValue
10.404

@<SCITEGIC>MOL_PROPERTY
W
SciTegic.value.DoubleValue
-60.901

@<SCITEGIC>MOL_PROPERTY
W(PB)
SciTegic.value.DoubleValue
-63.061

@<SCITEGIC>MOL_PROPERTY
W(SA)
SciTegic.value.DoubleValue
2.159

@<SCITEGIC>MOL_PROPERTY
Valence
SciTegic.value.DoubleValue
10.021

@<SCITEGIC>MOL_PROPERTY
Coulomb
SciTegic.value.DoubleValue
0.094

@<SCITEGIC>MOL_PROPERTY
VdW
SciTegic.value.DoubleValue
0.289

@<SCITEGIC>MOL_PROPERTY
VdW6
SciTegic.value.DoubleValue
-8.409

@<SCITEGIC>MOL_PROPERTY
VdW12
SciTegic.value.DoubleValue
8.698

@<SCITEGIC>MOL_PROPERTY
Bond
SciTegic.value.DoubleValue
0.179

@<SCITEGIC>MOL_PROPERTY
Angle
SciTegic.value.DoubleValue
2.939

@<SCITEGIC>MOL_PROPERTY
Pdih
SciTegic.value.DoubleValue
6.902

@<SCITEGIC>MOL_PROPERTY
Idih
SciTegic.value.DoubleValue
0.001

@<SCITEGIC>MOL_PROPERTY
Tether
SciTegic.value.DoubleValue
0.000

@<TRIPOS>MOLECULE
guest-s22_confgen4.mol2 : confsearch ligand conformer 352
          20          19           1
SMALL
USER_CHARGES
 
@<TRIPOS>ATOM
       1    C1      18.790739   21.753663   20.798481 C.2        1 MOL1        -0.2535
       2    H1      19.203846   22.642885   20.325479 H          1 MOL1         0.0845
       3    H2      18.054740   21.182306   20.235205 H          1 MOL1         0.0845
       4    C2      19.177070   21.379432   22.021070 C.2        1 MOL1        -0.1324
       5    H3      19.916828   21.964163   22.567181 H          1 MOL1         0.0833
       6    C3      18.648782   20.157453   22.741994 C.3        1 MOL1        -0.1813
       7    H4      17.774825   19.746864   22.218280 H          1 MOL1         0.0753
       8    H5      18.300611   20.452999   23.740618 H          1 MOL1         0.0753
       9    C4      19.722466   19.056552   22.894573 C.3        1 MOL1        -0.1855
      10    H6      20.598505   19.467435   23.414815 H          1 MOL1         0.0755
      11    H7      19.322077   18.260391   23.537090 H          1 MOL1         0.0755
      12    C5      20.154679   18.452100   21.537580 C.3        1 MOL1        -0.1855
      13    H8      20.561493   19.245769   20.896752 H          1 MOL1         0.0755
      14    H9      19.277656   18.044672   21.015867 H          1 MOL1         0.0755
      15    C6      21.223567   17.339361   21.693535 C.3        1 MOL1        -0.1958
      16    H10     21.581414   17.034058   20.703244 H          1 MOL1         0.0753
      17    H11     22.092878   17.723388   22.240892 H          1 MOL1         0.0753
      18    C7      20.716279   16.086340   22.401575 C.2        1 MOL1         0.6174
      19    O1      20.009372   15.321385   21.775272 O.co2      1 MOL1        -0.6695
      20    O2      21.049879   15.901942   23.555609 O.co2      1 MOL1        -0.6695
@<TRIPOS>BOND
    1     1     2    1
    2     1     3    1
    3     1     4    2
    4     4     5    1
    5     4     6    1
    6     6     7    1
    7     6     8    1
    8     6     9    1
    9     9    10    1
   10     9    11    1
   11     9    12    1
   12    12    13    1
   13    12    14    1
   14    12    15    1
   15    15    16    1
   16    15    17    1
   17    15    18    1
   18    18    19    1
   19    18    20    2
@<TRIPOS>SUBSTRUCTURE
       1 MOL1            1 RESIDUE      1      MOL     
@<SCITEGIC>MOL_PROPERTY
VConf Rank
SciTegic.value.IntegerValue
352

@<SCITEGIC>MOL_PROPERTY
Conf_Id
SciTegic.value.IntegerValue
28

@<SCITEGIC>MOL_PROPERTY
Delta U+W
SciTegic.value.DoubleValue
0.446

@<SCITEGIC>MOL_PROPERTY
U+W
SciTegic.value.DoubleValue
-51.299

@<SCITEGIC>MOL_PROPERTY
Grad RMS
SciTegic.value.DoubleValue
0.000000

@<SCITEGIC>MOL_PROPERTY
U
SciTegic.value.DoubleValue
9.295

@<SCITEGIC>MOL_PROPERTY
W
SciTegic.value.DoubleValue
-60.594

@<SCITEGIC>MOL_PROPERTY
W(PB)
SciTegic.value.DoubleValue
-62.806

@<SCITEGIC>MOL_PROPERTY
W(SA)
SciTegic.value.DoubleValue
2.212

@<SCITEGIC>MOL_PROPERTY
Valence
SciTegic.value.DoubleValue
9.495

@<SCITEGIC>MOL_PROPERTY
Coulomb
SciTegic.value.DoubleValue
-0.610

@<SCITEGIC>MOL_PROPERTY
VdW
SciTegic.value.DoubleValue
0.409

@<SCITEGIC>MOL_PROPERTY
VdW6
SciTegic.value.DoubleValue
-7.332

@<SCITEGIC>MOL_PROPERTY
VdW12
SciTegic.value.DoubleValue
7.741

@<SCITEGIC>MOL_PROPERTY
Bond
SciTegic.value.DoubleValue
0.126

@<SCITEGIC>MOL_PROPERTY
Angle
SciTegic.value.DoubleValue
2.497

@<SCITEGIC>MOL_PROPERTY
Pdih
SciTegic.value.DoubleValue
6.872

@<SCITEGIC>MOL_PROPERTY
Idih
SciTegic.value.DoubleValue
0.000

@<SCITEGIC>MOL_PROPERTY
Tether
SciTegic.value.DoubleValue
0.000

@<TRIPOS>MOLECULE
guest-s22_confgen4.mol2 : confsearch ligand conformer 353
          20          19           1
SMALL
USER_CHARGES
 
@<TRIPOS>ATOM
       1    C1      20.023747   17.861163   24.955083 C.2        1 MOL1        -0.2535
       2    H1      20.737293   17.376160   24.292423 H          1 MOL1         0.0845
       3    H2      20.067083   17.588194   26.008055 H          1 MOL1         0.0845
       4    C2      19.130412   18.755756   24.517324 C.2        1 MOL1        -0.1324
       5    H3      18.442531   19.209866   25.230166 H          1 MOL1         0.0833
       6    C3      18.948928   19.233861   23.086263 C.3        1 MOL1        -0.1813
       7    H4      19.143163   20.313649   23.054809 H          1 MOL1         0.0753
       8    H5      17.894363   19.110806   22.806080 H          1 MOL1         0.0753
       9    C4      19.835217   18.514196   22.039757 C.3        1 MOL1        -0.1855
      10    H6      20.894681   18.704854   22.259665 H          1 MOL1         0.0755
      11    H7      19.685530   17.429647   22.129426 H          1 MOL1         0.0755
      12    C5      19.524531   18.926269   20.579370 C.3        1 MOL1        -0.1855
      13    H8      18.477297   18.686658   20.350733 H          1 MOL1         0.0755
      14    H9      20.134729   18.312718   19.902154 H          1 MOL1         0.0755
      15    C6      19.784688   20.424597   20.263158 C.3        1 MOL1        -0.1958
      16    H10     19.527662   20.623925   19.216323 H          1 MOL1         0.0753
      17    H11     19.135538   21.066925   20.868895 H          1 MOL1         0.0753
      18    C7      21.232516   20.862683   20.465101 C.2        1 MOL1         0.6174
      19    O1      22.067937   20.458032   19.680384 O.co2      1 MOL1        -0.6695
      20    O2      21.483857   21.612786   21.387614 O.co2      1 MOL1        -0.6695
@<TRIPOS>BOND
    1     1     2    1
    2     1     3    1
    3     1     4    2
    4     4     5    1
    5     4     6    1
    6     6     7    1
    7     6     8    1
    8     6     9    1
    9     9    10    1
   10     9    11    1
   11     9    12    1
   12    12    13    1
   13    12    14    1
   14    12    15    1
   15    15    16    1
   16    15    17    1
   17    15    18    1
   18    18    19    1
   19    18    20    2
@<TRIPOS>SUBSTRUCTURE
       1 MOL1            1 RESIDUE      1      MOL     
@<SCITEGIC>MOL_PROPERTY
VConf Rank
SciTegic.value.IntegerValue
353

@<SCITEGIC>MOL_PROPERTY
Conf_Id
SciTegic.value.IntegerValue
53

@<SCITEGIC>MOL_PROPERTY
Delta U+W
SciTegic.value.DoubleValue
0.549

@<SCITEGIC>MOL_PROPERTY
U+W
SciTegic.value.DoubleValue
-51.197

@<SCITEGIC>MOL_PROPERTY
Grad RMS
SciTegic.value.DoubleValue
0.000000

@<SCITEGIC>MOL_PROPERTY
U
SciTegic.value.DoubleValue
10.870

@<SCITEGIC>MOL_PROPERTY
W
SciTegic.value.DoubleValue
-62.067

@<SCITEGIC>MOL_PROPERTY
W(PB)
SciTegic.value.DoubleValue
-64.228

@<SCITEGIC>MOL_PROPERTY
W(SA)
SciTegic.value.DoubleValue
2.161

@<SCITEGIC>MOL_PROPERTY
Valence
SciTegic.value.DoubleValue
8.803

@<SCITEGIC>MOL_PROPERTY
Coulomb
SciTegic.value.DoubleValue
1.020

@<SCITEGIC>MOL_PROPERTY
VdW
SciTegic.value.DoubleValue
1.048

@<SCITEGIC>MOL_PROPERTY
VdW6
SciTegic.value.DoubleValue
-8.312

@<SCITEGIC>MOL_PROPERTY
VdW12
SciTegic.value.DoubleValue
9.360

@<SCITEGIC>MOL_PROPERTY
Bond
SciTegic.value.DoubleValue
0.212

@<SCITEGIC>MOL_PROPERTY
Angle
SciTegic.value.DoubleValue
3.379

@<SCITEGIC>MOL_PROPERTY
Pdih
SciTegic.value.DoubleValue
5.211

@<SCITEGIC>MOL_PROPERTY
Idih
SciTegic.value.DoubleValue
0.001

@<SCITEGIC>MOL_PROPERTY
Tether
SciTegic.value.DoubleValue
0.000

@<TRIPOS>MOLECULE
guest-s22_confgen4.mol2 : confsearch ligand conformer 354
          20          19           1
SMALL
USER_CHARGES
 
@<TRIPOS>ATOM
       1    C1      20.780833   16.562366   20.893837 C.2        1 MOL1        -0.2535
       2    H1      21.154185   16.459706   21.910383 H          1 MOL1         0.0845
       3    H2      21.378146   16.116345   20.100611 H          1 MOL1         0.0845
       4    C2      19.638152   17.199309   20.615915 C.2        1 MOL1        -0.1324
       5    H3      19.307542   17.271240   19.580142 H          1 MOL1         0.0833
       6    C3      18.712725   17.870079   21.617684 C.3        1 MOL1        -0.1813
       7    H4      17.882991   17.187076   21.842294 H          1 MOL1         0.0753
       8    H5      18.238792   18.737557   21.140766 H          1 MOL1         0.0753
       9    C4      19.370079   18.327847   22.945881 C.3        1 MOL1        -0.1855
      10    H6      18.586145   18.725364   23.604870 H          1 MOL1         0.0755
      11    H7      19.780449   17.454765   23.469950 H          1 MOL1         0.0755
      12    C5      20.481096   19.398797   22.785996 C.3        1 MOL1        -0.1855
      13    H8      21.306089   18.988930   22.189381 H          1 MOL1         0.0755
      14    H9      20.902044   19.619135   23.776588 H          1 MOL1         0.0755
      15    C6      20.005535   20.729277   22.141026 C.3        1 MOL1        -0.1958
      16    H10     20.854237   21.418829   22.064944 H          1 MOL1         0.0753
      17    H11     19.653912   20.557539   21.117371 H          1 MOL1         0.0753
      18    C7      18.907657   21.444652   22.922900 C.2        1 MOL1         0.6174
      19    O1      17.783801   21.455133   22.460305 O.co2      1 MOL1        -0.6695
      20    O2      19.210156   21.988840   23.966865 O.co2      1 MOL1        -0.6695
@<TRIPOS>BOND
    1     1     2    1
    2     1     3    1
    3     1     4    2
    4     4     5    1
    5     4     6    1
    6     6     7    1
    7     6     8    1
    8     6     9    1
    9     9    10    1
   10     9    11    1
   11     9    12    1
   12    12    13    1
   13    12    14    1
   14    12    15    1
   15    15    16    1
   16    15    17    1
   17    15    18    1
   18    18    19    1
   19    18    20    2
@<TRIPOS>SUBSTRUCTURE
       1 MOL1            1 RESIDUE      1      MOL     
@<SCITEGIC>MOL_PROPERTY
VConf Rank
SciTegic.value.IntegerValue
354

@<SCITEGIC>MOL_PROPERTY
Conf_Id
SciTegic.value.IntegerValue
66

@<SCITEGIC>MOL_PROPERTY
Delta U+W
SciTegic.value.DoubleValue
1.737

@<SCITEGIC>MOL_PROPERTY
U+W
SciTegic.value.DoubleValue
-50.008

@<SCITEGIC>MOL_PROPERTY
Grad RMS
SciTegic.value.DoubleValue
0.000000

@<SCITEGIC>MOL_PROPERTY
U
SciTegic.value.DoubleValue
11.091

@<SCITEGIC>MOL_PROPERTY
W
SciTegic.value.DoubleValue
-61.099

@<SCITEGIC>MOL_PROPERTY
W(PB)
SciTegic.value.DoubleValue
-63.213

@<SCITEGIC>MOL_PROPERTY
W(SA)
SciTegic.value.DoubleValue
2.114

@<SCITEGIC>MOL_PROPERTY
Valence
SciTegic.value.DoubleValue
9.664

@<SCITEGIC>MOL_PROPERTY
Coulomb
SciTegic.value.DoubleValue
0.658

@<SCITEGIC>MOL_PROPERTY
VdW
SciTegic.value.DoubleValue
0.769

@<SCITEGIC>MOL_PROPERTY
VdW6
SciTegic.value.DoubleValue
-9.171

@<SCITEGIC>MOL_PROPERTY
VdW12
SciTegic.value.DoubleValue
9.940

@<SCITEGIC>MOL_PROPERTY
Bond
SciTegic.value.DoubleValue
0.244

@<SCITEGIC>MOL_PROPERTY
Angle
SciTegic.value.DoubleValue
3.658

@<SCITEGIC>MOL_PROPERTY
Pdih
SciTegic.value.DoubleValue
5.762

@<SCITEGIC>MOL_PROPERTY
Idih
SciTegic.value.DoubleValue
0.001

@<SCITEGIC>MOL_PROPERTY
Tether
SciTegic.value.DoubleValue
0.000

@<TRIPOS>MOLECULE
guest-s22_confgen4.mol2 : confsearch ligand conformer 355
          20          19           1
SMALL
USER_CHARGES
 
@<TRIPOS>ATOM
       1    C1      20.176421   16.413974   22.124937 C.2        1 MOL1        -0.2535
       2    H1      19.116918   16.382327   21.880734 H          1 MOL1         0.0845
       3    H2      20.802881   15.627702   21.707492 H          1 MOL1         0.0845
       4    C2      20.700279   17.365287   22.905615 C.2        1 MOL1        -0.1324
       5    H3      21.768478   17.347604   23.120038 H          1 MOL1         0.0833
       6    C3      19.951717   18.521222   23.549096 C.3        1 MOL1        -0.1813
       7    H4      20.611803   19.396895   23.582755 H          1 MOL1         0.0753
       8    H5      19.761920   18.272684   24.601611 H          1 MOL1         0.0753
       9    C4      18.614969   18.923973   22.872920 C.3        1 MOL1        -0.1855
      10    H6      17.926850   18.068535   22.887443 H          1 MOL1         0.0755
      11    H7      18.133369   19.701496   23.481318 H          1 MOL1         0.0755
      12    C5      18.755288   19.446386   21.420303 C.3        1 MOL1        -0.1855
      13    H8      17.749926   19.619486   21.012303 H          1 MOL1         0.0755
      14    H9      19.217010   18.679931   20.783940 H          1 MOL1         0.0755
      15    C6      19.568993   20.761976   21.310652 C.3        1 MOL1        -0.1958
      16    H10     19.150587   21.523573   21.979275 H          1 MOL1         0.0753
      17    H11     20.609231   20.597162   21.613282 H          1 MOL1         0.0753
      18    C7      19.581585   21.331329   19.896466 C.2        1 MOL1         0.6174
      19    O1      20.483424   21.001537   19.151701 O.co2      1 MOL1        -0.6695
      20    O2      18.680449   22.079301   19.571774 O.co2      1 MOL1        -0.6695
@<TRIPOS>BOND
    1     1     2    1
    2     1     3    1
    3     1     4    2
    4     4     5    1
    5     4     6    1
    6     6     7    1
    7     6     8    1
    8     6     9    1
    9     9    10    1
   10     9    11    1
   11     9    12    1
   12    12    13    1
   13    12    14    1
   14    12    15    1
   15    15    16    1
   16    15    17    1
   17    15    18    1
   18    18    19    1
   19    18    20    2
@<TRIPOS>SUBSTRUCTURE
       1 MOL1            1 RESIDUE      1      MOL     
@<SCITEGIC>MOL_PROPERTY
VConf Rank
SciTegic.value.IntegerValue
355

@<SCITEGIC>MOL_PROPERTY
Conf_Id
SciTegic.value.IntegerValue
64

@<SCITEGIC>MOL_PROPERTY
Delta U+W
SciTegic.value.DoubleValue
0.366

@<SCITEGIC>MOL_PROPERTY
U+W
SciTegic.value.DoubleValue
-51.379

@<SCITEGIC>MOL_PROPERTY
Grad RMS
SciTegic.value.DoubleValue
0.000000

@<SCITEGIC>MOL_PROPERTY
U
SciTegic.value.DoubleValue
10.000

@<SCITEGIC>MOL_PROPERTY
W
SciTegic.value.DoubleValue
-61.379

@<SCITEGIC>MOL_PROPERTY
W(PB)
SciTegic.value.DoubleValue
-63.541

@<SCITEGIC>MOL_PROPERTY
W(SA)
SciTegic.value.DoubleValue
2.162

@<SCITEGIC>MOL_PROPERTY
Valence
SciTegic.value.DoubleValue
9.398

@<SCITEGIC>MOL_PROPERTY
Coulomb
SciTegic.value.DoubleValue
-0.504

@<SCITEGIC>MOL_PROPERTY
VdW
SciTegic.value.DoubleValue
1.105

@<SCITEGIC>MOL_PROPERTY
VdW6
SciTegic.value.DoubleValue
-7.975

@<SCITEGIC>MOL_PROPERTY
VdW12
SciTegic.value.DoubleValue
9.080

@<SCITEGIC>MOL_PROPERTY
Bond
SciTegic.value.DoubleValue
0.216

@<SCITEGIC>MOL_PROPERTY
Angle
SciTegic.value.DoubleValue
3.417

@<SCITEGIC>MOL_PROPERTY
Pdih
SciTegic.value.DoubleValue
5.765

@<SCITEGIC>MOL_PROPERTY
Idih
SciTegic.value.DoubleValue
0.001

@<SCITEGIC>MOL_PROPERTY
Tether
SciTegic.value.DoubleValue
0.000

@<TRIPOS>MOLECULE
guest-s22_confgen4.mol2 : confsearch ligand conformer 356
          20          19           1
SMALL
USER_CHARGES
 
@<TRIPOS>ATOM
       1    C1      21.189526   20.752083   24.151330 C.2        1 MOL1        -0.2535
       2    H1      20.229095   21.249359   24.276660 H          1 MOL1         0.0845
       3    H2      22.084493   21.369411   24.206498 H          1 MOL1         0.0845
       4    C2      21.270599   19.436692   23.934102 C.2        1 MOL1        -0.1324
       5    H3      22.241830   18.958765   23.808851 H          1 MOL1         0.0833
       6    C3      20.072773   18.515228   23.844136 C.3        1 MOL1        -0.1813
       7    H4      19.162580   19.030344   24.180110 H          1 MOL1         0.0753
       8    H5      20.219476   17.668439   24.527709 H          1 MOL1         0.0753
       9    C4      19.859032   17.970191   22.414035 C.3        1 MOL1        -0.1855
      10    H6      20.769669   17.455602   22.077848 H          1 MOL1         0.0755
      11    H7      19.061518   17.215017   22.437817 H          1 MOL1         0.0755
      12    C5      19.480125   19.077571   21.404221 C.3        1 MOL1        -0.1855
      13    H8      20.282739   19.826060   21.351256 H          1 MOL1         0.0755
      14    H9      18.579073   19.602065   21.751062 H          1 MOL1         0.0755
      15    C6      19.226108   18.504078   19.988382 C.3        1 MOL1        -0.1958
      16    H10     20.121955   17.987727   19.623103 H          1 MOL1         0.0753
      17    H11     18.415559   17.766103   20.018195 H          1 MOL1         0.0753
      18    C7      18.850799   19.577928   18.973452 C.2        1 MOL1         0.6174
      19    O1      17.676983   19.868835   18.853956 O.co2      1 MOL1        -0.6695
      20    O2      19.743195   20.105118   18.339110 O.co2      1 MOL1        -0.6695
@<TRIPOS>BOND
    1     1     2    1
    2     1     3    1
    3     1     4    2
    4     4     5    1
    5     4     6    1
    6     6     7    1
    7     6     8    1
    8     6     9    1
    9     9    10    1
   10     9    11    1
   11     9    12    1
   12    12    13    1
   13    12    14    1
   14    12    15    1
   15    15    16    1
   16    15    17    1
   17    15    18    1
   18    18    19    1
   19    18    20    2
@<TRIPOS>SUBSTRUCTURE
       1 MOL1            1 RESIDUE      1      MOL     
@<SCITEGIC>MOL_PROPERTY
VConf Rank
SciTegic.value.IntegerValue
356

@<SCITEGIC>MOL_PROPERTY
Conf_Id
SciTegic.value.IntegerValue
42

@<SCITEGIC>MOL_PROPERTY
Delta U+W
SciTegic.value.DoubleValue
-0.601

@<SCITEGIC>MOL_PROPERTY
U+W
SciTegic.value.DoubleValue
-52.347

@<SCITEGIC>MOL_PROPERTY
Grad RMS
SciTegic.value.DoubleValue
0.000000

@<SCITEGIC>MOL_PROPERTY
U
SciTegic.value.DoubleValue
8.428

@<SCITEGIC>MOL_PROPERTY
W
SciTegic.value.DoubleValue
-60.774

@<SCITEGIC>MOL_PROPERTY
W(PB)
SciTegic.value.DoubleValue
-62.982

@<SCITEGIC>MOL_PROPERTY
W(SA)
SciTegic.value.DoubleValue
2.208

@<SCITEGIC>MOL_PROPERTY
Valence
SciTegic.value.DoubleValue
9.231

@<SCITEGIC>MOL_PROPERTY
Coulomb
SciTegic.value.DoubleValue
-1.304

@<SCITEGIC>MOL_PROPERTY
VdW
SciTegic.value.DoubleValue
0.501

@<SCITEGIC>MOL_PROPERTY
VdW6
SciTegic.value.DoubleValue
-6.515

@<SCITEGIC>MOL_PROPERTY
VdW12
SciTegic.value.DoubleValue
7.016

@<SCITEGIC>MOL_PROPERTY
Bond
SciTegic.value.DoubleValue
0.103

@<SCITEGIC>MOL_PROPERTY
Angle
SciTegic.value.DoubleValue
2.328

@<SCITEGIC>MOL_PROPERTY
Pdih
SciTegic.value.DoubleValue
6.799

@<SCITEGIC>MOL_PROPERTY
Idih
SciTegic.value.DoubleValue
0.000

@<SCITEGIC>MOL_PROPERTY
Tether
SciTegic.value.DoubleValue
0.000

@<TRIPOS>MOLECULE
guest-s22_confgen4.mol2 : confsearch ligand conformer 357
          20          19           1
SMALL
USER_CHARGES
 
@<TRIPOS>ATOM
       1    C1      17.676560   21.377934   22.790774 C.2        1 MOL1        -0.2535
       2    H1      16.960190   21.073121   22.029656 H          1 MOL1         0.0845
       3    H2      17.781360   22.444504   22.981926 H          1 MOL1         0.0845
       4    C2      18.403396   20.481515   23.463207 C.2        1 MOL1        -0.1324
       5    H3      19.117164   20.807753   24.219191 H          1 MOL1         0.0833
       6    C3      18.314144   18.985076   23.252004 C.3        1 MOL1        -0.1813
       7    H4      17.446656   18.733777   22.626766 H          1 MOL1         0.0753
       8    H5      18.149937   18.495070   24.220890 H          1 MOL1         0.0753
       9    C4      19.596479   18.406742   22.612390 C.3        1 MOL1        -0.1855
      10    H6      20.461928   18.653436   23.242849 H          1 MOL1         0.0755
      11    H7      19.522942   17.310795   22.597080 H          1 MOL1         0.0755
      12    C5      19.829058   18.920935   21.171979 C.3        1 MOL1        -0.1855
      13    H8      19.946412   20.013431   21.177760 H          1 MOL1         0.0755
      14    H9      18.941980   18.702638   20.562333 H          1 MOL1         0.0755
      15    C6      21.071580   18.277919   20.503030 C.3        1 MOL1        -0.1958
      16    H10     20.982858   17.184844   20.509572 H          1 MOL1         0.0753
      17    H11     21.122244   18.586007   19.452076 H          1 MOL1         0.0753
      18    C7      22.395824   18.662668   21.156602 C.2        1 MOL1         0.6174
      19    O1      22.936920   17.851583   21.882220 O.co2      1 MOL1        -0.6695
      20    O2      22.860338   19.757805   20.907609 O.co2      1 MOL1        -0.6695
@<TRIPOS>BOND
    1     1     2    1
    2     1     3    1
    3     1     4    2
    4     4     5    1
    5     4     6    1
    6     6     7    1
    7     6     8    1
    8     6     9    1
    9     9    10    1
   10     9    11    1
   11     9    12    1
   12    12    13    1
   13    12    14    1
   14    12    15    1
   15    15    16    1
   16    15    17    1
   17    15    18    1
   18    18    19    1
   19    18    20    2
@<TRIPOS>SUBSTRUCTURE
       1 MOL1            1 RESIDUE      1      MOL     
@<SCITEGIC>MOL_PROPERTY
VConf Rank
SciTegic.value.IntegerValue
357

@<SCITEGIC>MOL_PROPERTY
Conf_Id
SciTegic.value.IntegerValue
68

@<SCITEGIC>MOL_PROPERTY
Delta U+W
SciTegic.value.DoubleValue
0.492

@<SCITEGIC>MOL_PROPERTY
U+W
SciTegic.value.DoubleValue
-51.253

@<SCITEGIC>MOL_PROPERTY
Grad RMS
SciTegic.value.DoubleValue
0.000000

@<SCITEGIC>MOL_PROPERTY
U
SciTegic.value.DoubleValue
10.179

@<SCITEGIC>MOL_PROPERTY
W
SciTegic.value.DoubleValue
-61.432

@<SCITEGIC>MOL_PROPERTY
W(PB)
SciTegic.value.DoubleValue
-63.627

@<SCITEGIC>MOL_PROPERTY
W(SA)
SciTegic.value.DoubleValue
2.195

@<SCITEGIC>MOL_PROPERTY
Valence
SciTegic.value.DoubleValue
9.483

@<SCITEGIC>MOL_PROPERTY
Coulomb
SciTegic.value.DoubleValue
0.361

@<SCITEGIC>MOL_PROPERTY
VdW
SciTegic.value.DoubleValue
0.335

@<SCITEGIC>MOL_PROPERTY
VdW6
SciTegic.value.DoubleValue
-7.385

@<SCITEGIC>MOL_PROPERTY
VdW12
SciTegic.value.DoubleValue
7.720

@<SCITEGIC>MOL_PROPERTY
Bond
SciTegic.value.DoubleValue
0.125

@<SCITEGIC>MOL_PROPERTY
Angle
SciTegic.value.DoubleValue
2.487

@<SCITEGIC>MOL_PROPERTY
Pdih
SciTegic.value.DoubleValue
6.870

@<SCITEGIC>MOL_PROPERTY
Idih
SciTegic.value.DoubleValue
0.001

@<SCITEGIC>MOL_PROPERTY
Tether
SciTegic.value.DoubleValue
0.000

@<TRIPOS>MOLECULE
guest-s22_confgen4.mol2 : confsearch ligand conformer 358
          20          19           1
SMALL
USER_CHARGES
 
@<TRIPOS>ATOM
       1    C1      19.771924   16.672040   20.203379 C.2        1 MOL1        -0.2535
       2    H1      19.338073   17.038476   19.274408 H          1 MOL1         0.0845
       3    H2      19.611222   15.624547   20.452600 H          1 MOL1         0.0845
       4    C2      20.471642   17.473917   21.010278 C.2        1 MOL1        -0.1324
       5    H3      20.899561   17.085883   21.934162 H          1 MOL1         0.0833
       6    C3      20.740347   18.936494   20.726649 C.3        1 MOL1        -0.1813
       7    H4      20.586785   19.141061   19.658431 H          1 MOL1         0.0753
       8    H5      21.792522   19.171011   20.936233 H          1 MOL1         0.0753
       9    C4      19.823893   19.872474   21.546548 C.3        1 MOL1        -0.1855
      10    H6      19.974220   20.905134   21.203385 H          1 MOL1         0.0755
      11    H7      18.773405   19.624236   21.340507 H          1 MOL1         0.0755
      12    C5      20.095316   19.798624   23.067931 C.3        1 MOL1        -0.1855
      13    H8      21.158423   19.999915   23.256601 H          1 MOL1         0.0755
      14    H9      19.894517   18.783694   23.437271 H          1 MOL1         0.0755
      15    C6      19.240719   20.810623   23.874391 C.3        1 MOL1        -0.1958
      16    H10     19.553610   20.798842   24.925089 H          1 MOL1         0.0753
      17    H11     19.409244   21.829199   23.504440 H          1 MOL1         0.0753
      18    C7      17.742575   20.522092   23.840464 C.2        1 MOL1         0.6174
      19    O1      17.315521   19.629724   24.546446 O.co2      1 MOL1        -0.6695
      20    O2      17.039954   21.208804   23.125010 O.co2      1 MOL1        -0.6695
@<TRIPOS>BOND
    1     1     2    1
    2     1     3    1
    3     1     4    2
    4     4     5    1
    5     4     6    1
    6     6     7    1
    7     6     8    1
    8     6     9    1
    9     9    10    1
   10     9    11    1
   11     9    12    1
   12    12    13    1
   13    12    14    1
   14    12    15    1
   15    15    16    1
   16    15    17    1
   17    15    18    1
   18    18    19    1
   19    18    20    2
@<TRIPOS>SUBSTRUCTURE
       1 MOL1            1 RESIDUE      1      MOL     
@<SCITEGIC>MOL_PROPERTY
VConf Rank
SciTegic.value.IntegerValue
358

@<SCITEGIC>MOL_PROPERTY
Conf_Id
SciTegic.value.IntegerValue
87

@<SCITEGIC>MOL_PROPERTY
Delta U+W
SciTegic.value.DoubleValue
0.339

@<SCITEGIC>MOL_PROPERTY
U+W
SciTegic.value.DoubleValue
-51.407

@<SCITEGIC>MOL_PROPERTY
Grad RMS
SciTegic.value.DoubleValue
0.000000

@<SCITEGIC>MOL_PROPERTY
U
SciTegic.value.DoubleValue
10.461

@<SCITEGIC>MOL_PROPERTY
W
SciTegic.value.DoubleValue
-61.867

@<SCITEGIC>MOL_PROPERTY
W(PB)
SciTegic.value.DoubleValue
-64.045

@<SCITEGIC>MOL_PROPERTY
W(SA)
SciTegic.value.DoubleValue
2.178

@<SCITEGIC>MOL_PROPERTY
Valence
SciTegic.value.DoubleValue
9.555

@<SCITEGIC>MOL_PROPERTY
Coulomb
SciTegic.value.DoubleValue
0.483

@<SCITEGIC>MOL_PROPERTY
VdW
SciTegic.value.DoubleValue
0.423

@<SCITEGIC>MOL_PROPERTY
VdW6
SciTegic.value.DoubleValue
-7.223

@<SCITEGIC>MOL_PROPERTY
VdW12
SciTegic.value.DoubleValue
7.646

@<SCITEGIC>MOL_PROPERTY
Bond
SciTegic.value.DoubleValue
0.126

@<SCITEGIC>MOL_PROPERTY
Angle
SciTegic.value.DoubleValue
2.492

@<SCITEGIC>MOL_PROPERTY
Pdih
SciTegic.value.DoubleValue
6.936

@<SCITEGIC>MOL_PROPERTY
Idih
SciTegic.value.DoubleValue
0.001

@<SCITEGIC>MOL_PROPERTY
Tether
SciTegic.value.DoubleValue
0.000

@<TRIPOS>MOLECULE
guest-s22_confgen4.mol2 : confsearch ligand conformer 359
          20          19           1
SMALL
USER_CHARGES
 
@<TRIPOS>ATOM
       1    C1      18.126730   18.565005   19.551501 C.2        1 MOL1        -0.2535
       2    H1      17.183722   19.069190   19.756317 H          1 MOL1         0.0845
       3    H2      18.519741   18.627150   18.538239 H          1 MOL1         0.0845
       4    C2      18.779550   17.897063   20.506171 C.2        1 MOL1        -0.1324
       5    H3      19.717441   17.391324   20.279507 H          1 MOL1         0.0833
       6    C3      18.285934   17.759213   21.930582 C.3        1 MOL1        -0.1813
       7    H4      18.777674   16.909772   22.423104 H          1 MOL1         0.0753
       8    H5      17.216408   17.510434   21.905459 H          1 MOL1         0.0753
       9    C4      18.471236   19.042880   22.777358 C.3        1 MOL1        -0.1855
      10    H6      18.147248   19.921727   22.203254 H          1 MOL1         0.0755
      11    H7      17.792593   18.979209   23.638824 H          1 MOL1         0.0755
      12    C5      19.904469   19.262882   23.323749 C.3        1 MOL1        -0.1855
      13    H8      20.230280   18.376629   23.885393 H          1 MOL1         0.0755
      14    H9      19.874370   20.090416   24.046086 H          1 MOL1         0.0755
      15    C6      20.955657   19.602871   22.236242 C.3        1 MOL1        -0.1958
      16    H10     21.123860   18.742255   21.581162 H          1 MOL1         0.0753
      17    H11     20.599049   20.427888   21.608148 H          1 MOL1         0.0753
      18    C7      22.304216   20.002531   22.823856 C.2        1 MOL1         0.6174
      19    O1      23.113334   19.125239   23.053151 O.co2      1 MOL1        -0.6695
      20    O2      22.502844   21.178633   23.056694 O.co2      1 MOL1        -0.6695
@<TRIPOS>BOND
    1     1     2    1
    2     1     3    1
    3     1     4    2
    4     4     5    1
    5     4     6    1
    6     6     7    1
    7     6     8    1
    8     6     9    1
    9     9    10    1
   10     9    11    1
   11     9    12    1
   12    12    13    1
   13    12    14    1
   14    12    15    1
   15    15    16    1
   16    15    17    1
   17    15    18    1
   18    18    19    1
   19    18    20    2
@<TRIPOS>SUBSTRUCTURE
       1 MOL1            1 RESIDUE      1      MOL     
@<SCITEGIC>MOL_PROPERTY
VConf Rank
SciTegic.value.IntegerValue
359

@<SCITEGIC>MOL_PROPERTY
Conf_Id
SciTegic.value.IntegerValue
51

@<SCITEGIC>MOL_PROPERTY
Delta U+W
SciTegic.value.DoubleValue
1.709

@<SCITEGIC>MOL_PROPERTY
U+W
SciTegic.value.DoubleValue
-50.036

@<SCITEGIC>MOL_PROPERTY
Grad RMS
SciTegic.value.DoubleValue
0.000000

@<SCITEGIC>MOL_PROPERTY
U
SciTegic.value.DoubleValue
10.643

@<SCITEGIC>MOL_PROPERTY
W
SciTegic.value.DoubleValue
-60.679

@<SCITEGIC>MOL_PROPERTY
W(PB)
SciTegic.value.DoubleValue
-62.882

@<SCITEGIC>MOL_PROPERTY
W(SA)
SciTegic.value.DoubleValue
2.203

@<SCITEGIC>MOL_PROPERTY
Valence
SciTegic.value.DoubleValue
11.231

@<SCITEGIC>MOL_PROPERTY
Coulomb
SciTegic.value.DoubleValue
-1.077

@<SCITEGIC>MOL_PROPERTY
VdW
SciTegic.value.DoubleValue
0.489

@<SCITEGIC>MOL_PROPERTY
VdW6
SciTegic.value.DoubleValue
-7.546

@<SCITEGIC>MOL_PROPERTY
VdW12
SciTegic.value.DoubleValue
8.035

@<SCITEGIC>MOL_PROPERTY
Bond
SciTegic.value.DoubleValue
0.159

@<SCITEGIC>MOL_PROPERTY
Angle
SciTegic.value.DoubleValue
3.005

@<SCITEGIC>MOL_PROPERTY
Pdih
SciTegic.value.DoubleValue
8.065

@<SCITEGIC>MOL_PROPERTY
Idih
SciTegic.value.DoubleValue
0.002

@<SCITEGIC>MOL_PROPERTY
Tether
SciTegic.value.DoubleValue
0.000

@<TRIPOS>MOLECULE
guest-s22_confgen4.mol2 : confsearch ligand conformer 360
          20          19           1
SMALL
USER_CHARGES
 
@<TRIPOS>ATOM
       1    C1      19.934831   17.726711   19.507455 C.2        1 MOL1        -0.2535
       2    H1      18.960670   17.264858   19.355409 H          1 MOL1         0.0845
       3    H2      20.811691   17.166388   19.187805 H          1 MOL1         0.0845
       4    C2      20.052188   18.933649   20.067135 C.2        1 MOL1        -0.1324
       5    H3      21.035252   19.383095   20.202698 H          1 MOL1         0.0833
       6    C3      18.877391   19.772616   20.522753 C.3        1 MOL1        -0.1813
       7    H4      18.109575   19.751322   19.737634 H          1 MOL1         0.0753
       8    H5      19.175971   20.825035   20.618672 H          1 MOL1         0.0753
       9    C4      18.240140   19.279663   21.845659 C.3        1 MOL1        -0.1855
      10    H6      17.226961   19.699474   21.908601 H          1 MOL1         0.0755
      11    H7      18.112773   18.188824   21.817747 H          1 MOL1         0.0755
      12    C5      19.000887   19.693932   23.130475 C.3        1 MOL1        -0.1855
      13    H8      18.371161   19.449929   23.997307 H          1 MOL1         0.0755
      14    H9      19.138735   20.783761   23.148021 H          1 MOL1         0.0755
      15    C6      20.372582   18.994823   23.312050 C.3        1 MOL1        -0.1958
      16    H10     20.262874   17.909262   23.203222 H          1 MOL1         0.0753
      17    H11     21.079819   19.330337   22.546982 H          1 MOL1         0.0753
      18    C7      21.001537   19.274146   24.672203 C.2        1 MOL1         0.6174
      19    O1      21.708142   20.256160   24.787300 O.co2      1 MOL1        -0.6695
      20    O2      20.752064   18.513795   25.586813 O.co2      1 MOL1        -0.6695
@<TRIPOS>BOND
    1     1     2    1
    2     1     3    1
    3     1     4    2
    4     4     5    1
    5     4     6    1
    6     6     7    1
    7     6     8    1
    8     6     9    1
    9     9    10    1
   10     9    11    1
   11     9    12    1
   12    12    13    1
   13    12    14    1
   14    12    15    1
   15    15    16    1
   16    15    17    1
   17    15    18    1
   18    18    19    1
   19    18    20    2
@<TRIPOS>SUBSTRUCTURE
       1 MOL1            1 RESIDUE      1      MOL     
@<SCITEGIC>MOL_PROPERTY
VConf Rank
SciTegic.value.IntegerValue
360

@<SCITEGIC>MOL_PROPERTY
Conf_Id
SciTegic.value.IntegerValue
91

@<SCITEGIC>MOL_PROPERTY
Delta U+W
SciTegic.value.DoubleValue
1.604

@<SCITEGIC>MOL_PROPERTY
U+W
SciTegic.value.DoubleValue
-50.141

@<SCITEGIC>MOL_PROPERTY
Grad RMS
SciTegic.value.DoubleValue
0.000000

@<SCITEGIC>MOL_PROPERTY
U
SciTegic.value.DoubleValue
10.644

@<SCITEGIC>MOL_PROPERTY
W
SciTegic.value.DoubleValue
-60.786

@<SCITEGIC>MOL_PROPERTY
W(PB)
SciTegic.value.DoubleValue
-62.965

@<SCITEGIC>MOL_PROPERTY
W(SA)
SciTegic.value.DoubleValue
2.179

@<SCITEGIC>MOL_PROPERTY
Valence
SciTegic.value.DoubleValue
11.230

@<SCITEGIC>MOL_PROPERTY
Coulomb
SciTegic.value.DoubleValue
-1.075

@<SCITEGIC>MOL_PROPERTY
VdW
SciTegic.value.DoubleValue
0.489

@<SCITEGIC>MOL_PROPERTY
VdW6
SciTegic.value.DoubleValue
-7.547

@<SCITEGIC>MOL_PROPERTY
VdW12
SciTegic.value.DoubleValue
8.036

@<SCITEGIC>MOL_PROPERTY
Bond
SciTegic.value.DoubleValue
0.159

@<SCITEGIC>MOL_PROPERTY
Angle
SciTegic.value.DoubleValue
3.006

@<SCITEGIC>MOL_PROPERTY
Pdih
SciTegic.value.DoubleValue
8.064

@<SCITEGIC>MOL_PROPERTY
Idih
SciTegic.value.DoubleValue
0.002

@<SCITEGIC>MOL_PROPERTY
Tether
SciTegic.value.DoubleValue
0.000

@<TRIPOS>MOLECULE
guest-s22_confgen4.mol2 : confsearch ligand conformer 361
          20          19           1
SMALL
USER_CHARGES
 
@<TRIPOS>ATOM
       1    C1      21.032312   22.457893   22.377132 C.2        1 MOL1        -0.2535
       2    H1      20.539528   22.731648   21.445567 H          1 MOL1         0.0845
       3    H2      21.825701   23.111854   22.735106 H          1 MOL1         0.0845
       4    C2      20.682096   21.362326   23.055906 C.2        1 MOL1        -0.1324
       5    H3      21.188598   21.105776   23.986118 H          1 MOL1         0.0833
       6    C3      19.591166   20.408808   22.621951 C.3        1 MOL1        -0.1813
       7    H4      18.971853   20.869766   21.840430 H          1 MOL1         0.0753
       8    H5      18.925778   20.200929   23.470591 H          1 MOL1         0.0753
       9    C4      20.184911   19.086223   22.093645 C.3        1 MOL1        -0.1855
      10    H6      20.852813   19.300156   21.247757 H          1 MOL1         0.0755
      11    H7      20.800504   18.623301   22.877169 H          1 MOL1         0.0755
      12    C5      19.083713   18.099115   21.648569 C.3        1 MOL1        -0.1855
      13    H8      18.467870   18.561250   20.864533 H          1 MOL1         0.0755
      14    H9      18.414680   17.885729   22.493783 H          1 MOL1         0.0755
      15    C6      19.681324   16.769345   21.116619 C.3        1 MOL1        -0.1958
      16    H10     20.345237   16.974323   20.268612 H          1 MOL1         0.0753
      17    H11     20.292158   16.299298   21.896264 H          1 MOL1         0.0753
      18    C7      18.656559   15.732763   20.653293 C.2        1 MOL1         0.6174
      19    O1      19.086907   14.677830   20.231326 O.co2      1 MOL1        -0.6695
      20    O2      17.469367   15.987607   20.718696 O.co2      1 MOL1        -0.6695
@<TRIPOS>BOND
    1     1     2    1
    2     1     3    1
    3     1     4    2
    4     4     5    1
    5     4     6    1
    6     6     7    1
    7     6     8    1
    8     6     9    1
    9     9    10    1
   10     9    11    1
   11     9    12    1
   12    12    13    1
   13    12    14    1
   14    12    15    1
   15    15    16    1
   16    15    17    1
   17    15    18    1
   18    18    19    1
   19    18    20    2
@<TRIPOS>SUBSTRUCTURE
       1 MOL1            1 RESIDUE      1      MOL     
@<SCITEGIC>MOL_PROPERTY
VConf Rank
SciTegic.value.IntegerValue
361

@<SCITEGIC>MOL_PROPERTY
Conf_Id
SciTegic.value.IntegerValue
33

@<SCITEGIC>MOL_PROPERTY
Delta U+W
SciTegic.value.DoubleValue
0.000

@<SCITEGIC>MOL_PROPERTY
U+W
SciTegic.value.DoubleValue
-51.745

@<SCITEGIC>MOL_PROPERTY
Grad RMS
SciTegic.value.DoubleValue
0.000000

@<SCITEGIC>MOL_PROPERTY
U
SciTegic.value.DoubleValue
7.593

@<SCITEGIC>MOL_PROPERTY
W
SciTegic.value.DoubleValue
-59.338

@<SCITEGIC>MOL_PROPERTY
W(PB)
SciTegic.value.DoubleValue
-61.574

@<SCITEGIC>MOL_PROPERTY
W(SA)
SciTegic.value.DoubleValue
2.236

@<SCITEGIC>MOL_PROPERTY
Valence
SciTegic.value.DoubleValue
9.570

@<SCITEGIC>MOL_PROPERTY
Coulomb
SciTegic.value.DoubleValue
-3.091

@<SCITEGIC>MOL_PROPERTY
VdW
SciTegic.value.DoubleValue
1.114

@<SCITEGIC>MOL_PROPERTY
VdW6
SciTegic.value.DoubleValue
-6.064

@<SCITEGIC>MOL_PROPERTY
VdW12
SciTegic.value.DoubleValue
7.178

@<SCITEGIC>MOL_PROPERTY
Bond
SciTegic.value.DoubleValue
0.117

@<SCITEGIC>MOL_PROPERTY
Angle
SciTegic.value.DoubleValue
2.692

@<SCITEGIC>MOL_PROPERTY
Pdih
SciTegic.value.DoubleValue
6.761

@<SCITEGIC>MOL_PROPERTY
Idih
SciTegic.value.DoubleValue
0.000

@<SCITEGIC>MOL_PROPERTY
Tether
SciTegic.value.DoubleValue
0.000

@<TRIPOS>MOLECULE
guest-s22_confgen4.mol2 : confsearch ligand conformer 362
          20          19           1
SMALL
USER_CHARGES
 
@<TRIPOS>ATOM
       1    C1      21.275435   16.141408   20.378943 C.2        1 MOL1        -0.2535
       2    H1      21.381055   16.700670   19.450693 H          1 MOL1         0.0845
       3    H2      21.491848   15.074870   20.348591 H          1 MOL1         0.0845
       4    C2      20.893199   16.736059   21.512062 C.2        1 MOL1        -0.1324
       5    H3      20.792736   16.157886   22.430351 H          1 MOL1         0.0833
       6    C3      20.576881   18.210344   21.631024 C.3        1 MOL1        -0.1813
       7    H4      20.945957   18.750215   20.748460 H          1 MOL1         0.0753
       8    H5      21.105557   18.622873   22.499570 H          1 MOL1         0.0753
       9    C4      19.055961   18.441405   21.776710 C.3        1 MOL1        -0.1855
      10    H6      18.541713   17.947147   20.940888 H          1 MOL1         0.0755
      11    H7      18.694527   17.956064   22.693662 H          1 MOL1         0.0755
      12    C5      18.656904   19.936341   21.786804 C.3        1 MOL1        -0.1855
      13    H8      17.560429   20.008222   21.778479 H          1 MOL1         0.0755
      14    H9      19.006167   20.420163   20.864131 H          1 MOL1         0.0755
      15    C6      19.197495   20.712995   23.015438 C.3        1 MOL1        -0.1958
      16    H10     18.890911   20.214987   23.943004 H          1 MOL1         0.0753
      17    H11     20.292953   20.737942   23.005752 H          1 MOL1         0.0753
      18    C7      18.701763   22.153703   23.066244 C.2        1 MOL1         0.6174
      19    O1      19.355666   23.005916   22.498044 O.co2      1 MOL1        -0.6695
      20    O2      17.664209   22.382841   23.655916 O.co2      1 MOL1        -0.6695
@<TRIPOS>BOND
    1     1     2    1
    2     1     3    1
    3     1     4    2
    4     4     5    1
    5     4     6    1
    6     6     7    1
    7     6     8    1
    8     6     9    1
    9     9    10    1
   10     9    11    1
   11     9    12    1
   12    12    13    1
   13    12    14    1
   14    12    15    1
   15    15    16    1
   16    15    17    1
   17    15    18    1
   18    18    19    1
   19    18    20    2
@<TRIPOS>SUBSTRUCTURE
       1 MOL1            1 RESIDUE      1      MOL     
@<SCITEGIC>MOL_PROPERTY
VConf Rank
SciTegic.value.IntegerValue
362

@<SCITEGIC>MOL_PROPERTY
Conf_Id
SciTegic.value.IntegerValue
37

@<SCITEGIC>MOL_PROPERTY
Delta U+W
SciTegic.value.DoubleValue
-0.384

@<SCITEGIC>MOL_PROPERTY
U+W
SciTegic.value.DoubleValue
-52.130

@<SCITEGIC>MOL_PROPERTY
Grad RMS
SciTegic.value.DoubleValue
0.000000

@<SCITEGIC>MOL_PROPERTY
U
SciTegic.value.DoubleValue
7.491

@<SCITEGIC>MOL_PROPERTY
W
SciTegic.value.DoubleValue
-59.621

@<SCITEGIC>MOL_PROPERTY
W(PB)
SciTegic.value.DoubleValue
-61.853

@<SCITEGIC>MOL_PROPERTY
W(SA)
SciTegic.value.DoubleValue
2.232

@<SCITEGIC>MOL_PROPERTY
Valence
SciTegic.value.DoubleValue
9.604

@<SCITEGIC>MOL_PROPERTY
Coulomb
SciTegic.value.DoubleValue
-2.799

@<SCITEGIC>MOL_PROPERTY
VdW
SciTegic.value.DoubleValue
0.686

@<SCITEGIC>MOL_PROPERTY
VdW6
SciTegic.value.DoubleValue
-6.435

@<SCITEGIC>MOL_PROPERTY
VdW12
SciTegic.value.DoubleValue
7.121

@<SCITEGIC>MOL_PROPERTY
Bond
SciTegic.value.DoubleValue
0.124

@<SCITEGIC>MOL_PROPERTY
Angle
SciTegic.value.DoubleValue
2.493

@<SCITEGIC>MOL_PROPERTY
Pdih
SciTegic.value.DoubleValue
6.986

@<SCITEGIC>MOL_PROPERTY
Idih
SciTegic.value.DoubleValue
0.001

@<SCITEGIC>MOL_PROPERTY
Tether
SciTegic.value.DoubleValue
0.000

@<TRIPOS>MOLECULE
guest-s22_confgen4.mol2 : confsearch ligand conformer 363
          20          19           1
SMALL
USER_CHARGES
 
@<TRIPOS>ATOM
       1    C1      17.614879   21.550280   22.156137 C.2        1 MOL1        -0.2535
       2    H1      16.895293   22.362594   22.242940 H          1 MOL1         0.0845
       3    H2      18.638904   21.825609   21.913003 H          1 MOL1         0.0845
       4    C2      17.237569   20.280421   22.343244 C.2        1 MOL1        -0.1324
       5    H3      16.196523   20.067064   22.584759 H          1 MOL1         0.0833
       6    C3      18.121784   19.047711   22.256043 C.3        1 MOL1        -0.1813
       7    H4      17.702015   18.364804   21.505333 H          1 MOL1         0.0753
       8    H5      18.068631   18.507150   23.210561 H          1 MOL1         0.0753
       9    C4      19.603764   19.328291   21.914000 C.3        1 MOL1        -0.1855
      10    H6      19.665208   19.850771   20.949466 H          1 MOL1         0.0755
      11    H7      20.035795   19.994684   22.673181 H          1 MOL1         0.0755
      12    C5      20.431505   18.026343   21.844741 C.3        1 MOL1        -0.1855
      13    H8      20.004196   17.355114   21.086806 H          1 MOL1         0.0755
      14    H9      20.374016   17.498737   22.806994 H          1 MOL1         0.0755
      15    C6      21.915898   18.304645   21.502381 C.3        1 MOL1        -0.1958
      16    H10     21.991905   18.819602   20.537163 H          1 MOL1         0.0753
      17    H11     22.361701   18.963318   22.257372 H          1 MOL1         0.0753
      18    C7      22.754533   17.033745   21.428279 C.2        1 MOL1         0.6174
      19    O1      22.837406   16.462805   20.358790 O.co2      1 MOL1        -0.6695
      20    O2      23.286537   16.637454   22.446401 O.co2      1 MOL1        -0.6695
@<TRIPOS>BOND
    1     1     2    1
    2     1     3    1
    3     1     4    2
    4     4     5    1
    5     4     6    1
    6     6     7    1
    7     6     8    1
    8     6     9    1
    9     9    10    1
   10     9    11    1
   11     9    12    1
   12    12    13    1
   13    12    14    1
   14    12    15    1
   15    15    16    1
   16    15    17    1
   17    15    18    1
   18    18    19    1
   19    18    20    2
@<TRIPOS>SUBSTRUCTURE
       1 MOL1            1 RESIDUE      1      MOL     
@<SCITEGIC>MOL_PROPERTY
VConf Rank
SciTegic.value.IntegerValue
363

@<SCITEGIC>MOL_PROPERTY
Conf_Id
SciTegic.value.IntegerValue
44

@<SCITEGIC>MOL_PROPERTY
Delta U+W
SciTegic.value.DoubleValue
-1.440

@<SCITEGIC>MOL_PROPERTY
U+W
SciTegic.value.DoubleValue
-53.185

@<SCITEGIC>MOL_PROPERTY
Grad RMS
SciTegic.value.DoubleValue
0.000000

@<SCITEGIC>MOL_PROPERTY
U
SciTegic.value.DoubleValue
6.572

@<SCITEGIC>MOL_PROPERTY
W
SciTegic.value.DoubleValue
-59.757

@<SCITEGIC>MOL_PROPERTY
W(PB)
SciTegic.value.DoubleValue
-62.007

@<SCITEGIC>MOL_PROPERTY
W(SA)
SciTegic.value.DoubleValue
2.249

@<SCITEGIC>MOL_PROPERTY
Valence
SciTegic.value.DoubleValue
7.989

@<SCITEGIC>MOL_PROPERTY
Coulomb
SciTegic.value.DoubleValue
-2.697

@<SCITEGIC>MOL_PROPERTY
VdW
SciTegic.value.DoubleValue
1.281

@<SCITEGIC>MOL_PROPERTY
VdW6
SciTegic.value.DoubleValue
-6.467

@<SCITEGIC>MOL_PROPERTY
VdW12
SciTegic.value.DoubleValue
7.748

@<SCITEGIC>MOL_PROPERTY
Bond
SciTegic.value.DoubleValue
0.136

@<SCITEGIC>MOL_PROPERTY
Angle
SciTegic.value.DoubleValue
2.854

@<SCITEGIC>MOL_PROPERTY
Pdih
SciTegic.value.DoubleValue
4.997

@<SCITEGIC>MOL_PROPERTY
Idih
SciTegic.value.DoubleValue
0.001

@<SCITEGIC>MOL_PROPERTY
Tether
SciTegic.value.DoubleValue
0.000

@<TRIPOS>MOLECULE
guest-s22_confgen4.mol2 : confsearch ligand conformer 364
          20          19           1
SMALL
USER_CHARGES
 
@<TRIPOS>ATOM
       1    C1      19.291050   19.747265   25.282098 C.2        1 MOL1        -0.2535
       2    H1      18.252946   19.696811   24.957485 H          1 MOL1         0.0845
       3    H2      19.488622   20.173378   26.264262 H          1 MOL1         0.0845
       4    C2      20.286339   19.307278   24.507806 C.2        1 MOL1        -0.1324
       5    H3      21.318758   19.367476   24.851496 H          1 MOL1         0.0833
       6    C3      20.089178   18.703102   23.135219 C.3        1 MOL1        -0.1813
       7    H4      19.033969   18.436604   22.993396 H          1 MOL1         0.0753
       8    H5      20.664936   17.771121   23.058754 H          1 MOL1         0.0753
       9    C4      20.538930   19.682564   22.027818 C.3        1 MOL1        -0.1855
      10    H6      19.925113   20.592828   22.070714 H          1 MOL1         0.0755
      11    H7      21.572527   19.996150   22.228878 H          1 MOL1         0.0755
      12    C5      20.475409   19.077641   20.605019 C.3        1 MOL1        -0.1855
      13    H8      21.096629   18.172520   20.557981 H          1 MOL1         0.0755
      14    H9      20.917001   19.793689   19.898071 H          1 MOL1         0.0755
      15    C6      19.034937   18.742079   20.138654 C.3        1 MOL1        -0.1958
      16    H10     18.596110   17.961101   20.769690 H          1 MOL1         0.0753
      17    H11     18.393846   19.627686   20.222902 H          1 MOL1         0.0753
      18    C7      18.981560   18.255365   18.694981 C.2        1 MOL1         0.6174
      19    O1      18.835970   19.081796   17.816033 O.co2      1 MOL1        -0.6695
      20    O2      19.106953   17.064892   18.485781 O.co2      1 MOL1        -0.6695
@<TRIPOS>BOND
    1     1     2    1
    2     1     3    1
    3     1     4    2
    4     4     5    1
    5     4     6    1
    6     6     7    1
    7     6     8    1
    8     6     9    1
    9     9    10    1
   10     9    11    1
   11     9    12    1
   12    12    13    1
   13    12    14    1
   14    12    15    1
   15    15    16    1
   16    15    17    1
   17    15    18    1
   18    18    19    1
   19    18    20    2
@<TRIPOS>SUBSTRUCTURE
       1 MOL1            1 RESIDUE      1      MOL     
@<SCITEGIC>MOL_PROPERTY
VConf Rank
SciTegic.value.IntegerValue
364

@<SCITEGIC>MOL_PROPERTY
Conf_Id
SciTegic.value.IntegerValue
38

@<SCITEGIC>MOL_PROPERTY
Delta U+W
SciTegic.value.DoubleValue
-0.381

@<SCITEGIC>MOL_PROPERTY
U+W
SciTegic.value.DoubleValue
-52.126

@<SCITEGIC>MOL_PROPERTY
Grad RMS
SciTegic.value.DoubleValue
0.000000

@<SCITEGIC>MOL_PROPERTY
U
SciTegic.value.DoubleValue
7.601

@<SCITEGIC>MOL_PROPERTY
W
SciTegic.value.DoubleValue
-59.727

@<SCITEGIC>MOL_PROPERTY
W(PB)
SciTegic.value.DoubleValue
-61.964

@<SCITEGIC>MOL_PROPERTY
W(SA)
SciTegic.value.DoubleValue
2.236

@<SCITEGIC>MOL_PROPERTY
Valence
SciTegic.value.DoubleValue
9.602

@<SCITEGIC>MOL_PROPERTY
Coulomb
SciTegic.value.DoubleValue
-2.686

@<SCITEGIC>MOL_PROPERTY
VdW
SciTegic.value.DoubleValue
0.685

@<SCITEGIC>MOL_PROPERTY
VdW6
SciTegic.value.DoubleValue
-6.453

@<SCITEGIC>MOL_PROPERTY
VdW12
SciTegic.value.DoubleValue
7.139

@<SCITEGIC>MOL_PROPERTY
Bond
SciTegic.value.DoubleValue
0.125

@<SCITEGIC>MOL_PROPERTY
Angle
SciTegic.value.DoubleValue
2.485

@<SCITEGIC>MOL_PROPERTY
Pdih
SciTegic.value.DoubleValue
6.991

@<SCITEGIC>MOL_PROPERTY
Idih
SciTegic.value.DoubleValue
0.001

@<SCITEGIC>MOL_PROPERTY
Tether
SciTegic.value.DoubleValue
0.000

@<TRIPOS>MOLECULE
guest-s22_confgen4.mol2 : confsearch ligand conformer 365
          20          19           1
SMALL
USER_CHARGES
 
@<TRIPOS>ATOM
       1    C1      19.620575   15.720987   21.430117 C.2        1 MOL1        -0.2535
       2    H1      18.553793   15.730383   21.212251 H          1 MOL1         0.0845
       3    H2      20.203747   14.887524   21.042149 H          1 MOL1         0.0845
       4    C2      20.195675   16.692987   22.142956 C.2        1 MOL1        -0.1324
       5    H3      21.265443   16.665174   22.349070 H          1 MOL1         0.0833
       6    C3      19.451458   17.879481   22.713939 C.3        1 MOL1        -0.1813
       7    H4      19.720502   18.007840   23.770947 H          1 MOL1         0.0753
       8    H5      18.368200   17.699677   22.682902 H          1 MOL1         0.0753
       9    C4      19.781141   19.170760   21.936174 C.3        1 MOL1        -0.1855
      10    H6      20.864779   19.349549   21.970745 H          1 MOL1         0.0755
      11    H7      19.515153   19.036827   20.878542 H          1 MOL1         0.0755
      12    C5      19.030612   20.394225   22.509036 C.3        1 MOL1        -0.1855
      13    H8      19.302567   20.537400   23.564136 H          1 MOL1         0.0755
      14    H9      17.949741   20.200038   22.484728 H          1 MOL1         0.0755
      15    C6      19.325530   21.697109   21.721373 C.3        1 MOL1        -0.1958
      16    H10     19.085151   21.560917   20.659993 H          1 MOL1         0.0753
      17    H11     18.681386   22.503186   22.091910 H          1 MOL1         0.0753
      18    C7      20.769407   22.177650   21.836119 C.2        1 MOL1         0.6174
      19    O1      21.508073   22.014404   20.884965 O.co2      1 MOL1        -0.6695
      20    O2      21.113782   22.713114   22.871388 O.co2      1 MOL1        -0.6695
@<TRIPOS>BOND
    1     1     2    1
    2     1     3    1
    3     1     4    2
    4     4     5    1
    5     4     6    1
    6     6     7    1
    7     6     8    1
    8     6     9    1
    9     9    10    1
   10     9    11    1
   11     9    12    1
   12    12    13    1
   13    12    14    1
   14    12    15    1
   15    15    16    1
   16    15    17    1
   17    15    18    1
   18    18    19    1
   19    18    20    2
@<TRIPOS>SUBSTRUCTURE
       1 MOL1            1 RESIDUE      1      MOL     
@<SCITEGIC>MOL_PROPERTY
VConf Rank
SciTegic.value.IntegerValue
365

@<SCITEGIC>MOL_PROPERTY
Conf_Id
SciTegic.value.IntegerValue
58

@<SCITEGIC>MOL_PROPERTY
Delta U+W
SciTegic.value.DoubleValue
0.019

@<SCITEGIC>MOL_PROPERTY
U+W
SciTegic.value.DoubleValue
-51.727

@<SCITEGIC>MOL_PROPERTY
Grad RMS
SciTegic.value.DoubleValue
0.000000

@<SCITEGIC>MOL_PROPERTY
U
SciTegic.value.DoubleValue
8.963

@<SCITEGIC>MOL_PROPERTY
W
SciTegic.value.DoubleValue
-60.690

@<SCITEGIC>MOL_PROPERTY
W(PB)
SciTegic.value.DoubleValue
-62.934

@<SCITEGIC>MOL_PROPERTY
W(SA)
SciTegic.value.DoubleValue
2.244

@<SCITEGIC>MOL_PROPERTY
Valence
SciTegic.value.DoubleValue
9.327

@<SCITEGIC>MOL_PROPERTY
Coulomb
SciTegic.value.DoubleValue
-0.780

@<SCITEGIC>MOL_PROPERTY
VdW
SciTegic.value.DoubleValue
0.417

@<SCITEGIC>MOL_PROPERTY
VdW6
SciTegic.value.DoubleValue
-6.635

@<SCITEGIC>MOL_PROPERTY
VdW12
SciTegic.value.DoubleValue
7.052

@<SCITEGIC>MOL_PROPERTY
Bond
SciTegic.value.DoubleValue
0.105

@<SCITEGIC>MOL_PROPERTY
Angle
SciTegic.value.DoubleValue
2.399

@<SCITEGIC>MOL_PROPERTY
Pdih
SciTegic.value.DoubleValue
6.822

@<SCITEGIC>MOL_PROPERTY
Idih
SciTegic.value.DoubleValue
0.000

@<SCITEGIC>MOL_PROPERTY
Tether
SciTegic.value.DoubleValue
0.000

@<TRIPOS>MOLECULE
guest-s22_confgen4.mol2 : confsearch ligand conformer 366
          20          19           1
SMALL
USER_CHARGES
 
@<TRIPOS>ATOM
       1    C1      21.409074   16.121945   21.545687 C.2        1 MOL1        -0.2535
       2    H1      20.881430   15.924993   20.613819 H          1 MOL1         0.0845
       3    H2      21.836090   15.268450   22.069587 H          1 MOL1         0.0845
       4    C2      21.527898   17.360135   22.031930 C.2        1 MOL1        -0.1324
       5    H3      22.059313   17.535614   22.967059 H          1 MOL1         0.0833
       6    C3      20.962870   18.592303   21.361001 C.3        1 MOL1        -0.1813
       7    H4      20.678689   18.364422   20.324636 H          1 MOL1         0.0753
       8    H5      21.735461   19.371357   21.312986 H          1 MOL1         0.0753
       9    C4      19.734441   19.128976   22.125170 C.3        1 MOL1        -0.1855
      10    H6      18.965810   18.345413   22.175244 H          1 MOL1         0.0755
      11    H7      20.021882   19.358267   23.160659 H          1 MOL1         0.0755
      12    C5      19.146232   20.390678   21.454017 C.3        1 MOL1        -0.1855
      13    H8      18.876539   20.156067   20.415361 H          1 MOL1         0.0755
      14    H9      19.909464   21.180238   21.411965 H          1 MOL1         0.0755
      15    C6      17.891676   20.927903   22.190476 C.3        1 MOL1        -0.1958
      16    H10     17.447993   21.745401   21.610114 H          1 MOL1         0.0753
      17    H11     17.130493   20.141850   22.265179 H          1 MOL1         0.0753
      18    C7      18.176800   21.464573   23.590318 C.2        1 MOL1         0.6174
      19    O1      18.712640   22.550999   23.688548 O.co2      1 MOL1        -0.6695
      20    O2      17.846290   20.788613   24.544682 O.co2      1 MOL1        -0.6695
@<TRIPOS>BOND
    1     1     2    1
    2     1     3    1
    3     1     4    2
    4     4     5    1
    5     4     6    1
    6     6     7    1
    7     6     8    1
    8     6     9    1
    9     9    10    1
   10     9    11    1
   11     9    12    1
   12    12    13    1
   13    12    14    1
   14    12    15    1
   15    15    16    1
   16    15    17    1
   17    15    18    1
   18    18    19    1
   19    18    20    2
@<TRIPOS>SUBSTRUCTURE
       1 MOL1            1 RESIDUE      1      MOL     
@<SCITEGIC>MOL_PROPERTY
VConf Rank
SciTegic.value.IntegerValue
366

@<SCITEGIC>MOL_PROPERTY
Conf_Id
SciTegic.value.IntegerValue
54

@<SCITEGIC>MOL_PROPERTY
Delta U+W
SciTegic.value.DoubleValue
-0.048

@<SCITEGIC>MOL_PROPERTY
U+W
SciTegic.value.DoubleValue
-51.793

@<SCITEGIC>MOL_PROPERTY
Grad RMS
SciTegic.value.DoubleValue
0.000000

@<SCITEGIC>MOL_PROPERTY
U
SciTegic.value.DoubleValue
8.964

@<SCITEGIC>MOL_PROPERTY
W
SciTegic.value.DoubleValue
-60.756

@<SCITEGIC>MOL_PROPERTY
W(PB)
SciTegic.value.DoubleValue
-63.007

@<SCITEGIC>MOL_PROPERTY
W(SA)
SciTegic.value.DoubleValue
2.251

@<SCITEGIC>MOL_PROPERTY
Valence
SciTegic.value.DoubleValue
9.327

@<SCITEGIC>MOL_PROPERTY
Coulomb
SciTegic.value.DoubleValue
-0.780

@<SCITEGIC>MOL_PROPERTY
VdW
SciTegic.value.DoubleValue
0.417

@<SCITEGIC>MOL_PROPERTY
VdW6
SciTegic.value.DoubleValue
-6.635

@<SCITEGIC>MOL_PROPERTY
VdW12
SciTegic.value.DoubleValue
7.052

@<SCITEGIC>MOL_PROPERTY
Bond
SciTegic.value.DoubleValue
0.105

@<SCITEGIC>MOL_PROPERTY
Angle
SciTegic.value.DoubleValue
2.399

@<SCITEGIC>MOL_PROPERTY
Pdih
SciTegic.value.DoubleValue
6.822

@<SCITEGIC>MOL_PROPERTY
Idih
SciTegic.value.DoubleValue
0.000

@<SCITEGIC>MOL_PROPERTY
Tether
SciTegic.value.DoubleValue
0.000

@<TRIPOS>MOLECULE
guest-s22_confgen4.mol2 : confsearch ligand conformer 367
          20          19           1
SMALL
USER_CHARGES
 
@<TRIPOS>ATOM
       1    C1      16.618757   18.375667   21.031317 C.2        1 MOL1        -0.2535
       2    H1      16.156298   18.202174   20.061152 H          1 MOL1         0.0845
       3    H2      16.267367   17.774969   21.868691 H          1 MOL1         0.0845
       4    C2      17.581508   19.288679   21.183600 C.2        1 MOL1        -0.1324
       5    H3      17.915976   19.881614   20.332829 H          1 MOL1         0.0833
       6    C3      18.264092   19.588749   22.501130 C.3        1 MOL1        -0.1813
       7    H4      17.638474   19.233546   23.331168 H          1 MOL1         0.0753
       8    H5      18.362097   20.674550   22.633335 H          1 MOL1         0.0753
       9    C4      19.654370   18.922742   22.609578 C.3        1 MOL1        -0.1855
      10    H6      20.031921   19.062398   23.631798 H          1 MOL1         0.0755
      11    H7      19.553153   17.839129   22.459000 H          1 MOL1         0.0755
      12    C5      20.677795   19.498569   21.602041 C.3        1 MOL1        -0.1855
      13    H8      20.768342   20.584597   21.742689 H          1 MOL1         0.0755
      14    H9      20.312833   19.341420   20.578517 H          1 MOL1         0.0755
      15    C6      22.077733   18.844765   21.735805 C.3        1 MOL1        -0.1958
      16    H10     21.998659   17.755899   21.631163 H          1 MOL1         0.0753
      17    H11     22.724908   19.195591   20.923376 H          1 MOL1         0.0753
      18    C7      22.786298   19.158008   23.050587 C.2        1 MOL1         0.6174
      19    O1      22.834935   18.289909   23.899756 O.co2      1 MOL1        -0.6695
      20    O2      23.280684   20.259989   23.185997 O.co2      1 MOL1        -0.6695
@<TRIPOS>BOND
    1     1     2    1
    2     1     3    1
    3     1     4    2
    4     4     5    1
    5     4     6    1
    6     6     7    1
    7     6     8    1
    8     6     9    1
    9     9    10    1
   10     9    11    1
   11     9    12    1
   12    12    13    1
   13    12    14    1
   14    12    15    1
   15    15    16    1
   16    15    17    1
   17    15    18    1
   18    18    19    1
   19    18    20    2
@<TRIPOS>SUBSTRUCTURE
       1 MOL1            1 RESIDUE      1      MOL     
@<SCITEGIC>MOL_PROPERTY
VConf Rank
SciTegic.value.IntegerValue
367

@<SCITEGIC>MOL_PROPERTY
Conf_Id
SciTegic.value.IntegerValue
27

@<SCITEGIC>MOL_PROPERTY
Delta U+W
SciTegic.value.DoubleValue
0.478

@<SCITEGIC>MOL_PROPERTY
U+W
SciTegic.value.DoubleValue
-51.267

@<SCITEGIC>MOL_PROPERTY
Grad RMS
SciTegic.value.DoubleValue
0.000000

@<SCITEGIC>MOL_PROPERTY
U
SciTegic.value.DoubleValue
9.192

@<SCITEGIC>MOL_PROPERTY
W
SciTegic.value.DoubleValue
-60.459

@<SCITEGIC>MOL_PROPERTY
W(PB)
SciTegic.value.DoubleValue
-62.649

@<SCITEGIC>MOL_PROPERTY
W(SA)
SciTegic.value.DoubleValue
2.190

@<SCITEGIC>MOL_PROPERTY
Valence
SciTegic.value.DoubleValue
9.572

@<SCITEGIC>MOL_PROPERTY
Coulomb
SciTegic.value.DoubleValue
-0.884

@<SCITEGIC>MOL_PROPERTY
VdW
SciTegic.value.DoubleValue
0.504

@<SCITEGIC>MOL_PROPERTY
VdW6
SciTegic.value.DoubleValue
-7.168

@<SCITEGIC>MOL_PROPERTY
VdW12
SciTegic.value.DoubleValue
7.672

@<SCITEGIC>MOL_PROPERTY
Bond
SciTegic.value.DoubleValue
0.127

@<SCITEGIC>MOL_PROPERTY
Angle
SciTegic.value.DoubleValue
2.504

@<SCITEGIC>MOL_PROPERTY
Pdih
SciTegic.value.DoubleValue
6.941

@<SCITEGIC>MOL_PROPERTY
Idih
SciTegic.value.DoubleValue
0.001

@<SCITEGIC>MOL_PROPERTY
Tether
SciTegic.value.DoubleValue
0.000

@<TRIPOS>MOLECULE
guest-s22_confgen4.mol2 : confsearch ligand conformer 368
          20          19           1
SMALL
USER_CHARGES
 
@<TRIPOS>ATOM
       1    C1      18.389937   15.715777   21.952889 C.2        1 MOL1        -0.2535
       2    H1      17.315307   15.821653   21.813363 H          1 MOL1         0.0845
       3    H2      18.739149   14.855183   22.520891 H          1 MOL1         0.0845
       4    C2      19.249404   16.606462   21.451217 C.2        1 MOL1        -0.1324
       5    H3      20.321367   16.479735   21.599969 H          1 MOL1         0.0833
       6    C3      18.837957   17.821509   20.647369 C.3        1 MOL1        -0.1813
       7    H4      17.822746   17.678268   20.253181 H          1 MOL1         0.0753
       8    H5      19.494036   17.931768   19.773605 H          1 MOL1         0.0753
       9    C4      18.864701   19.118716   21.486773 C.3        1 MOL1        -0.1855
      10    H6      18.432878   19.934410   20.890912 H          1 MOL1         0.0755
      11    H7      18.219088   18.996676   22.367453 H          1 MOL1         0.0755
      12    C5      20.290330   19.516455   21.933343 C.3        1 MOL1        -0.1855
      13    H8      20.941124   19.612738   21.053255 H          1 MOL1         0.0755
      14    H9      20.720205   18.726014   22.563497 H          1 MOL1         0.0755
      15    C6      20.295397   20.849478   22.721431 C.3        1 MOL1        -0.1958
      16    H10     19.884785   21.656915   22.103385 H          1 MOL1         0.0753
      17    H11     19.659010   20.765678   23.610586 H          1 MOL1         0.0753
      18    C7      21.690779   21.263504   23.174795 C.2        1 MOL1         0.6174
      19    O1      22.079217   20.878788   24.260046 O.co2      1 MOL1        -0.6695
      20    O2      22.359249   21.945257   22.423090 O.co2      1 MOL1        -0.6695
@<TRIPOS>BOND
    1     1     2    1
    2     1     3    1
    3     1     4    2
    4     4     5    1
    5     4     6    1
    6     6     7    1
    7     6     8    1
    8     6     9    1
    9     9    10    1
   10     9    11    1
   11     9    12    1
   12    12    13    1
   13    12    14    1
   14    12    15    1
   15    15    16    1
   16    15    17    1
   17    15    18    1
   18    18    19    1
   19    18    20    2
@<TRIPOS>SUBSTRUCTURE
       1 MOL1            1 RESIDUE      1      MOL     
@<SCITEGIC>MOL_PROPERTY
VConf Rank
SciTegic.value.IntegerValue
368

@<SCITEGIC>MOL_PROPERTY
Conf_Id
SciTegic.value.IntegerValue
41

@<SCITEGIC>MOL_PROPERTY
Delta U+W
SciTegic.value.DoubleValue
-0.634

@<SCITEGIC>MOL_PROPERTY
U+W
SciTegic.value.DoubleValue
-52.379

@<SCITEGIC>MOL_PROPERTY
Grad RMS
SciTegic.value.DoubleValue
0.000000

@<SCITEGIC>MOL_PROPERTY
U
SciTegic.value.DoubleValue
7.828

@<SCITEGIC>MOL_PROPERTY
W
SciTegic.value.DoubleValue
-60.207

@<SCITEGIC>MOL_PROPERTY
W(PB)
SciTegic.value.DoubleValue
-62.449

@<SCITEGIC>MOL_PROPERTY
W(SA)
SciTegic.value.DoubleValue
2.242

@<SCITEGIC>MOL_PROPERTY
Valence
SciTegic.value.DoubleValue
9.300

@<SCITEGIC>MOL_PROPERTY
Coulomb
SciTegic.value.DoubleValue
-2.080

@<SCITEGIC>MOL_PROPERTY
VdW
SciTegic.value.DoubleValue
0.608

@<SCITEGIC>MOL_PROPERTY
VdW6
SciTegic.value.DoubleValue
-6.341

@<SCITEGIC>MOL_PROPERTY
VdW12
SciTegic.value.DoubleValue
6.949

@<SCITEGIC>MOL_PROPERTY
Bond
SciTegic.value.DoubleValue
0.103

@<SCITEGIC>MOL_PROPERTY
Angle
SciTegic.value.DoubleValue
2.334

@<SCITEGIC>MOL_PROPERTY
Pdih
SciTegic.value.DoubleValue
6.862

@<SCITEGIC>MOL_PROPERTY
Idih
SciTegic.value.DoubleValue
0.001

@<SCITEGIC>MOL_PROPERTY
Tether
SciTegic.value.DoubleValue
0.000

@<TRIPOS>MOLECULE
guest-s22_confgen4.mol2 : confsearch ligand conformer 369
          20          19           1
SMALL
USER_CHARGES
 
@<TRIPOS>ATOM
       1    C1      23.140614   18.636444   23.531936 C.2        1 MOL1        -0.2535
       2    H1      23.866267   18.001181   24.037017 H          1 MOL1         0.0845
       3    H2      23.514375   19.537453   23.048161 H          1 MOL1         0.0845
       4    C2      21.843788   18.318098   23.507159 C.2        1 MOL1        -0.1324
       5    H3      21.489804   17.411232   23.997011 H          1 MOL1         0.0833
       6    C3      20.779054   19.150182   22.827765 C.3        1 MOL1        -0.1813
       7    H4      21.169687   20.149485   22.592873 H          1 MOL1         0.0753
       8    H5      19.937438   19.290493   23.518380 H          1 MOL1         0.0753
       9    C4      20.287294   18.470096   21.530525 C.3        1 MOL1        -0.1855
      10    H6      21.155982   18.247374   20.895754 H          1 MOL1         0.0755
      11    H7      19.827666   17.502410   21.774626 H          1 MOL1         0.0755
      12    C5      19.291762   19.334238   20.717897 C.3        1 MOL1        -0.1855
      13    H8      19.054889   18.813003   19.780032 H          1 MOL1         0.0755
      14    H9      19.779938   20.275570   20.431562 H          1 MOL1         0.0755
      15    C6      17.964873   19.653818   21.459283 C.3        1 MOL1        -0.1958
      16    H10     18.158589   20.240402   22.364489 H          1 MOL1         0.0753
      17    H11     17.331031   20.275915   20.816676 H          1 MOL1         0.0753
      18    C7      17.151780   18.420162   21.841003 C.2        1 MOL1         0.6174
      19    O1      16.588616   17.808914   20.954083 O.co2      1 MOL1        -0.6695
      20    O2      17.087752   18.113106   23.015128 O.co2      1 MOL1        -0.6695
@<TRIPOS>BOND
    1     1     2    1
    2     1     3    1
    3     1     4    2
    4     4     5    1
    5     4     6    1
    6     6     7    1
    7     6     8    1
    8     6     9    1
    9     9    10    1
   10     9    11    1
   11     9    12    1
   12    12    13    1
   13    12    14    1
   14    12    15    1
   15    15    16    1
   16    15    17    1
   17    15    18    1
   18    18    19    1
   19    18    20    2
@<TRIPOS>SUBSTRUCTURE
       1 MOL1            1 RESIDUE      1      MOL     
@<SCITEGIC>MOL_PROPERTY
VConf Rank
SciTegic.value.IntegerValue
369

@<SCITEGIC>MOL_PROPERTY
Conf_Id
SciTegic.value.IntegerValue
84

@<SCITEGIC>MOL_PROPERTY
Delta U+W
SciTegic.value.DoubleValue
0.942

@<SCITEGIC>MOL_PROPERTY
U+W
SciTegic.value.DoubleValue
-50.803

@<SCITEGIC>MOL_PROPERTY
Grad RMS
SciTegic.value.DoubleValue
0.000000

@<SCITEGIC>MOL_PROPERTY
U
SciTegic.value.DoubleValue
10.196

@<SCITEGIC>MOL_PROPERTY
W
SciTegic.value.DoubleValue
-60.999

@<SCITEGIC>MOL_PROPERTY
W(PB)
SciTegic.value.DoubleValue
-63.182

@<SCITEGIC>MOL_PROPERTY
W(SA)
SciTegic.value.DoubleValue
2.182

@<SCITEGIC>MOL_PROPERTY
Valence
SciTegic.value.DoubleValue
9.837

@<SCITEGIC>MOL_PROPERTY
Coulomb
SciTegic.value.DoubleValue
0.032

@<SCITEGIC>MOL_PROPERTY
VdW
SciTegic.value.DoubleValue
0.328

@<SCITEGIC>MOL_PROPERTY
VdW6
SciTegic.value.DoubleValue
-7.642

@<SCITEGIC>MOL_PROPERTY
VdW12
SciTegic.value.DoubleValue
7.969

@<SCITEGIC>MOL_PROPERTY
Bond
SciTegic.value.DoubleValue
0.151

@<SCITEGIC>MOL_PROPERTY
Angle
SciTegic.value.DoubleValue
2.748

@<SCITEGIC>MOL_PROPERTY
Pdih
SciTegic.value.DoubleValue
6.937

@<SCITEGIC>MOL_PROPERTY
Idih
SciTegic.value.DoubleValue
0.001

@<SCITEGIC>MOL_PROPERTY
Tether
SciTegic.value.DoubleValue
0.000

@<TRIPOS>MOLECULE
guest-s22_confgen4.mol2 : confsearch ligand conformer 370
          20          19           1
SMALL
USER_CHARGES
 
@<TRIPOS>ATOM
       1    C1      18.249715   22.411746   22.263652 C.2        1 MOL1        -0.2535
       2    H1      18.367452   23.425183   22.643581 H          1 MOL1         0.0845
       3    H2      17.951356   22.298475   21.222626 H          1 MOL1         0.0845
       4    C2      18.466250   21.351687   23.046627 C.2        1 MOL1        -0.1324
       5    H3      18.765165   21.486906   24.085858 H          1 MOL1         0.0833
       6    C3      18.322002   19.916957   22.590111 C.3        1 MOL1        -0.1813
       7    H4      17.780009   19.874256   21.635539 H          1 MOL1         0.0753
       8    H5      17.721261   19.358010   23.320023 H          1 MOL1         0.0753
       9    C4      19.700292   19.242232   22.428481 C.3        1 MOL1        -0.1855
      10    H6      20.298054   19.810093   21.701919 H          1 MOL1         0.0755
      11    H7      20.241321   19.280919   23.383908 H          1 MOL1         0.0755
      12    C5      19.570246   17.773553   21.965443 C.3        1 MOL1        -0.1855
      13    H8      19.041776   17.732207   21.002779 H          1 MOL1         0.0755
      14    H9      18.955637   17.219081   22.687515 H          1 MOL1         0.0755
      15    C6      20.944199   17.067758   21.827635 C.3        1 MOL1        -0.1958
      16    H10     21.495881   17.124290   22.773840 H          1 MOL1         0.0753
      17    H11     20.789741   16.003724   21.613276 H          1 MOL1         0.0753
      18    C7      21.823631   17.633978   20.716380 C.2        1 MOL1         0.6174
      19    O1      22.767024   18.333613   21.028619 O.co2      1 MOL1        -0.6695
      20    O2      21.548562   17.348745   19.567430 O.co2      1 MOL1        -0.6695
@<TRIPOS>BOND
    1     1     2    1
    2     1     3    1
    3     1     4    2
    4     4     5    1
    5     4     6    1
    6     6     7    1
    7     6     8    1
    8     6     9    1
    9     9    10    1
   10     9    11    1
   11     9    12    1
   12    12    13    1
   13    12    14    1
   14    12    15    1
   15    15    16    1
   16    15    17    1
   17    15    18    1
   18    18    19    1
   19    18    20    2
@<TRIPOS>SUBSTRUCTURE
       1 MOL1            1 RESIDUE      1      MOL     
@<SCITEGIC>MOL_PROPERTY
VConf Rank
SciTegic.value.IntegerValue
370

@<SCITEGIC>MOL_PROPERTY
Conf_Id
SciTegic.value.IntegerValue
81

@<SCITEGIC>MOL_PROPERTY
Delta U+W
SciTegic.value.DoubleValue
-0.051

@<SCITEGIC>MOL_PROPERTY
U+W
SciTegic.value.DoubleValue
-51.796

@<SCITEGIC>MOL_PROPERTY
Grad RMS
SciTegic.value.DoubleValue
0.000000

@<SCITEGIC>MOL_PROPERTY
U
SciTegic.value.DoubleValue
9.412

@<SCITEGIC>MOL_PROPERTY
W
SciTegic.value.DoubleValue
-61.209

@<SCITEGIC>MOL_PROPERTY
W(PB)
SciTegic.value.DoubleValue
-63.452

@<SCITEGIC>MOL_PROPERTY
W(SA)
SciTegic.value.DoubleValue
2.243

@<SCITEGIC>MOL_PROPERTY
Valence
SciTegic.value.DoubleValue
9.329

@<SCITEGIC>MOL_PROPERTY
Coulomb
SciTegic.value.DoubleValue
-0.323

@<SCITEGIC>MOL_PROPERTY
VdW
SciTegic.value.DoubleValue
0.406

@<SCITEGIC>MOL_PROPERTY
VdW6
SciTegic.value.DoubleValue
-6.640

@<SCITEGIC>MOL_PROPERTY
VdW12
SciTegic.value.DoubleValue
7.046

@<SCITEGIC>MOL_PROPERTY
Bond
SciTegic.value.DoubleValue
0.105

@<SCITEGIC>MOL_PROPERTY
Angle
SciTegic.value.DoubleValue
2.401

@<SCITEGIC>MOL_PROPERTY
Pdih
SciTegic.value.DoubleValue
6.823

@<SCITEGIC>MOL_PROPERTY
Idih
SciTegic.value.DoubleValue
0.000

@<SCITEGIC>MOL_PROPERTY
Tether
SciTegic.value.DoubleValue
0.000

@<TRIPOS>MOLECULE
guest-s22_confgen4.mol2 : confsearch ligand conformer 371
          20          19           1
SMALL
USER_CHARGES
 
@<TRIPOS>ATOM
       1    C1      22.650195   18.356129   23.012543 C.2        1 MOL1        -0.2535
       2    H1      23.112078   19.278297   23.361442 H          1 MOL1         0.0845
       3    H2      23.129371   17.419064   23.290829 H          1 MOL1         0.0845
       4    C2      21.537410   18.369580   22.274162 C.2        1 MOL1        -0.1324
       5    H3      21.092435   17.435302   21.933066 H          1 MOL1         0.0833
       6    C3      20.819683   19.631300   21.844680 C.3        1 MOL1        -0.1813
       7    H4      20.543865   19.565345   20.784252 H          1 MOL1         0.0753
       8    H5      21.500385   20.489559   21.923748 H          1 MOL1         0.0753
       9    C4      19.564983   19.919169   22.703496 C.3        1 MOL1        -0.1855
      10    H6      19.876758   20.067231   23.746429 H          1 MOL1         0.0755
      11    H7      19.123122   20.871587   22.380030 H          1 MOL1         0.0755
      12    C5      18.480855   18.811571   22.658953 C.3        1 MOL1        -0.1855
      13    H8      17.652855   19.103015   23.319755 H          1 MOL1         0.0755
      14    H9      18.889464   17.881914   23.076650 H          1 MOL1         0.0755
      15    C6      17.910725   18.526811   21.242601 C.3        1 MOL1        -0.1958
      16    H10     18.699089   18.160141   20.575461 H          1 MOL1         0.0753
      17    H11     17.162306   17.728432   21.306384 H          1 MOL1         0.0753
      18    C7      17.237227   19.729951   20.588845 C.2        1 MOL1         0.6174
      19    O1      17.799250   20.268378   19.655404 O.co2      1 MOL1        -0.6695
      20    O2      16.158171   20.086264   21.020285 O.co2      1 MOL1        -0.6695
@<TRIPOS>BOND
    1     1     2    1
    2     1     3    1
    3     1     4    2
    4     4     5    1
    5     4     6    1
    6     6     7    1
    7     6     8    1
    8     6     9    1
    9     9    10    1
   10     9    11    1
   11     9    12    1
   12    12    13    1
   13    12    14    1
   14    12    15    1
   15    15    16    1
   16    15    17    1
   17    15    18    1
   18    18    19    1
   19    18    20    2
@<TRIPOS>SUBSTRUCTURE
       1 MOL1            1 RESIDUE      1      MOL     
@<SCITEGIC>MOL_PROPERTY
VConf Rank
SciTegic.value.IntegerValue
371

@<SCITEGIC>MOL_PROPERTY
Conf_Id
SciTegic.value.IntegerValue
86

@<SCITEGIC>MOL_PROPERTY
Delta U+W
SciTegic.value.DoubleValue
1.248

@<SCITEGIC>MOL_PROPERTY
U+W
SciTegic.value.DoubleValue
-50.498

@<SCITEGIC>MOL_PROPERTY
Grad RMS
SciTegic.value.DoubleValue
0.000000

@<SCITEGIC>MOL_PROPERTY
U
SciTegic.value.DoubleValue
10.404

@<SCITEGIC>MOL_PROPERTY
W
SciTegic.value.DoubleValue
-60.901

@<SCITEGIC>MOL_PROPERTY
W(PB)
SciTegic.value.DoubleValue
-63.061

@<SCITEGIC>MOL_PROPERTY
W(SA)
SciTegic.value.DoubleValue
2.159

@<SCITEGIC>MOL_PROPERTY
Valence
SciTegic.value.DoubleValue
10.021

@<SCITEGIC>MOL_PROPERTY
Coulomb
SciTegic.value.DoubleValue
0.094

@<SCITEGIC>MOL_PROPERTY
VdW
SciTegic.value.DoubleValue
0.289

@<SCITEGIC>MOL_PROPERTY
VdW6
SciTegic.value.DoubleValue
-8.409

@<SCITEGIC>MOL_PROPERTY
VdW12
SciTegic.value.DoubleValue
8.698

@<SCITEGIC>MOL_PROPERTY
Bond
SciTegic.value.DoubleValue
0.179

@<SCITEGIC>MOL_PROPERTY
Angle
SciTegic.value.DoubleValue
2.939

@<SCITEGIC>MOL_PROPERTY
Pdih
SciTegic.value.DoubleValue
6.902

@<SCITEGIC>MOL_PROPERTY
Idih
SciTegic.value.DoubleValue
0.001

@<SCITEGIC>MOL_PROPERTY
Tether
SciTegic.value.DoubleValue
0.000

@<TRIPOS>MOLECULE
guest-s22_confgen4.mol2 : confsearch ligand conformer 372
          20          19           1
SMALL
USER_CHARGES
 
@<TRIPOS>ATOM
       1    C1      17.792213   20.104204   19.867571 C.2        1 MOL1        -0.2535
       2    H1      16.893213   19.761607   19.358128 H          1 MOL1         0.0845
       3    H2      17.726235   21.034356   20.429608 H          1 MOL1         0.0845
       4    C2      18.929101   19.405830   19.806057 C.2        1 MOL1        -0.1324
       5    H3      18.973411   18.475917   19.239765 H          1 MOL1         0.0833
       6    C3      20.216940   19.817689   20.487156 C.3        1 MOL1        -0.1813
       7    H4      20.145476   20.848876   20.858916 H          1 MOL1         0.0753
       8    H5      21.030698   19.810111   19.749889 H          1 MOL1         0.0753
       9    C4      20.591900   18.874467   21.652402 C.3        1 MOL1        -0.1855
      10    H6      20.659749   17.842337   21.282229 H          1 MOL1         0.0755
      11    H7      21.593557   19.143189   22.015006 H          1 MOL1         0.0755
      12    C5      19.585498   18.945412   22.825314 C.3        1 MOL1        -0.1855
      13    H8      18.584939   18.670365   22.465733 H          1 MOL1         0.0755
      14    H9      19.515067   19.978547   23.192769 H          1 MOL1         0.0755
      15    C6      19.969734   18.006977   23.998657 C.3        1 MOL1        -0.1958
      16    H10     19.165312   18.003911   24.743530 H          1 MOL1         0.0753
      17    H11     20.074534   16.975839   23.640120 H          1 MOL1         0.0753
      18    C7      21.255379   18.406263   24.717276 C.2        1 MOL1         0.6174
      19    O1      21.214050   19.349091   25.483104 O.co2      1 MOL1        -0.6695
      20    O2      22.260699   17.758169   24.501884 O.co2      1 MOL1        -0.6695
@<TRIPOS>BOND
    1     1     2    1
    2     1     3    1
    3     1     4    2
    4     4     5    1
    5     4     6    1
    6     6     7    1
    7     6     8    1
    8     6     9    1
    9     9    10    1
   10     9    11    1
   11     9    12    1
   12    12    13    1
   13    12    14    1
   14    12    15    1
   15    15    16    1
   16    15    17    1
   17    15    18    1
   18    18    19    1
   19    18    20    2
@<TRIPOS>SUBSTRUCTURE
       1 MOL1            1 RESIDUE      1      MOL     
@<SCITEGIC>MOL_PROPERTY
VConf Rank
SciTegic.value.IntegerValue
372

@<SCITEGIC>MOL_PROPERTY
Conf_Id
SciTegic.value.IntegerValue
28

@<SCITEGIC>MOL_PROPERTY
Delta U+W
SciTegic.value.DoubleValue
0.446

@<SCITEGIC>MOL_PROPERTY
U+W
SciTegic.value.DoubleValue
-51.299

@<SCITEGIC>MOL_PROPERTY
Grad RMS
SciTegic.value.DoubleValue
0.000000

@<SCITEGIC>MOL_PROPERTY
U
SciTegic.value.DoubleValue
9.295

@<SCITEGIC>MOL_PROPERTY
W
SciTegic.value.DoubleValue
-60.594

@<SCITEGIC>MOL_PROPERTY
W(PB)
SciTegic.value.DoubleValue
-62.806

@<SCITEGIC>MOL_PROPERTY
W(SA)
SciTegic.value.DoubleValue
2.212

@<SCITEGIC>MOL_PROPERTY
Valence
SciTegic.value.DoubleValue
9.495

@<SCITEGIC>MOL_PROPERTY
Coulomb
SciTegic.value.DoubleValue
-0.610

@<SCITEGIC>MOL_PROPERTY
VdW
SciTegic.value.DoubleValue
0.409

@<SCITEGIC>MOL_PROPERTY
VdW6
SciTegic.value.DoubleValue
-7.332

@<SCITEGIC>MOL_PROPERTY
VdW12
SciTegic.value.DoubleValue
7.741

@<SCITEGIC>MOL_PROPERTY
Bond
SciTegic.value.DoubleValue
0.126

@<SCITEGIC>MOL_PROPERTY
Angle
SciTegic.value.DoubleValue
2.497

@<SCITEGIC>MOL_PROPERTY
Pdih
SciTegic.value.DoubleValue
6.872

@<SCITEGIC>MOL_PROPERTY
Idih
SciTegic.value.DoubleValue
0.000

@<SCITEGIC>MOL_PROPERTY
Tether
SciTegic.value.DoubleValue
0.000

@<TRIPOS>MOLECULE
guest-s22_confgen4.mol2 : confsearch ligand conformer 373
          20          19           1
SMALL
USER_CHARGES
 
@<TRIPOS>ATOM
       1    C1      17.488165   20.732354   23.656907 C.2        1 MOL1        -0.2535
       2    H1      17.913920   21.432742   22.941585 H          1 MOL1         0.0845
       3    H2      16.578429   21.043670   24.167400 H          1 MOL1         0.0845
       4    C2      18.038739   19.539239   23.908538 C.2        1 MOL1        -0.1324
       5    H3      17.564327   18.879454   24.634595 H          1 MOL1         0.0833
       6    C3      19.299739   18.969253   23.280484 C.3        1 MOL1        -0.1813
       7    H4      19.032103   18.055037   22.735287 H          1 MOL1         0.0753
       8    H5      19.978895   18.651732   24.082781 H          1 MOL1         0.0753
       9    C4      20.054126   19.937397   22.335921 C.3        1 MOL1        -0.1855
      10    H6      19.413547   20.192370   21.480456 H          1 MOL1         0.0755
      11    H7      20.253304   20.876087   22.870600 H          1 MOL1         0.0755
      12    C5      21.404306   19.375437   21.825748 C.3        1 MOL1        -0.1855
      13    H8      22.058171   19.169839   22.683989 H          1 MOL1         0.0755
      14    H9      21.908946   20.152049   21.234461 H          1 MOL1         0.0755
      15    C6      21.282249   18.091794   20.959710 C.3        1 MOL1        -0.1958
      16    H10     22.282900   17.763414   20.655536 H          1 MOL1         0.0753
      17    H11     20.850958   17.270358   21.542915 H          1 MOL1         0.0753
      18    C7      20.459217   18.273350   19.687483 C.2        1 MOL1         0.6174
      19    O1      20.932127   18.943370   18.790332 O.co2      1 MOL1        -0.6695
      20    O2      19.377538   17.723797   19.618061 O.co2      1 MOL1        -0.6695
@<TRIPOS>BOND
    1     1     2    1
    2     1     3    1
    3     1     4    2
    4     4     5    1
    5     4     6    1
    6     6     7    1
    7     6     8    1
    8     6     9    1
    9     9    10    1
   10     9    11    1
   11     9    12    1
   12    12    13    1
   13    12    14    1
   14    12    15    1
   15    15    16    1
   16    15    17    1
   17    15    18    1
   18    18    19    1
   19    18    20    2
@<TRIPOS>SUBSTRUCTURE
       1 MOL1            1 RESIDUE      1      MOL     
@<SCITEGIC>MOL_PROPERTY
VConf Rank
SciTegic.value.IntegerValue
373

@<SCITEGIC>MOL_PROPERTY
Conf_Id
SciTegic.value.IntegerValue
53

@<SCITEGIC>MOL_PROPERTY
Delta U+W
SciTegic.value.DoubleValue
0.549

@<SCITEGIC>MOL_PROPERTY
U+W
SciTegic.value.DoubleValue
-51.197

@<SCITEGIC>MOL_PROPERTY
Grad RMS
SciTegic.value.DoubleValue
0.000000

@<SCITEGIC>MOL_PROPERTY
U
SciTegic.value.DoubleValue
10.870

@<SCITEGIC>MOL_PROPERTY
W
SciTegic.value.DoubleValue
-62.067

@<SCITEGIC>MOL_PROPERTY
W(PB)
SciTegic.value.DoubleValue
-64.228

@<SCITEGIC>MOL_PROPERTY
W(SA)
SciTegic.value.DoubleValue
2.161

@<SCITEGIC>MOL_PROPERTY
Valence
SciTegic.value.DoubleValue
8.803

@<SCITEGIC>MOL_PROPERTY
Coulomb
SciTegic.value.DoubleValue
1.020

@<SCITEGIC>MOL_PROPERTY
VdW
SciTegic.value.DoubleValue
1.048

@<SCITEGIC>MOL_PROPERTY
VdW6
SciTegic.value.DoubleValue
-8.312

@<SCITEGIC>MOL_PROPERTY
VdW12
SciTegic.value.DoubleValue
9.360

@<SCITEGIC>MOL_PROPERTY
Bond
SciTegic.value.DoubleValue
0.212

@<SCITEGIC>MOL_PROPERTY
Angle
SciTegic.value.DoubleValue
3.379

@<SCITEGIC>MOL_PROPERTY
Pdih
SciTegic.value.DoubleValue
5.211

@<SCITEGIC>MOL_PROPERTY
Idih
SciTegic.value.DoubleValue
0.001

@<SCITEGIC>MOL_PROPERTY
Tether
SciTegic.value.DoubleValue
0.000

@<TRIPOS>MOLECULE
guest-s22_confgen4.mol2 : confsearch ligand conformer 374
          20          19           1
SMALL
USER_CHARGES
 
@<TRIPOS>ATOM
       1    C1      21.034713   20.856680   23.528997 C.2        1 MOL1        -0.2535
       2    H1      21.861420   20.181679   23.318691 H          1 MOL1         0.0845
       3    H2      21.100247   21.449638   24.439507 H          1 MOL1         0.0845
       4    C2      19.981607   20.968802   22.712265 C.2        1 MOL1        -0.1324
       5    H3      19.181320   21.662552   22.968299 H          1 MOL1         0.0833
       6    C3      19.757694   20.202776   21.418837 C.3        1 MOL1        -0.1813
       7    H4      20.051504   20.842026   20.575963 H          1 MOL1         0.0753
       8    H5      18.681041   20.038864   21.282709 H          1 MOL1         0.0753
       9    C4      20.488636   18.839588   21.303872 C.3        1 MOL1        -0.1855
      10    H6      20.304517   18.427805   20.302187 H          1 MOL1         0.0755
      11    H7      21.573081   19.000925   21.361085 H          1 MOL1         0.0755
      12    C5      20.070373   17.786354   22.363405 C.3        1 MOL1        -0.1855
      13    H8      20.316443   18.154724   23.367551 H          1 MOL1         0.0755
      14    H9      20.673615   16.880153   22.215363 H          1 MOL1         0.0755
      15    C6      18.567842   17.394922   22.324632 C.3        1 MOL1        -0.1958
      16    H10     18.366032   16.654051   23.106904 H          1 MOL1         0.0753
      17    H11     17.937387   18.262449   22.550294 H          1 MOL1         0.0753
      18    C7      18.114110   16.790822   20.998881 C.2        1 MOL1         0.6174
      19    O1      17.395945   17.455666   20.278201 O.co2      1 MOL1        -0.6695
      20    O2      18.477038   15.662314   20.730066 O.co2      1 MOL1        -0.6695
@<TRIPOS>BOND
    1     1     2    1
    2     1     3    1
    3     1     4    2
    4     4     5    1
    5     4     6    1
    6     6     7    1
    7     6     8    1
    8     6     9    1
    9     9    10    1
   10     9    11    1
   11     9    12    1
   12    12    13    1
   13    12    14    1
   14    12    15    1
   15    15    16    1
   16    15    17    1
   17    15    18    1
   18    18    19    1
   19    18    20    2
@<TRIPOS>SUBSTRUCTURE
       1 MOL1            1 RESIDUE      1      MOL     
@<SCITEGIC>MOL_PROPERTY
VConf Rank
SciTegic.value.IntegerValue
374

@<SCITEGIC>MOL_PROPERTY
Conf_Id
SciTegic.value.IntegerValue
66

@<SCITEGIC>MOL_PROPERTY
Delta U+W
SciTegic.value.DoubleValue
1.737

@<SCITEGIC>MOL_PROPERTY
U+W
SciTegic.value.DoubleValue
-50.008

@<SCITEGIC>MOL_PROPERTY
Grad RMS
SciTegic.value.DoubleValue
0.000000

@<SCITEGIC>MOL_PROPERTY
U
SciTegic.value.DoubleValue
11.091

@<SCITEGIC>MOL_PROPERTY
W
SciTegic.value.DoubleValue
-61.099

@<SCITEGIC>MOL_PROPERTY
W(PB)
SciTegic.value.DoubleValue
-63.213

@<SCITEGIC>MOL_PROPERTY
W(SA)
SciTegic.value.DoubleValue
2.114

@<SCITEGIC>MOL_PROPERTY
Valence
SciTegic.value.DoubleValue
9.664

@<SCITEGIC>MOL_PROPERTY
Coulomb
SciTegic.value.DoubleValue
0.658

@<SCITEGIC>MOL_PROPERTY
VdW
SciTegic.value.DoubleValue
0.769

@<SCITEGIC>MOL_PROPERTY
VdW6
SciTegic.value.DoubleValue
-9.171

@<SCITEGIC>MOL_PROPERTY
VdW12
SciTegic.value.DoubleValue
9.940

@<SCITEGIC>MOL_PROPERTY
Bond
SciTegic.value.DoubleValue
0.244

@<SCITEGIC>MOL_PROPERTY
Angle
SciTegic.value.DoubleValue
3.658

@<SCITEGIC>MOL_PROPERTY
Pdih
SciTegic.value.DoubleValue
5.762

@<SCITEGIC>MOL_PROPERTY
Idih
SciTegic.value.DoubleValue
0.001

@<SCITEGIC>MOL_PROPERTY
Tether
SciTegic.value.DoubleValue
0.000

@<TRIPOS>MOLECULE
guest-s22_confgen4.mol2 : confsearch ligand conformer 375
          20          19           1
SMALL
USER_CHARGES
 
@<TRIPOS>ATOM
       1    C1      19.299834   18.969186   24.670701 C.2        1 MOL1        -0.2535
       2    H1      19.347576   20.040251   24.487060 H          1 MOL1         0.0845
       3    H2      18.656627   18.635874   25.483180 H          1 MOL1         0.0845
       4    C2      19.997647   18.089233   23.944326 C.2        1 MOL1        -0.1324
       5    H3      19.914338   17.027162   24.173244 H          1 MOL1         0.0833
       6    C3      20.925445   18.408430   22.783333 C.3        1 MOL1        -0.1813
       7    H4      20.863439   17.598287   22.046128 H          1 MOL1         0.0753
       8    H5      21.961691   18.379400   23.145184 H          1 MOL1         0.0753
       9    C4      20.674933   19.761363   22.066999 C.3        1 MOL1        -0.1855
      10    H6      20.792581   20.582168   22.786674 H          1 MOL1         0.0755
      11    H7      21.461397   19.912098   21.315079 H          1 MOL1         0.0755
      12    C5      19.294507   19.880706   21.372102 C.3        1 MOL1        -0.1855
      13    H8      19.190143   20.899588   20.974398 H          1 MOL1         0.0755
      14    H9      18.487634   19.753476   22.105838 H          1 MOL1         0.0755
      15    C6      19.095628   18.871756   20.211334 C.3        1 MOL1        -0.1958
      16    H10     19.921316   18.950955   19.494314 H          1 MOL1         0.0753
      17    H11     19.090406   17.844063   20.591679 H          1 MOL1         0.0753
      18    C7      17.790831   19.093325   19.454592 C.2        1 MOL1         0.6174
      19    O1      16.803220   18.487694   19.821454 O.co2      1 MOL1        -0.6695
      20    O2      17.792905   19.877364   18.526038 O.co2      1 MOL1        -0.6695
@<TRIPOS>BOND
    1     1     2    1
    2     1     3    1
    3     1     4    2
    4     4     5    1
    5     4     6    1
    6     6     7    1
    7     6     8    1
    8     6     9    1
    9     9    10    1
   10     9    11    1
   11     9    12    1
   12    12    13    1
   13    12    14    1
   14    12    15    1
   15    15    16    1
   16    15    17    1
   17    15    18    1
   18    18    19    1
   19    18    20    2
@<TRIPOS>SUBSTRUCTURE
       1 MOL1            1 RESIDUE      1      MOL     
@<SCITEGIC>MOL_PROPERTY
VConf Rank
SciTegic.value.IntegerValue
375

@<SCITEGIC>MOL_PROPERTY
Conf_Id
SciTegic.value.IntegerValue
64

@<SCITEGIC>MOL_PROPERTY
Delta U+W
SciTegic.value.DoubleValue
0.366

@<SCITEGIC>MOL_PROPERTY
U+W
SciTegic.value.DoubleValue
-51.379

@<SCITEGIC>MOL_PROPERTY
Grad RMS
SciTegic.value.DoubleValue
0.000000

@<SCITEGIC>MOL_PROPERTY
U
SciTegic.value.DoubleValue
10.000

@<SCITEGIC>MOL_PROPERTY
W
SciTegic.value.DoubleValue
-61.379

@<SCITEGIC>MOL_PROPERTY
W(PB)
SciTegic.value.DoubleValue
-63.541

@<SCITEGIC>MOL_PROPERTY
W(SA)
SciTegic.value.DoubleValue
2.162

@<SCITEGIC>MOL_PROPERTY
Valence
SciTegic.value.DoubleValue
9.398

@<SCITEGIC>MOL_PROPERTY
Coulomb
SciTegic.value.DoubleValue
-0.504

@<SCITEGIC>MOL_PROPERTY
VdW
SciTegic.value.DoubleValue
1.105

@<SCITEGIC>MOL_PROPERTY
VdW6
SciTegic.value.DoubleValue
-7.975

@<SCITEGIC>MOL_PROPERTY
VdW12
SciTegic.value.DoubleValue
9.080

@<SCITEGIC>MOL_PROPERTY
Bond
SciTegic.value.DoubleValue
0.216

@<SCITEGIC>MOL_PROPERTY
Angle
SciTegic.value.DoubleValue
3.417

@<SCITEGIC>MOL_PROPERTY
Pdih
SciTegic.value.DoubleValue
5.765

@<SCITEGIC>MOL_PROPERTY
Idih
SciTegic.value.DoubleValue
0.001

@<SCITEGIC>MOL_PROPERTY
Tether
SciTegic.value.DoubleValue
0.000

@<TRIPOS>MOLECULE
guest-s22_confgen4.mol2 : confsearch ligand conformer 376
          20          19           1
SMALL
USER_CHARGES
 
@<TRIPOS>ATOM
       1    C1      20.148085   22.053277   22.379772 C.2        1 MOL1        -0.2535
       2    H1      19.819288   21.907762   23.407457 H          1 MOL1         0.0845
       3    H2      19.756665   22.917531   21.845957 H          1 MOL1         0.0845
       4    C2      20.995417   21.204464   21.791929 C.2        1 MOL1        -0.1324
       5    H3      21.310173   21.366888   20.761425 H          1 MOL1         0.0833
       6    C3      21.580141   19.982928   22.468631 C.3        1 MOL1        -0.1813
       7    H4      21.378873   20.005483   23.548287 H          1 MOL1         0.0753
       8    H5      22.672432   19.999338   22.356940 H          1 MOL1         0.0753
       9    C4      21.037581   18.665594   21.870130 C.3        1 MOL1        -0.1855
      10    H6      21.238330   18.643445   20.790180 H          1 MOL1         0.0755
      11    H7      21.588417   17.822918   22.309856 H          1 MOL1         0.0755
      12    C5      19.525286   18.472739   22.125777 C.3        1 MOL1        -0.1855
      13    H8      18.960424   19.296105   21.667270 H          1 MOL1         0.0755
      14    H9      19.324510   18.512304   23.205319 H          1 MOL1         0.0755
      15    C6      19.011891   17.126550   21.558132 C.3        1 MOL1        -0.1958
      16    H10     19.194189   17.077425   20.477881 H          1 MOL1         0.0753
      17    H11     19.553276   16.290605   22.017027 H          1 MOL1         0.0753
      18    C7      17.521534   16.913132   21.797676 C.2        1 MOL1         0.6174
      19    O1      17.177691   16.383266   22.835830 O.co2      1 MOL1        -0.6695
      20    O2      16.742925   17.294859   20.946358 O.co2      1 MOL1        -0.6695
@<TRIPOS>BOND
    1     1     2    1
    2     1     3    1
    3     1     4    2
    4     4     5    1
    5     4     6    1
    6     6     7    1
    7     6     8    1
    8     6     9    1
    9     9    10    1
   10     9    11    1
   11     9    12    1
   12    12    13    1
   13    12    14    1
   14    12    15    1
   15    15    16    1
   16    15    17    1
   17    15    18    1
   18    18    19    1
   19    18    20    2
@<TRIPOS>SUBSTRUCTURE
       1 MOL1            1 RESIDUE      1      MOL     
@<SCITEGIC>MOL_PROPERTY
VConf Rank
SciTegic.value.IntegerValue
376

@<SCITEGIC>MOL_PROPERTY
Conf_Id
SciTegic.value.IntegerValue
42

@<SCITEGIC>MOL_PROPERTY
Delta U+W
SciTegic.value.DoubleValue
-0.601

@<SCITEGIC>MOL_PROPERTY
U+W
SciTegic.value.DoubleValue
-52.347

@<SCITEGIC>MOL_PROPERTY
Grad RMS
SciTegic.value.DoubleValue
0.000000

@<SCITEGIC>MOL_PROPERTY
U
SciTegic.value.DoubleValue
8.428

@<SCITEGIC>MOL_PROPERTY
W
SciTegic.value.DoubleValue
-60.774

@<SCITEGIC>MOL_PROPERTY
W(PB)
SciTegic.value.DoubleValue
-62.982

@<SCITEGIC>MOL_PROPERTY
W(SA)
SciTegic.value.DoubleValue
2.208

@<SCITEGIC>MOL_PROPERTY
Valence
SciTegic.value.DoubleValue
9.231

@<SCITEGIC>MOL_PROPERTY
Coulomb
SciTegic.value.DoubleValue
-1.304

@<SCITEGIC>MOL_PROPERTY
VdW
SciTegic.value.DoubleValue
0.501

@<SCITEGIC>MOL_PROPERTY
VdW6
SciTegic.value.DoubleValue
-6.515

@<SCITEGIC>MOL_PROPERTY
VdW12
SciTegic.value.DoubleValue
7.016

@<SCITEGIC>MOL_PROPERTY
Bond
SciTegic.value.DoubleValue
0.103

@<SCITEGIC>MOL_PROPERTY
Angle
SciTegic.value.DoubleValue
2.328

@<SCITEGIC>MOL_PROPERTY
Pdih
SciTegic.value.DoubleValue
6.799

@<SCITEGIC>MOL_PROPERTY
Idih
SciTegic.value.DoubleValue
0.000

@<SCITEGIC>MOL_PROPERTY
Tether
SciTegic.value.DoubleValue
0.000

@<TRIPOS>MOLECULE
guest-s22_confgen4.mol2 : confsearch ligand conformer 377
          20          19           1
SMALL
USER_CHARGES
 
@<TRIPOS>ATOM
       1    C1      18.821082   16.883158   23.752535 C.2        1 MOL1        -0.2535
       2    H1      18.298092   17.498433   24.482818 H          1 MOL1         0.0845
       3    H2      19.359728   16.013151   24.124078 H          1 MOL1         0.0845
       4    C2      18.808125   17.182962   22.451008 C.2        1 MOL1        -0.1324
       5    H3      19.340587   16.555547   21.736696 H          1 MOL1         0.0833
       6    C3      18.084163   18.374448   21.860969 C.3        1 MOL1        -0.1813
       7    H4      17.421878   18.833224   22.607637 H          1 MOL1         0.0753
       8    H5      17.437527   18.032041   21.042172 H          1 MOL1         0.0753
       9    C4      19.060207   19.439635   21.312630 C.3        1 MOL1        -0.1855
      10    H6      19.717114   18.980213   20.561136 H          1 MOL1         0.0755
      11    H7      18.483292   20.215576   20.791260 H          1 MOL1         0.0755
      12    C5      19.910244   20.098828   22.424462 C.3        1 MOL1        -0.1855
      13    H8      20.524720   19.339279   22.927311 H          1 MOL1         0.0755
      14    H9      19.242849   20.520198   23.188179 H          1 MOL1         0.0755
      15    C6      20.830852   21.223235   21.883156 C.3        1 MOL1        -0.1958
      16    H10     20.236405   21.979624   21.356625 H          1 MOL1         0.0753
      17    H11     21.320150   21.731633   22.722268 H          1 MOL1         0.0753
      18    C7      21.928536   20.727791   20.945906 C.2        1 MOL1         0.6174
      19    O1      21.786244   20.899175   19.751107 O.co2      1 MOL1        -0.6695
      20    O2      22.906175   20.199399   21.437962 O.co2      1 MOL1        -0.6695
@<TRIPOS>BOND
    1     1     2    1
    2     1     3    1
    3     1     4    2
    4     4     5    1
    5     4     6    1
    6     6     7    1
    7     6     8    1
    8     6     9    1
    9     9    10    1
   10     9    11    1
   11     9    12    1
   12    12    13    1
   13    12    14    1
   14    12    15    1
   15    15    16    1
   16    15    17    1
   17    15    18    1
   18    18    19    1
   19    18    20    2
@<TRIPOS>SUBSTRUCTURE
       1 MOL1            1 RESIDUE      1      MOL     
@<SCITEGIC>MOL_PROPERTY
VConf Rank
SciTegic.value.IntegerValue
377

@<SCITEGIC>MOL_PROPERTY
Conf_Id
SciTegic.value.IntegerValue
68

@<SCITEGIC>MOL_PROPERTY
Delta U+W
SciTegic.value.DoubleValue
0.492

@<SCITEGIC>MOL_PROPERTY
U+W
SciTegic.value.DoubleValue
-51.253

@<SCITEGIC>MOL_PROPERTY
Grad RMS
SciTegic.value.DoubleValue
0.000000

@<SCITEGIC>MOL_PROPERTY
U
SciTegic.value.DoubleValue
10.179

@<SCITEGIC>MOL_PROPERTY
W
SciTegic.value.DoubleValue
-61.432

@<SCITEGIC>MOL_PROPERTY
W(PB)
SciTegic.value.DoubleValue
-63.627

@<SCITEGIC>MOL_PROPERTY
W(SA)
SciTegic.value.DoubleValue
2.195

@<SCITEGIC>MOL_PROPERTY
Valence
SciTegic.value.DoubleValue
9.483

@<SCITEGIC>MOL_PROPERTY
Coulomb
SciTegic.value.DoubleValue
0.361

@<SCITEGIC>MOL_PROPERTY
VdW
SciTegic.value.DoubleValue
0.335

@<SCITEGIC>MOL_PROPERTY
VdW6
SciTegic.value.DoubleValue
-7.385

@<SCITEGIC>MOL_PROPERTY
VdW12
SciTegic.value.DoubleValue
7.720

@<SCITEGIC>MOL_PROPERTY
Bond
SciTegic.value.DoubleValue
0.125

@<SCITEGIC>MOL_PROPERTY
Angle
SciTegic.value.DoubleValue
2.487

@<SCITEGIC>MOL_PROPERTY
Pdih
SciTegic.value.DoubleValue
6.870

@<SCITEGIC>MOL_PROPERTY
Idih
SciTegic.value.DoubleValue
0.001

@<SCITEGIC>MOL_PROPERTY
Tether
SciTegic.value.DoubleValue
0.000

@<TRIPOS>MOLECULE
guest-s22_confgen4.mol2 : confsearch ligand conformer 378
          20          19           1
SMALL
USER_CHARGES
 
@<TRIPOS>ATOM
       1    C1      17.561155   20.333308   24.241921 C.2        1 MOL1        -0.2535
       2    H1      16.634676   20.373983   23.671419 H          1 MOL1         0.0845
       3    H2      17.697903   21.072903   25.028990 H          1 MOL1         0.0845
       4    C2      18.497463   19.415698   23.986939 C.2        1 MOL1        -0.1324
       5    H3      19.416385   19.391156   24.571939 H          1 MOL1         0.0833
       6    C3      18.374305   18.354475   22.914363 C.3        1 MOL1        -0.1813
       7    H4      17.319920   18.235138   22.630549 H          1 MOL1         0.0753
       8    H5      18.697668   17.382716   23.310744 H          1 MOL1         0.0753
       9    C4      19.191424   18.699801   21.648959 C.3        1 MOL1        -0.1855
      10    H6      18.959220   17.965163   20.865930 H          1 MOL1         0.0755
      11    H7      18.870468   19.678149   21.265006 H          1 MOL1         0.0755
      12    C5      20.717761   18.706691   21.901896 C.3        1 MOL1        -0.1855
      13    H8      21.018311   17.741543   22.331395 H          1 MOL1         0.0755
      14    H9      20.973044   19.476554   22.642813 H          1 MOL1         0.0755
      15    C6      21.534050   18.957462   20.607430 C.3        1 MOL1        -0.1958
      16    H10     22.602973   18.837050   20.819352 H          1 MOL1         0.0753
      17    H11     21.275611   18.212179   19.845508 H          1 MOL1         0.0753
      18    C7      21.340104   20.349283   20.012403 C.2        1 MOL1         0.6174
      19    O1      21.920287   21.280840   20.534605 O.co2      1 MOL1        -0.6695
      20    O2      20.630748   20.462699   19.032059 O.co2      1 MOL1        -0.6695
@<TRIPOS>BOND
    1     1     2    1
    2     1     3    1
    3     1     4    2
    4     4     5    1
    5     4     6    1
    6     6     7    1
    7     6     8    1
    8     6     9    1
    9     9    10    1
   10     9    11    1
   11     9    12    1
   12    12    13    1
   13    12    14    1
   14    12    15    1
   15    15    16    1
   16    15    17    1
   17    15    18    1
   18    18    19    1
   19    18    20    2
@<TRIPOS>SUBSTRUCTURE
       1 MOL1            1 RESIDUE      1      MOL     
@<SCITEGIC>MOL_PROPERTY
VConf Rank
SciTegic.value.IntegerValue
378

@<SCITEGIC>MOL_PROPERTY
Conf_Id
SciTegic.value.IntegerValue
87

@<SCITEGIC>MOL_PROPERTY
Delta U+W
SciTegic.value.DoubleValue
0.339

@<SCITEGIC>MOL_PROPERTY
U+W
SciTegic.value.DoubleValue
-51.407

@<SCITEGIC>MOL_PROPERTY
Grad RMS
SciTegic.value.DoubleValue
0.000000

@<SCITEGIC>MOL_PROPERTY
U
SciTegic.value.DoubleValue
10.461

@<SCITEGIC>MOL_PROPERTY
W
SciTegic.value.DoubleValue
-61.867

@<SCITEGIC>MOL_PROPERTY
W(PB)
SciTegic.value.DoubleValue
-64.045

@<SCITEGIC>MOL_PROPERTY
W(SA)
SciTegic.value.DoubleValue
2.178

@<SCITEGIC>MOL_PROPERTY
Valence
SciTegic.value.DoubleValue
9.555

@<SCITEGIC>MOL_PROPERTY
Coulomb
SciTegic.value.DoubleValue
0.483

@<SCITEGIC>MOL_PROPERTY
VdW
SciTegic.value.DoubleValue
0.423

@<SCITEGIC>MOL_PROPERTY
VdW6
SciTegic.value.DoubleValue
-7.223

@<SCITEGIC>MOL_PROPERTY
VdW12
SciTegic.value.DoubleValue
7.646

@<SCITEGIC>MOL_PROPERTY
Bond
SciTegic.value.DoubleValue
0.126

@<SCITEGIC>MOL_PROPERTY
Angle
SciTegic.value.DoubleValue
2.492

@<SCITEGIC>MOL_PROPERTY
Pdih
SciTegic.value.DoubleValue
6.936

@<SCITEGIC>MOL_PROPERTY
Idih
SciTegic.value.DoubleValue
0.001

@<SCITEGIC>MOL_PROPERTY
Tether
SciTegic.value.DoubleValue
0.000

@<TRIPOS>MOLECULE
guest-s22_confgen4.mol2 : confsearch ligand conformer 379
          20          19           1
SMALL
USER_CHARGES
 
@<TRIPOS>ATOM
       1    C1      21.931890   18.679304   20.393412 C.2        1 MOL1        -0.2535
       2    H1      22.727309   18.729921   21.135142 H          1 MOL1         0.0845
       3    H2      22.080682   18.017786   19.541782 H          1 MOL1         0.0845
       4    C2      20.814119   19.398754   20.522612 C.2        1 MOL1        -0.1324
       5    H3      20.033278   19.341425   19.765123 H          1 MOL1         0.0833
       6    C3      20.546435   20.346624   21.672175 C.3        1 MOL1        -0.1813
       7    H4      19.761041   21.063847   21.398895 H          1 MOL1         0.0753
       8    H5      21.450014   20.946413   21.845974 H          1 MOL1         0.0753
       9    C4      20.172647   19.628727   22.992808 C.3        1 MOL1        -0.1855
      10    H6      20.855480   18.786291   23.168805 H          1 MOL1         0.0755
      11    H7      20.343553   20.332340   23.818916 H          1 MOL1         0.0755
      12    C5      18.701854   19.149061   23.081057 C.3        1 MOL1        -0.1855
      13    H8      18.022260   19.991084   22.890821 H          1 MOL1         0.0755
      14    H9      18.506967   18.823956   24.112471 H          1 MOL1         0.0755
      15    C6      18.355499   17.977439   22.126801 C.3        1 MOL1        -0.1958
      16    H10     18.393748   18.306577   21.083592 H          1 MOL1         0.0753
      17    H11     19.084343   17.166266   22.241297 H          1 MOL1         0.0753
      18    C7      16.965059   17.404714   22.376386 C.2        1 MOL1         0.6174
      19    O1      16.025004   17.902645   21.788807 O.co2      1 MOL1        -0.6695
      20    O2      16.855172   16.489136   23.167919 O.co2      1 MOL1        -0.6695
@<TRIPOS>BOND
    1     1     2    1
    2     1     3    1
    3     1     4    2
    4     4     5    1
    5     4     6    1
    6     6     7    1
    7     6     8    1
    8     6     9    1
    9     9    10    1
   10     9    11    1
   11     9    12    1
   12    12    13    1
   13    12    14    1
   14    12    15    1
   15    15    16    1
   16    15    17    1
   17    15    18    1
   18    18    19    1
   19    18    20    2
@<TRIPOS>SUBSTRUCTURE
       1 MOL1            1 RESIDUE      1      MOL     
@<SCITEGIC>MOL_PROPERTY
VConf Rank
SciTegic.value.IntegerValue
379

@<SCITEGIC>MOL_PROPERTY
Conf_Id
SciTegic.value.IntegerValue
51

@<SCITEGIC>MOL_PROPERTY
Delta U+W
SciTegic.value.DoubleValue
1.709

@<SCITEGIC>MOL_PROPERTY
U+W
SciTegic.value.DoubleValue
-50.036

@<SCITEGIC>MOL_PROPERTY
Grad RMS
SciTegic.value.DoubleValue
0.000000

@<SCITEGIC>MOL_PROPERTY
U
SciTegic.value.DoubleValue
10.643

@<SCITEGIC>MOL_PROPERTY
W
SciTegic.value.DoubleValue
-60.679

@<SCITEGIC>MOL_PROPERTY
W(PB)
SciTegic.value.DoubleValue
-62.882

@<SCITEGIC>MOL_PROPERTY
W(SA)
SciTegic.value.DoubleValue
2.203

@<SCITEGIC>MOL_PROPERTY
Valence
SciTegic.value.DoubleValue
11.231

@<SCITEGIC>MOL_PROPERTY
Coulomb
SciTegic.value.DoubleValue
-1.077

@<SCITEGIC>MOL_PROPERTY
VdW
SciTegic.value.DoubleValue
0.489

@<SCITEGIC>MOL_PROPERTY
VdW6
SciTegic.value.DoubleValue
-7.546

@<SCITEGIC>MOL_PROPERTY
VdW12
SciTegic.value.DoubleValue
8.035

@<SCITEGIC>MOL_PROPERTY
Bond
SciTegic.value.DoubleValue
0.159

@<SCITEGIC>MOL_PROPERTY
Angle
SciTegic.value.DoubleValue
3.005

@<SCITEGIC>MOL_PROPERTY
Pdih
SciTegic.value.DoubleValue
8.065

@<SCITEGIC>MOL_PROPERTY
Idih
SciTegic.value.DoubleValue
0.002

@<SCITEGIC>MOL_PROPERTY
Tether
SciTegic.value.DoubleValue
0.000

@<TRIPOS>MOLECULE
guest-s22_confgen4.mol2 : confsearch ligand conformer 380
          20          19           1
SMALL
USER_CHARGES
 
@<TRIPOS>ATOM
       1    C1      20.409175   16.401676   21.732025 C.2        1 MOL1        -0.2535
       2    H1      21.308757   16.460549   21.121531 H          1 MOL1         0.0845
       3    H2      19.757879   15.541881   21.585101 H          1 MOL1         0.0845
       4    C2      20.112551   17.348549   22.625983 C.2        1 MOL1        -0.1324
       5    H3      19.212247   17.267359   23.233976 H          1 MOL1         0.0833
       6    C3      20.977434   18.562358   22.891022 C.3        1 MOL1        -0.1813
       7    H4      22.023338   18.234944   22.963772 H          1 MOL1         0.0753
       8    H5      20.732958   18.997398   23.869238 H          1 MOL1         0.0753
       9    C4      20.878208   19.646302   21.789027 C.3        1 MOL1        -0.1855
      10    H6      21.762761   20.292468   21.871304 H          1 MOL1         0.0755
      11    H7      20.937773   19.179440   20.796342 H          1 MOL1         0.0755
      12    C5      19.624535   20.552817   21.876432 C.3        1 MOL1        -0.1855
      13    H8      19.750481   21.383844   21.168604 H          1 MOL1         0.0755
      14    H9      19.560639   21.006776   22.874869 H          1 MOL1         0.0755
      15    C6      18.292291   19.830952   21.548855 C.3        1 MOL1        -0.1958
      16    H10     18.375142   19.295018   20.595842 H          1 MOL1         0.0753
      17    H11     18.055426   19.091490   22.320331 H          1 MOL1         0.0753
      18    C7      17.110373   20.788846   21.453322 C.2        1 MOL1         0.6174
      19    O1      16.494425   21.043927   22.469407 O.co2      1 MOL1        -0.6695
      20    O2      16.848851   21.271184   20.368960 O.co2      1 MOL1        -0.6695
@<TRIPOS>BOND
    1     1     2    1
    2     1     3    1
    3     1     4    2
    4     4     5    1
    5     4     6    1
    6     6     7    1
    7     6     8    1
    8     6     9    1
    9     9    10    1
   10     9    11    1
   11     9    12    1
   12    12    13    1
   13    12    14    1
   14    12    15    1
   15    15    16    1
   16    15    17    1
   17    15    18    1
   18    18    19    1
   19    18    20    2
@<TRIPOS>SUBSTRUCTURE
       1 MOL1            1 RESIDUE      1      MOL     
@<SCITEGIC>MOL_PROPERTY
VConf Rank
SciTegic.value.IntegerValue
380

@<SCITEGIC>MOL_PROPERTY
Conf_Id
SciTegic.value.IntegerValue
91

@<SCITEGIC>MOL_PROPERTY
Delta U+W
SciTegic.value.DoubleValue
1.604

@<SCITEGIC>MOL_PROPERTY
U+W
SciTegic.value.DoubleValue
-50.141

@<SCITEGIC>MOL_PROPERTY
Grad RMS
SciTegic.value.DoubleValue
0.000000

@<SCITEGIC>MOL_PROPERTY
U
SciTegic.value.DoubleValue
10.644

@<SCITEGIC>MOL_PROPERTY
W
SciTegic.value.DoubleValue
-60.786

@<SCITEGIC>MOL_PROPERTY
W(PB)
SciTegic.value.DoubleValue
-62.965

@<SCITEGIC>MOL_PROPERTY
W(SA)
SciTegic.value.DoubleValue
2.179

@<SCITEGIC>MOL_PROPERTY
Valence
SciTegic.value.DoubleValue
11.230

@<SCITEGIC>MOL_PROPERTY
Coulomb
SciTegic.value.DoubleValue
-1.075

@<SCITEGIC>MOL_PROPERTY
VdW
SciTegic.value.DoubleValue
0.489

@<SCITEGIC>MOL_PROPERTY
VdW6
SciTegic.value.DoubleValue
-7.547

@<SCITEGIC>MOL_PROPERTY
VdW12
SciTegic.value.DoubleValue
8.036

@<SCITEGIC>MOL_PROPERTY
Bond
SciTegic.value.DoubleValue
0.159

@<SCITEGIC>MOL_PROPERTY
Angle
SciTegic.value.DoubleValue
3.006

@<SCITEGIC>MOL_PROPERTY
Pdih
SciTegic.value.DoubleValue
8.064

@<SCITEGIC>MOL_PROPERTY
Idih
SciTegic.value.DoubleValue
0.002

@<SCITEGIC>MOL_PROPERTY
Tether
SciTegic.value.DoubleValue
0.000

@<TRIPOS>MOLECULE
guest-s22_confgen4.mol2 : confsearch ligand conformer 381
          20          19           1
SMALL
USER_CHARGES
 
@<TRIPOS>ATOM
       1    C1      23.098517   20.651558   21.586231 C.2        1 MOL1        -0.2535
       2    H1      22.658465   21.329068   20.856214 H          1 MOL1         0.0845
       3    H2      24.182496   20.550239   21.585914 H          1 MOL1         0.0845
       4    C2      22.341729   19.967737   22.448387 C.2        1 MOL1        -0.1324
       5    H3      22.802108   19.294032   23.170765 H          1 MOL1         0.0833
       6    C3      20.833115   20.057704   22.508662 C.3        1 MOL1        -0.1813
       7    H4      20.481349   20.931620   21.943564 H          1 MOL1         0.0753
       8    H5      20.515076   20.205621   23.549390 H          1 MOL1         0.0753
       9    C4      20.175854   18.781428   21.942976 C.3        1 MOL1        -0.1855
      10    H6      20.500513   18.635849   20.903366 H          1 MOL1         0.0755
      11    H7      20.524438   17.908196   22.511409 H          1 MOL1         0.0755
      12    C5      18.634283   18.855318   21.999671 C.3        1 MOL1        -0.1855
      13    H8      18.284842   19.728220   21.430922 H          1 MOL1         0.0755
      14    H9      18.309021   19.002154   23.038982 H          1 MOL1         0.0755
      15    C6      17.973637   17.571813   21.429970 C.3        1 MOL1        -0.1958
      16    H10     18.288939   17.422634   20.390622 H          1 MOL1         0.0753
      17    H11     18.313022   16.697120   21.997101 H          1 MOL1         0.0753
      18    C7      16.444298   17.561966   21.448437 C.2        1 MOL1         0.6174
      19    O1      15.890886   16.572573   21.011430 O.co2      1 MOL1        -0.6695
      20    O2      15.840488   18.521089   21.889054 O.co2      1 MOL1        -0.6695
@<TRIPOS>BOND
    1     1     2    1
    2     1     3    1
    3     1     4    2
    4     4     5    1
    5     4     6    1
    6     6     7    1
    7     6     8    1
    8     6     9    1
    9     9    10    1
   10     9    11    1
   11     9    12    1
   12    12    13    1
   13    12    14    1
   14    12    15    1
   15    15    16    1
   16    15    17    1
   17    15    18    1
   18    18    19    1
   19    18    20    2
@<TRIPOS>SUBSTRUCTURE
       1 MOL1            1 RESIDUE      1      MOL     
@<SCITEGIC>MOL_PROPERTY
VConf Rank
SciTegic.value.IntegerValue
381

@<SCITEGIC>MOL_PROPERTY
Conf_Id
SciTegic.value.IntegerValue
33

@<SCITEGIC>MOL_PROPERTY
Delta U+W
SciTegic.value.DoubleValue
0.000

@<SCITEGIC>MOL_PROPERTY
U+W
SciTegic.value.DoubleValue
-51.745

@<SCITEGIC>MOL_PROPERTY
Grad RMS
SciTegic.value.DoubleValue
0.000000

@<SCITEGIC>MOL_PROPERTY
U
SciTegic.value.DoubleValue
7.593

@<SCITEGIC>MOL_PROPERTY
W
SciTegic.value.DoubleValue
-59.338

@<SCITEGIC>MOL_PROPERTY
W(PB)
SciTegic.value.DoubleValue
-61.574

@<SCITEGIC>MOL_PROPERTY
W(SA)
SciTegic.value.DoubleValue
2.236

@<SCITEGIC>MOL_PROPERTY
Valence
SciTegic.value.DoubleValue
9.570

@<SCITEGIC>MOL_PROPERTY
Coulomb
SciTegic.value.DoubleValue
-3.091

@<SCITEGIC>MOL_PROPERTY
VdW
SciTegic.value.DoubleValue
1.114

@<SCITEGIC>MOL_PROPERTY
VdW6
SciTegic.value.DoubleValue
-6.064

@<SCITEGIC>MOL_PROPERTY
VdW12
SciTegic.value.DoubleValue
7.178

@<SCITEGIC>MOL_PROPERTY
Bond
SciTegic.value.DoubleValue
0.117

@<SCITEGIC>MOL_PROPERTY
Angle
SciTegic.value.DoubleValue
2.692

@<SCITEGIC>MOL_PROPERTY
Pdih
SciTegic.value.DoubleValue
6.761

@<SCITEGIC>MOL_PROPERTY
Idih
SciTegic.value.DoubleValue
0.000

@<SCITEGIC>MOL_PROPERTY
Tether
SciTegic.value.DoubleValue
0.000

@<TRIPOS>MOLECULE
guest-s22_confgen4.mol2 : confsearch ligand conformer 382
          20          19           1
SMALL
USER_CHARGES
 
@<TRIPOS>ATOM
       1    C1      16.659470   19.095618   23.843296 C.2        1 MOL1        -0.2535
       2    H1      16.344487   19.984048   23.298269 H          1 MOL1         0.0845
       3    H2      16.075261   18.810255   24.716525 H          1 MOL1         0.0845
       4    C2      17.721769   18.382403   23.460519 C.2        1 MOL1        -0.1324
       5    H3      18.020885   17.496655   24.020529 H          1 MOL1         0.0833
       6    C3      18.579440   18.716308   22.260255 C.3        1 MOL1        -0.1813
       7    H4      18.068404   19.448415   21.620367 H          1 MOL1         0.0753
       8    H5      18.721300   17.811190   21.656361 H          1 MOL1         0.0753
       9    C4      19.949132   19.282542   22.697441 C.3        1 MOL1        -0.1855
      10    H6      19.780796   20.135823   23.368943 H          1 MOL1         0.0755
      11    H7      20.490619   18.528132   23.284511 H          1 MOL1         0.0755
      12    C5      20.829114   19.751835   21.514404 C.3        1 MOL1        -0.1855
      13    H8      21.727731   20.240398   21.916010 H          1 MOL1         0.0755
      14    H9      20.294079   20.516149   20.933926 H          1 MOL1         0.0755
      15    C6      21.267216   18.599472   20.573607 C.3        1 MOL1        -0.1958
      16    H10     21.765194   17.809765   21.148729 H          1 MOL1         0.0753
      17    H11     20.396940   18.147191   20.084930 H          1 MOL1         0.0753
      18    C7      22.223475   19.062822   19.480518 C.2        1 MOL1         0.6174
      19    O1      21.749806   19.461206   18.434747 O.co2      1 MOL1        -0.6695
      20    O2      23.416248   19.031820   19.710879 O.co2      1 MOL1        -0.6695
@<TRIPOS>BOND
    1     1     2    1
    2     1     3    1
    3     1     4    2
    4     4     5    1
    5     4     6    1
    6     6     7    1
    7     6     8    1
    8     6     9    1
    9     9    10    1
   10     9    11    1
   11     9    12    1
   12    12    13    1
   13    12    14    1
   14    12    15    1
   15    15    16    1
   16    15    17    1
   17    15    18    1
   18    18    19    1
   19    18    20    2
@<TRIPOS>SUBSTRUCTURE
       1 MOL1            1 RESIDUE      1      MOL     
@<SCITEGIC>MOL_PROPERTY
VConf Rank
SciTegic.value.IntegerValue
382

@<SCITEGIC>MOL_PROPERTY
Conf_Id
SciTegic.value.IntegerValue
37

@<SCITEGIC>MOL_PROPERTY
Delta U+W
SciTegic.value.DoubleValue
-0.384

@<SCITEGIC>MOL_PROPERTY
U+W
SciTegic.value.DoubleValue
-52.130

@<SCITEGIC>MOL_PROPERTY
Grad RMS
SciTegic.value.DoubleValue
0.000000

@<SCITEGIC>MOL_PROPERTY
U
SciTegic.value.DoubleValue
7.491

@<SCITEGIC>MOL_PROPERTY
W
SciTegic.value.DoubleValue
-59.621

@<SCITEGIC>MOL_PROPERTY
W(PB)
SciTegic.value.DoubleValue
-61.853

@<SCITEGIC>MOL_PROPERTY
W(SA)
SciTegic.value.DoubleValue
2.232

@<SCITEGIC>MOL_PROPERTY
Valence
SciTegic.value.DoubleValue
9.604

@<SCITEGIC>MOL_PROPERTY
Coulomb
SciTegic.value.DoubleValue
-2.799

@<SCITEGIC>MOL_PROPERTY
VdW
SciTegic.value.DoubleValue
0.686

@<SCITEGIC>MOL_PROPERTY
VdW6
SciTegic.value.DoubleValue
-6.435

@<SCITEGIC>MOL_PROPERTY
VdW12
SciTegic.value.DoubleValue
7.121

@<SCITEGIC>MOL_PROPERTY
Bond
SciTegic.value.DoubleValue
0.124

@<SCITEGIC>MOL_PROPERTY
Angle
SciTegic.value.DoubleValue
2.493

@<SCITEGIC>MOL_PROPERTY
Pdih
SciTegic.value.DoubleValue
6.986

@<SCITEGIC>MOL_PROPERTY
Idih
SciTegic.value.DoubleValue
0.001

@<SCITEGIC>MOL_PROPERTY
Tether
SciTegic.value.DoubleValue
0.000

@<TRIPOS>MOLECULE
guest-s22_confgen4.mol2 : confsearch ligand conformer 383
          20          19           1
SMALL
USER_CHARGES
 
@<TRIPOS>ATOM
       1    C1      19.019043   17.252336   24.643507 C.2        1 MOL1        -0.2535
       2    H1      18.770291   16.695223   25.545138 H          1 MOL1         0.0845
       3    H2      19.088913   16.683591   23.718740 H          1 MOL1         0.0845
       4    C2      19.225347   18.573331   24.691737 C.2        1 MOL1        -0.1324
       5    H3      19.141201   19.088195   25.648535 H          1 MOL1         0.0833
       6    C3      19.577703   19.480983   23.525106 C.3        1 MOL1        -0.1813
       7    H4      20.521403   19.995400   23.750804 H          1 MOL1         0.0753
       8    H5      18.819448   20.272086   23.452032 H          1 MOL1         0.0753
       9    C4      19.702245   18.770016   22.157262 C.3        1 MOL1        -0.1855
      10    H6      20.474421   17.990795   22.217648 H          1 MOL1         0.0755
      11    H7      18.754008   18.270461   21.915646 H          1 MOL1         0.0755
      12    C5      20.061463   19.760457   21.028098 C.3        1 MOL1        -0.1855
      13    H8      21.009457   20.263737   21.263944 H          1 MOL1         0.0755
      14    H9      19.292563   20.542828   20.962569 H          1 MOL1         0.0755
      15    C6      20.186739   19.050937   19.657343 C.3        1 MOL1        -0.1958
      16    H10     20.960440   18.275039   19.701736 H          1 MOL1         0.0753
      17    H11     19.243502   18.554055   19.400408 H          1 MOL1         0.0753
      18    C7      20.541028   20.008608   18.525383 C.2        1 MOL1         0.6174
      19    O1      21.716291   20.207380   18.288964 O.co2      1 MOL1        -0.6695
      20    O2      19.632555   20.545685   17.922994 O.co2      1 MOL1        -0.6695
@<TRIPOS>BOND
    1     1     2    1
    2     1     3    1
    3     1     4    2
    4     4     5    1
    5     4     6    1
    6     6     7    1
    7     6     8    1
    8     6     9    1
    9     9    10    1
   10     9    11    1
   11     9    12    1
   12    12    13    1
   13    12    14    1
   14    12    15    1
   15    15    16    1
   16    15    17    1
   17    15    18    1
   18    18    19    1
   19    18    20    2
@<TRIPOS>SUBSTRUCTURE
       1 MOL1            1 RESIDUE      1      MOL     
@<SCITEGIC>MOL_PROPERTY
VConf Rank
SciTegic.value.IntegerValue
383

@<SCITEGIC>MOL_PROPERTY
Conf_Id
SciTegic.value.IntegerValue
44

@<SCITEGIC>MOL_PROPERTY
Delta U+W
SciTegic.value.DoubleValue
-1.440

@<SCITEGIC>MOL_PROPERTY
U+W
SciTegic.value.DoubleValue
-53.185

@<SCITEGIC>MOL_PROPERTY
Grad RMS
SciTegic.value.DoubleValue
0.000000

@<SCITEGIC>MOL_PROPERTY
U
SciTegic.value.DoubleValue
6.572

@<SCITEGIC>MOL_PROPERTY
W
SciTegic.value.DoubleValue
-59.757

@<SCITEGIC>MOL_PROPERTY
W(PB)
SciTegic.value.DoubleValue
-62.007

@<SCITEGIC>MOL_PROPERTY
W(SA)
SciTegic.value.DoubleValue
2.249

@<SCITEGIC>MOL_PROPERTY
Valence
SciTegic.value.DoubleValue
7.989

@<SCITEGIC>MOL_PROPERTY
Coulomb
SciTegic.value.DoubleValue
-2.697

@<SCITEGIC>MOL_PROPERTY
VdW
SciTegic.value.DoubleValue
1.281

@<SCITEGIC>MOL_PROPERTY
VdW6
SciTegic.value.DoubleValue
-6.467

@<SCITEGIC>MOL_PROPERTY
VdW12
SciTegic.value.DoubleValue
7.748

@<SCITEGIC>MOL_PROPERTY
Bond
SciTegic.value.DoubleValue
0.136

@<SCITEGIC>MOL_PROPERTY
Angle
SciTegic.value.DoubleValue
2.854

@<SCITEGIC>MOL_PROPERTY
Pdih
SciTegic.value.DoubleValue
4.997

@<SCITEGIC>MOL_PROPERTY
Idih
SciTegic.value.DoubleValue
0.001

@<SCITEGIC>MOL_PROPERTY
Tether
SciTegic.value.DoubleValue
0.000

@<TRIPOS>MOLECULE
guest-s22_confgen4.mol2 : confsearch ligand conformer 384
          20          19           1
SMALL
USER_CHARGES
 
@<TRIPOS>ATOM
       1    C1      21.592964   16.405189   23.223046 C.2        1 MOL1        -0.2535
       2    H1      20.586614   16.005025   23.335762 H          1 MOL1         0.0845
       3    H2      22.397208   15.893891   23.749373 H          1 MOL1         0.0845
       4    C2      21.835331   17.482432   22.471699 C.2        1 MOL1        -0.1324
       5    H3      22.850088   17.867241   22.372574 H          1 MOL1         0.0833
       6    C3      20.771411   18.242828   21.711587 C.3        1 MOL1        -0.1813
       7    H4      19.856294   17.640233   21.648015 H          1 MOL1         0.0753
       8    H5      21.109825   18.415648   20.681276 H          1 MOL1         0.0753
       9    C4      20.464918   19.596754   22.390488 C.3        1 MOL1        -0.1855
      10    H6      20.074601   19.420555   23.402318 H          1 MOL1         0.0755
      11    H7      21.404079   20.153504   22.513335 H          1 MOL1         0.0755
      12    C5      19.471300   20.476061   21.594331 C.3        1 MOL1        -0.1855
      13    H8      19.864942   20.661178   20.585297 H          1 MOL1         0.0755
      14    H9      19.399335   21.457279   22.083753 H          1 MOL1         0.0755
      15    C6      18.049289   19.865805   21.491713 C.3        1 MOL1        -0.1958
      16    H10     18.071063   18.927009   20.927009 H          1 MOL1         0.0753
      17    H11     17.663074   19.635677   22.491851 H          1 MOL1         0.0753
      18    C7      17.056960   20.796804   20.804360 C.2        1 MOL1         0.6174
      19    O1      16.431260   21.577980   21.493562 O.co2      1 MOL1        -0.6695
      20    O2      16.950228   20.730255   19.595686 O.co2      1 MOL1        -0.6695
@<TRIPOS>BOND
    1     1     2    1
    2     1     3    1
    3     1     4    2
    4     4     5    1
    5     4     6    1
    6     6     7    1
    7     6     8    1
    8     6     9    1
    9     9    10    1
   10     9    11    1
   11     9    12    1
   12    12    13    1
   13    12    14    1
   14    12    15    1
   15    15    16    1
   16    15    17    1
   17    15    18    1
   18    18    19    1
   19    18    20    2
@<TRIPOS>SUBSTRUCTURE
       1 MOL1            1 RESIDUE      1      MOL     
@<SCITEGIC>MOL_PROPERTY
VConf Rank
SciTegic.value.IntegerValue
384

@<SCITEGIC>MOL_PROPERTY
Conf_Id
SciTegic.value.IntegerValue
38

@<SCITEGIC>MOL_PROPERTY
Delta U+W
SciTegic.value.DoubleValue
-0.381

@<SCITEGIC>MOL_PROPERTY
U+W
SciTegic.value.DoubleValue
-52.126

@<SCITEGIC>MOL_PROPERTY
Grad RMS
SciTegic.value.DoubleValue
0.000000

@<SCITEGIC>MOL_PROPERTY
U
SciTegic.value.DoubleValue
7.601

@<SCITEGIC>MOL_PROPERTY
W
SciTegic.value.DoubleValue
-59.727

@<SCITEGIC>MOL_PROPERTY
W(PB)
SciTegic.value.DoubleValue
-61.964

@<SCITEGIC>MOL_PROPERTY
W(SA)
SciTegic.value.DoubleValue
2.236

@<SCITEGIC>MOL_PROPERTY
Valence
SciTegic.value.DoubleValue
9.602

@<SCITEGIC>MOL_PROPERTY
Coulomb
SciTegic.value.DoubleValue
-2.686

@<SCITEGIC>MOL_PROPERTY
VdW
SciTegic.value.DoubleValue
0.685

@<SCITEGIC>MOL_PROPERTY
VdW6
SciTegic.value.DoubleValue
-6.453

@<SCITEGIC>MOL_PROPERTY
VdW12
SciTegic.value.DoubleValue
7.139

@<SCITEGIC>MOL_PROPERTY
Bond
SciTegic.value.DoubleValue
0.125

@<SCITEGIC>MOL_PROPERTY
Angle
SciTegic.value.DoubleValue
2.485

@<SCITEGIC>MOL_PROPERTY
Pdih
SciTegic.value.DoubleValue
6.991

@<SCITEGIC>MOL_PROPERTY
Idih
SciTegic.value.DoubleValue
0.001

@<SCITEGIC>MOL_PROPERTY
Tether
SciTegic.value.DoubleValue
0.000

@<TRIPOS>MOLECULE
guest-s22_confgen4.mol2 : confsearch ligand conformer 385
          20          19           1
SMALL
USER_CHARGES
 
@<TRIPOS>ATOM
       1    C1      23.182856   18.629661   22.602106 C.2        1 MOL1        -0.2535
       2    H1      23.301140   19.534489   23.196137 H          1 MOL1         0.0845
       3    H2      23.919021   17.839647   22.740696 H          1 MOL1         0.0845
       4    C2      22.174354   18.489292   21.737881 C.2        1 MOL1        -0.1324
       5    H3      22.073475   17.574971   21.153501 H          1 MOL1         0.0833
       6    C3      21.116132   19.541527   21.491677 C.3        1 MOL1        -0.1813
       7    H4      20.996399   19.696276   20.411009 H          1 MOL1         0.0753
       8    H5      21.431415   20.504467   21.916039 H          1 MOL1         0.0753
       9    C4      19.763569   19.126140   22.107337 C.3        1 MOL1        -0.1855
      10    H6      19.449384   18.164004   21.679537 H          1 MOL1         0.0755
      11    H7      19.888411   18.967603   23.187407 H          1 MOL1         0.0755
      12    C5      18.669588   20.189805   21.862073 C.3        1 MOL1        -0.1855
      13    H8      18.534724   20.343152   20.782262 H          1 MOL1         0.0755
      14    H9      18.999087   21.151084   22.279155 H          1 MOL1         0.0755
      15    C6      17.309572   19.804392   22.499808 C.3        1 MOL1        -0.1958
      16    H10     17.433235   19.620588   23.573951 H          1 MOL1         0.0753
      17    H11     16.607643   20.640583   22.399520 H          1 MOL1         0.0753
      18    C7      16.653516   18.579761   21.868352 C.2        1 MOL1         0.6174
      19    O1      16.683339   17.530362   22.480596 O.co2      1 MOL1        -0.6695
      20    O2      16.119853   18.711429   20.784394 O.co2      1 MOL1        -0.6695
@<TRIPOS>BOND
    1     1     2    1
    2     1     3    1
    3     1     4    2
    4     4     5    1
    5     4     6    1
    6     6     7    1
    7     6     8    1
    8     6     9    1
    9     9    10    1
   10     9    11    1
   11     9    12    1
   12    12    13    1
   13    12    14    1
   14    12    15    1
   15    15    16    1
   16    15    17    1
   17    15    18    1
   18    18    19    1
   19    18    20    2
@<TRIPOS>SUBSTRUCTURE
       1 MOL1            1 RESIDUE      1      MOL     
@<SCITEGIC>MOL_PROPERTY
VConf Rank
SciTegic.value.IntegerValue
385

@<SCITEGIC>MOL_PROPERTY
Conf_Id
SciTegic.value.IntegerValue
58

@<SCITEGIC>MOL_PROPERTY
Delta U+W
SciTegic.value.DoubleValue
0.019

@<SCITEGIC>MOL_PROPERTY
U+W
SciTegic.value.DoubleValue
-51.727

@<SCITEGIC>MOL_PROPERTY
Grad RMS
SciTegic.value.DoubleValue
0.000000

@<SCITEGIC>MOL_PROPERTY
U
SciTegic.value.DoubleValue
8.963

@<SCITEGIC>MOL_PROPERTY
W
SciTegic.value.DoubleValue
-60.690

@<SCITEGIC>MOL_PROPERTY
W(PB)
SciTegic.value.DoubleValue
-62.934

@<SCITEGIC>MOL_PROPERTY
W(SA)
SciTegic.value.DoubleValue
2.244

@<SCITEGIC>MOL_PROPERTY
Valence
SciTegic.value.DoubleValue
9.327

@<SCITEGIC>MOL_PROPERTY
Coulomb
SciTegic.value.DoubleValue
-0.780

@<SCITEGIC>MOL_PROPERTY
VdW
SciTegic.value.DoubleValue
0.417

@<SCITEGIC>MOL_PROPERTY
VdW6
SciTegic.value.DoubleValue
-6.635

@<SCITEGIC>MOL_PROPERTY
VdW12
SciTegic.value.DoubleValue
7.052

@<SCITEGIC>MOL_PROPERTY
Bond
SciTegic.value.DoubleValue
0.105

@<SCITEGIC>MOL_PROPERTY
Angle
SciTegic.value.DoubleValue
2.399

@<SCITEGIC>MOL_PROPERTY
Pdih
SciTegic.value.DoubleValue
6.822

@<SCITEGIC>MOL_PROPERTY
Idih
SciTegic.value.DoubleValue
0.000

@<SCITEGIC>MOL_PROPERTY
Tether
SciTegic.value.DoubleValue
0.000

@<TRIPOS>MOLECULE
guest-s22_confgen4.mol2 : confsearch ligand conformer 386
          20          19           1
SMALL
USER_CHARGES
 
@<TRIPOS>ATOM
       1    C1      18.219131   20.287443   25.086418 C.2        1 MOL1        -0.2535
       2    H1      17.219254   20.034439   24.737403 H          1 MOL1         0.0845
       3    H2      18.298819   21.008702   25.898023 H          1 MOL1         0.0845
       4    C2      19.307979   19.738834   24.541345 C.2        1 MOL1        -0.1324
       5    H3      20.299910   20.006463   24.904812 H          1 MOL1         0.0833
       6    C3      19.275763   18.731340   23.413710 C.3        1 MOL1        -0.1813
       7    H4      18.259524   18.333561   23.288129 H          1 MOL1         0.0753
       8    H5      19.920403   17.878357   23.664679 H          1 MOL1         0.0753
       9    C4      19.748180   19.363781   22.087870 C.3        1 MOL1        -0.1855
      10    H6      19.103982   20.219434   21.842638 H          1 MOL1         0.0755
      11    H7      20.765596   19.758761   22.215491 H          1 MOL1         0.0755
      12    C5      19.724191   18.346156   20.925031 C.3        1 MOL1        -0.1855
      13    H8      18.707334   17.945473   20.815313 H          1 MOL1         0.0755
      14    H9      20.376037   17.493878   21.162544 H          1 MOL1         0.0755
      15    C6      20.166902   18.971090   19.576565 C.3        1 MOL1        -0.1958
      16    H10     20.018596   18.244085   18.769442 H          1 MOL1         0.0753
      17    H11     19.542774   19.841094   19.339045 H          1 MOL1         0.0753
      18    C7      21.631543   19.398313   19.542352 C.2        1 MOL1         0.6174
      19    O1      22.477644   18.532958   19.431138 O.co2      1 MOL1        -0.6695
      20    O2      21.887525   20.584039   19.616490 O.co2      1 MOL1        -0.6695
@<TRIPOS>BOND
    1     1     2    1
    2     1     3    1
    3     1     4    2
    4     4     5    1
    5     4     6    1
    6     6     7    1
    7     6     8    1
    8     6     9    1
    9     9    10    1
   10     9    11    1
   11     9    12    1
   12    12    13    1
   13    12    14    1
   14    12    15    1
   15    15    16    1
   16    15    17    1
   17    15    18    1
   18    18    19    1
   19    18    20    2
@<TRIPOS>SUBSTRUCTURE
       1 MOL1            1 RESIDUE      1      MOL     
@<SCITEGIC>MOL_PROPERTY
VConf Rank
SciTegic.value.IntegerValue
386

@<SCITEGIC>MOL_PROPERTY
Conf_Id
SciTegic.value.IntegerValue
54

@<SCITEGIC>MOL_PROPERTY
Delta U+W
SciTegic.value.DoubleValue
-0.048

@<SCITEGIC>MOL_PROPERTY
U+W
SciTegic.value.DoubleValue
-51.793

@<SCITEGIC>MOL_PROPERTY
Grad RMS
SciTegic.value.DoubleValue
0.000000

@<SCITEGIC>MOL_PROPERTY
U
SciTegic.value.DoubleValue
8.964

@<SCITEGIC>MOL_PROPERTY
W
SciTegic.value.DoubleValue
-60.756

@<SCITEGIC>MOL_PROPERTY
W(PB)
SciTegic.value.DoubleValue
-63.007

@<SCITEGIC>MOL_PROPERTY
W(SA)
SciTegic.value.DoubleValue
2.251

@<SCITEGIC>MOL_PROPERTY
Valence
SciTegic.value.DoubleValue
9.327

@<SCITEGIC>MOL_PROPERTY
Coulomb
SciTegic.value.DoubleValue
-0.780

@<SCITEGIC>MOL_PROPERTY
VdW
SciTegic.value.DoubleValue
0.417

@<SCITEGIC>MOL_PROPERTY
VdW6
SciTegic.value.DoubleValue
-6.635

@<SCITEGIC>MOL_PROPERTY
VdW12
SciTegic.value.DoubleValue
7.052

@<SCITEGIC>MOL_PROPERTY
Bond
SciTegic.value.DoubleValue
0.105

@<SCITEGIC>MOL_PROPERTY
Angle
SciTegic.value.DoubleValue
2.399

@<SCITEGIC>MOL_PROPERTY
Pdih
SciTegic.value.DoubleValue
6.822

@<SCITEGIC>MOL_PROPERTY
Idih
SciTegic.value.DoubleValue
0.000

@<SCITEGIC>MOL_PROPERTY
Tether
SciTegic.value.DoubleValue
0.000

@<TRIPOS>MOLECULE
guest-s22_confgen4.mol2 : confsearch ligand conformer 387
          20          19           1
SMALL
USER_CHARGES
 
@<TRIPOS>ATOM
       1    C1      21.973542   16.763306   23.081549 C.2        1 MOL1        -0.2535
       2    H1      22.127601   16.269686   24.039564 H          1 MOL1         0.0845
       3    H2      22.116090   16.166977   22.181781 H          1 MOL1         0.0845
       4    C2      21.620506   18.049715   23.016843 C.2        1 MOL1        -0.1324
       5    H3      21.486484   18.629284   23.929746 H          1 MOL1         0.0833
       6    C3      21.396125   18.802838   21.722893 C.3        1 MOL1        -0.1813
       7    H4      21.892635   18.275505   20.897103 H          1 MOL1         0.0753
       8    H5      21.865287   19.794113   21.780379 H          1 MOL1         0.0753
       9    C4      19.896489   18.954774   21.382000 C.3        1 MOL1        -0.1855
      10    H6      19.807036   19.382205   20.373891 H          1 MOL1         0.0755
      11    H7      19.428173   17.961642   21.343183 H          1 MOL1         0.0755
      12    C5      19.138453   19.852719   22.388569 C.3        1 MOL1        -0.1855
      13    H8      19.615484   20.841350   22.438436 H          1 MOL1         0.0755
      14    H9      19.208343   19.416624   23.393771 H          1 MOL1         0.0755
      15    C6      17.640618   20.022858   22.024255 C.3        1 MOL1        -0.1958
      16    H10     17.158202   19.041735   21.937636 H          1 MOL1         0.0753
      17    H11     17.126350   20.559431   22.830216 H          1 MOL1         0.0753
      18    C7      17.399985   20.800135   20.733220 C.2        1 MOL1         0.6174
      19    O1      17.070792   20.180676   19.740773 O.co2      1 MOL1        -0.6695
      20    O2      17.538005   22.007390   20.757721 O.co2      1 MOL1        -0.6695
@<TRIPOS>BOND
    1     1     2    1
    2     1     3    1
    3     1     4    2
    4     4     5    1
    5     4     6    1
    6     6     7    1
    7     6     8    1
    8     6     9    1
    9     9    10    1
   10     9    11    1
   11     9    12    1
   12    12    13    1
   13    12    14    1
   14    12    15    1
   15    15    16    1
   16    15    17    1
   17    15    18    1
   18    18    19    1
   19    18    20    2
@<TRIPOS>SUBSTRUCTURE
       1 MOL1            1 RESIDUE      1      MOL     
@<SCITEGIC>MOL_PROPERTY
VConf Rank
SciTegic.value.IntegerValue
387

@<SCITEGIC>MOL_PROPERTY
Conf_Id
SciTegic.value.IntegerValue
27

@<SCITEGIC>MOL_PROPERTY
Delta U+W
SciTegic.value.DoubleValue
0.478

@<SCITEGIC>MOL_PROPERTY
U+W
SciTegic.value.DoubleValue
-51.267

@<SCITEGIC>MOL_PROPERTY
Grad RMS
SciTegic.value.DoubleValue
0.000000

@<SCITEGIC>MOL_PROPERTY
U
SciTegic.value.DoubleValue
9.192

@<SCITEGIC>MOL_PROPERTY
W
SciTegic.value.DoubleValue
-60.459

@<SCITEGIC>MOL_PROPERTY
W(PB)
SciTegic.value.DoubleValue
-62.649

@<SCITEGIC>MOL_PROPERTY
W(SA)
SciTegic.value.DoubleValue
2.190

@<SCITEGIC>MOL_PROPERTY
Valence
SciTegic.value.DoubleValue
9.572

@<SCITEGIC>MOL_PROPERTY
Coulomb
SciTegic.value.DoubleValue
-0.884

@<SCITEGIC>MOL_PROPERTY
VdW
SciTegic.value.DoubleValue
0.504

@<SCITEGIC>MOL_PROPERTY
VdW6
SciTegic.value.DoubleValue
-7.168

@<SCITEGIC>MOL_PROPERTY
VdW12
SciTegic.value.DoubleValue
7.672

@<SCITEGIC>MOL_PROPERTY
Bond
SciTegic.value.DoubleValue
0.127

@<SCITEGIC>MOL_PROPERTY
Angle
SciTegic.value.DoubleValue
2.504

@<SCITEGIC>MOL_PROPERTY
Pdih
SciTegic.value.DoubleValue
6.941

@<SCITEGIC>MOL_PROPERTY
Idih
SciTegic.value.DoubleValue
0.001

@<SCITEGIC>MOL_PROPERTY
Tether
SciTegic.value.DoubleValue
0.000

@<TRIPOS>MOLECULE
guest-s22_confgen4.mol2 : confsearch ligand conformer 388
          20          19           1
SMALL
USER_CHARGES
 
@<TRIPOS>ATOM
       1    C1      18.006209   21.431192   20.684171 C.2        1 MOL1        -0.2535
       2    H1      18.349881   22.310767   21.226152 H          1 MOL1         0.0845
       3    H2      16.988261   21.446237   20.298486 H          1 MOL1         0.0845
       4    C2      18.798299   20.371727   20.500309 C.2        1 MOL1        -0.1324
       5    H3      18.435282   19.502831   19.952102 H          1 MOL1         0.0833
       6    C3      20.224034   20.282353   21.001397 C.3        1 MOL1        -0.1813
       7    H4      20.607675   21.290605   21.208287 H          1 MOL1         0.0753
       8    H5      20.870033   19.862471   20.218809 H          1 MOL1         0.0753
       9    C4      20.343417   19.433671   22.287300 C.3        1 MOL1        -0.1855
      10    H6      21.369277   19.516360   22.671556 H          1 MOL1         0.0755
      11    H7      19.683253   19.849166   23.061157 H          1 MOL1         0.0755
      12    C5      20.006716   17.942515   22.056807 C.3        1 MOL1        -0.1855
      13    H8      20.650093   17.535394   21.264547 H          1 MOL1         0.0755
      14    H9      18.969521   17.841551   21.709363 H          1 MOL1         0.0755
      15    C6      20.191262   17.105106   23.346283 C.3        1 MOL1        -0.1958
      16    H10     21.226146   17.178828   23.701411 H          1 MOL1         0.0753
      17    H11     19.546010   17.491963   24.144156 H          1 MOL1         0.0753
      18    C7      19.863850   15.629782   23.145612 C.2        1 MOL1         0.6174
      19    O1      18.721193   15.264168   23.338799 O.co2      1 MOL1        -0.6695
      20    O2      20.756257   14.888299   22.784346 O.co2      1 MOL1        -0.6695
@<TRIPOS>BOND
    1     1     2    1
    2     1     3    1
    3     1     4    2
    4     4     5    1
    5     4     6    1
    6     6     7    1
    7     6     8    1
    8     6     9    1
    9     9    10    1
   10     9    11    1
   11     9    12    1
   12    12    13    1
   13    12    14    1
   14    12    15    1
   15    15    16    1
   16    15    17    1
   17    15    18    1
   18    18    19    1
   19    18    20    2
@<TRIPOS>SUBSTRUCTURE
       1 MOL1            1 RESIDUE      1      MOL     
@<SCITEGIC>MOL_PROPERTY
VConf Rank
SciTegic.value.IntegerValue
388

@<SCITEGIC>MOL_PROPERTY
Conf_Id
SciTegic.value.IntegerValue
41

@<SCITEGIC>MOL_PROPERTY
Delta U+W
SciTegic.value.DoubleValue
-0.634

@<SCITEGIC>MOL_PROPERTY
U+W
SciTegic.value.DoubleValue
-52.379

@<SCITEGIC>MOL_PROPERTY
Grad RMS
SciTegic.value.DoubleValue
0.000000

@<SCITEGIC>MOL_PROPERTY
U
SciTegic.value.DoubleValue
7.828

@<SCITEGIC>MOL_PROPERTY
W
SciTegic.value.DoubleValue
-60.207

@<SCITEGIC>MOL_PROPERTY
W(PB)
SciTegic.value.DoubleValue
-62.449

@<SCITEGIC>MOL_PROPERTY
W(SA)
SciTegic.value.DoubleValue
2.242

@<SCITEGIC>MOL_PROPERTY
Valence
SciTegic.value.DoubleValue
9.300

@<SCITEGIC>MOL_PROPERTY
Coulomb
SciTegic.value.DoubleValue
-2.080

@<SCITEGIC>MOL_PROPERTY
VdW
SciTegic.value.DoubleValue
0.608

@<SCITEGIC>MOL_PROPERTY
VdW6
SciTegic.value.DoubleValue
-6.341

@<SCITEGIC>MOL_PROPERTY
VdW12
SciTegic.value.DoubleValue
6.949

@<SCITEGIC>MOL_PROPERTY
Bond
SciTegic.value.DoubleValue
0.103

@<SCITEGIC>MOL_PROPERTY
Angle
SciTegic.value.DoubleValue
2.334

@<SCITEGIC>MOL_PROPERTY
Pdih
SciTegic.value.DoubleValue
6.862

@<SCITEGIC>MOL_PROPERTY
Idih
SciTegic.value.DoubleValue
0.001

@<SCITEGIC>MOL_PROPERTY
Tether
SciTegic.value.DoubleValue
0.000

@<TRIPOS>MOLECULE
guest-s22_confgen4.mol2 : confsearch ligand conformer 389
          20          19           1
SMALL
USER_CHARGES
 
@<TRIPOS>ATOM
       1    C1      20.300947   21.206128   24.692939 C.2        1 MOL1        -0.2535
       2    H1      19.928411   21.564384   25.651119 H          1 MOL1         0.0845
       3    H2      21.305943   21.507355   24.401740 H          1 MOL1         0.0845
       4    C2      19.551981   20.425907   23.909345 C.2        1 MOL1        -0.1324
       5    H3      18.548519   20.134998   24.219348 H          1 MOL1         0.0833
       6    C3      20.000342   19.891543   22.567322 C.3        1 MOL1        -0.1813
       7    H4      20.893190   20.430333   22.222499 H          1 MOL1         0.0753
       8    H5      19.211373   20.073594   21.826148 H          1 MOL1         0.0753
       9    C4      20.308459   18.379630   22.647066 C.3        1 MOL1        -0.1855
      10    H6      21.025310   18.206395   23.461481 H          1 MOL1         0.0755
      11    H7      19.395158   17.832495   22.918697 H          1 MOL1         0.0755
      12    C5      20.899162   17.798663   21.338732 C.3        1 MOL1        -0.1855
      13    H8      21.159698   16.744377   21.506025 H          1 MOL1         0.0755
      14    H9      21.840474   18.314775   21.106420 H          1 MOL1         0.0755
      15    C6      19.952376   17.889241   20.110802 C.3        1 MOL1        -0.1958
      16    H10     19.731019   18.934904   19.868739 H          1 MOL1         0.0753
      17    H11     20.455636   17.467799   19.232837 H          1 MOL1         0.0753
      18    C7      18.635258   17.138035   20.282921 C.2        1 MOL1         0.6174
      19    O1      18.661911   15.923081   20.258778 O.co2      1 MOL1        -0.6695
      20    O2      17.616034   17.785939   20.418404 O.co2      1 MOL1        -0.6695
@<TRIPOS>BOND
    1     1     2    1
    2     1     3    1
    3     1     4    2
    4     4     5    1
    5     4     6    1
    6     6     7    1
    7     6     8    1
    8     6     9    1
    9     9    10    1
   10     9    11    1
   11     9    12    1
   12    12    13    1
   13    12    14    1
   14    12    15    1
   15    15    16    1
   16    15    17    1
   17    15    18    1
   18    18    19    1
   19    18    20    2
@<TRIPOS>SUBSTRUCTURE
       1 MOL1            1 RESIDUE      1      MOL     
@<SCITEGIC>MOL_PROPERTY
VConf Rank
SciTegic.value.IntegerValue
389

@<SCITEGIC>MOL_PROPERTY
Conf_Id
SciTegic.value.IntegerValue
84

@<SCITEGIC>MOL_PROPERTY
Delta U+W
SciTegic.value.DoubleValue
0.942

@<SCITEGIC>MOL_PROPERTY
U+W
SciTegic.value.DoubleValue
-50.803

@<SCITEGIC>MOL_PROPERTY
Grad RMS
SciTegic.value.DoubleValue
0.000000

@<SCITEGIC>MOL_PROPERTY
U
SciTegic.value.DoubleValue
10.196

@<SCITEGIC>MOL_PROPERTY
W
SciTegic.value.DoubleValue
-60.999

@<SCITEGIC>MOL_PROPERTY
W(PB)
SciTegic.value.DoubleValue
-63.182

@<SCITEGIC>MOL_PROPERTY
W(SA)
SciTegic.value.DoubleValue
2.182

@<SCITEGIC>MOL_PROPERTY
Valence
SciTegic.value.DoubleValue
9.837

@<SCITEGIC>MOL_PROPERTY
Coulomb
SciTegic.value.DoubleValue
0.032

@<SCITEGIC>MOL_PROPERTY
VdW
SciTegic.value.DoubleValue
0.328

@<SCITEGIC>MOL_PROPERTY
VdW6
SciTegic.value.DoubleValue
-7.642

@<SCITEGIC>MOL_PROPERTY
VdW12
SciTegic.value.DoubleValue
7.969

@<SCITEGIC>MOL_PROPERTY
Bond
SciTegic.value.DoubleValue
0.151

@<SCITEGIC>MOL_PROPERTY
Angle
SciTegic.value.DoubleValue
2.748

@<SCITEGIC>MOL_PROPERTY
Pdih
SciTegic.value.DoubleValue
6.937

@<SCITEGIC>MOL_PROPERTY
Idih
SciTegic.value.DoubleValue
0.001

@<SCITEGIC>MOL_PROPERTY
Tether
SciTegic.value.DoubleValue
0.000

@<TRIPOS>MOLECULE
guest-s22_confgen4.mol2 : confsearch ligand conformer 390
          20          19           1
SMALL
USER_CHARGES
 
@<TRIPOS>ATOM
       1    C1      17.969204   16.569039   23.546675 C.2        1 MOL1        -0.2535
       2    H1      17.837376   15.977612   24.451163 H          1 MOL1         0.0845
       3    H2      17.070269   16.899544   23.028733 H          1 MOL1         0.0845
       4    C2      19.187721   16.877000   23.094968 C.2        1 MOL1        -0.1324
       5    H3      20.074833   16.536976   23.628872 H          1 MOL1         0.0833
       6    C3      19.448603   17.692160   21.847923 C.3        1 MOL1        -0.1813
       7    H4      18.533286   17.768930   21.245354 H          1 MOL1         0.0753
       8    H5      20.195251   17.181639   21.225053 H          1 MOL1         0.0753
       9    C4      19.950210   19.107768   22.202191 C.3        1 MOL1        -0.1855
      10    H6      19.201482   19.610147   22.830442 H          1 MOL1         0.0755
      11    H7      20.867936   19.031859   22.801412 H          1 MOL1         0.0755
      12    C5      20.224964   19.953069   20.937948 C.3        1 MOL1        -0.1855
      13    H8      19.305256   20.042894   20.343154 H          1 MOL1         0.0755
      14    H9      20.959628   19.433925   20.307608 H          1 MOL1         0.0755
      15    C6      20.760561   21.369478   21.272322 C.3        1 MOL1        -0.1958
      16    H10     21.664437   21.296965   21.889252 H          1 MOL1         0.0753
      17    H11     21.048532   21.880480   20.346080 H          1 MOL1         0.0753
      18    C7      19.751020   22.260813   21.990127 C.2        1 MOL1         0.6174
      19    O1      19.901461   22.459221   23.179654 O.co2      1 MOL1        -0.6695
      20    O2      18.847545   22.743891   21.336311 O.co2      1 MOL1        -0.6695
@<TRIPOS>BOND
    1     1     2    1
    2     1     3    1
    3     1     4    2
    4     4     5    1
    5     4     6    1
    6     6     7    1
    7     6     8    1
    8     6     9    1
    9     9    10    1
   10     9    11    1
   11     9    12    1
   12    12    13    1
   13    12    14    1
   14    12    15    1
   15    15    16    1
   16    15    17    1
   17    15    18    1
   18    18    19    1
   19    18    20    2
@<TRIPOS>SUBSTRUCTURE
       1 MOL1            1 RESIDUE      1      MOL     
@<SCITEGIC>MOL_PROPERTY
VConf Rank
SciTegic.value.IntegerValue
390

@<SCITEGIC>MOL_PROPERTY
Conf_Id
SciTegic.value.IntegerValue
81

@<SCITEGIC>MOL_PROPERTY
Delta U+W
SciTegic.value.DoubleValue
-0.051

@<SCITEGIC>MOL_PROPERTY
U+W
SciTegic.value.DoubleValue
-51.796

@<SCITEGIC>MOL_PROPERTY
Grad RMS
SciTegic.value.DoubleValue
0.000000

@<SCITEGIC>MOL_PROPERTY
U
SciTegic.value.DoubleValue
9.412

@<SCITEGIC>MOL_PROPERTY
W
SciTegic.value.DoubleValue
-61.209

@<SCITEGIC>MOL_PROPERTY
W(PB)
SciTegic.value.DoubleValue
-63.452

@<SCITEGIC>MOL_PROPERTY
W(SA)
SciTegic.value.DoubleValue
2.243

@<SCITEGIC>MOL_PROPERTY
Valence
SciTegic.value.DoubleValue
9.329

@<SCITEGIC>MOL_PROPERTY
Coulomb
SciTegic.value.DoubleValue
-0.323

@<SCITEGIC>MOL_PROPERTY
VdW
SciTegic.value.DoubleValue
0.406

@<SCITEGIC>MOL_PROPERTY
VdW6
SciTegic.value.DoubleValue
-6.640

@<SCITEGIC>MOL_PROPERTY
VdW12
SciTegic.value.DoubleValue
7.046

@<SCITEGIC>MOL_PROPERTY
Bond
SciTegic.value.DoubleValue
0.105

@<SCITEGIC>MOL_PROPERTY
Angle
SciTegic.value.DoubleValue
2.401

@<SCITEGIC>MOL_PROPERTY
Pdih
SciTegic.value.DoubleValue
6.823

@<SCITEGIC>MOL_PROPERTY
Idih
SciTegic.value.DoubleValue
0.000

@<SCITEGIC>MOL_PROPERTY
Tether
SciTegic.value.DoubleValue
0.000

@<TRIPOS>MOLECULE
guest-s22_confgen4.mol2 : confsearch ligand conformer 391
          20          19           1
SMALL
USER_CHARGES
 
@<TRIPOS>ATOM
       1    C1      20.917837   16.103180   22.030494 C.2        1 MOL1        -0.2535
       2    H1      20.512082   15.577351   21.167751 H          1 MOL1         0.0845
       3    H2      21.793177   15.672628   22.513764 H          1 MOL1         0.0845
       4    C2      20.367815   17.234236   22.479788 C.2        1 MOL1        -0.1324
       5    H3      20.788058   17.743687   23.346437 H          1 MOL1         0.0833
       6    C3      19.149335   17.887930   21.863739 C.3        1 MOL1        -0.1813
       7    H4      18.449788   18.197953   22.650792 H          1 MOL1         0.0753
       8    H5      18.605707   17.155419   21.252091 H          1 MOL1         0.0753
       9    C4      19.515333   19.097757   20.970951 C.3        1 MOL1        -0.1855
      10    H6      20.144723   18.747485   20.141486 H          1 MOL1         0.0755
      11    H7      18.598286   19.491479   20.511627 H          1 MOL1         0.0755
      12    C5      20.252480   20.246619   21.706356 C.3        1 MOL1        -0.1855
      13    H8      20.487106   21.036236   20.979281 H          1 MOL1         0.0755
      14    H9      21.218318   19.881977   22.080374 H          1 MOL1         0.0755
      15    C6      19.454345   20.873679   22.881926 C.3        1 MOL1        -0.1958
      16    H10     19.268226   20.128265   23.663436 H          1 MOL1         0.0753
      17    H11     20.053398   21.666038   23.345508 H          1 MOL1         0.0753
      18    C7      18.122120   21.493254   22.469799 C.2        1 MOL1         0.6174
      19    O1      17.097517   20.927662   22.797487 O.co2      1 MOL1        -0.6695
      20    O2      18.144578   22.536205   21.845931 O.co2      1 MOL1        -0.6695
@<TRIPOS>BOND
    1     1     2    1
    2     1     3    1
    3     1     4    2
    4     4     5    1
    5     4     6    1
    6     6     7    1
    7     6     8    1
    8     6     9    1
    9     9    10    1
   10     9    11    1
   11     9    12    1
   12    12    13    1
   13    12    14    1
   14    12    15    1
   15    15    16    1
   16    15    17    1
   17    15    18    1
   18    18    19    1
   19    18    20    2
@<TRIPOS>SUBSTRUCTURE
       1 MOL1            1 RESIDUE      1      MOL     
@<SCITEGIC>MOL_PROPERTY
VConf Rank
SciTegic.value.IntegerValue
391

@<SCITEGIC>MOL_PROPERTY
Conf_Id
SciTegic.value.IntegerValue
86

@<SCITEGIC>MOL_PROPERTY
Delta U+W
SciTegic.value.DoubleValue
1.248

@<SCITEGIC>MOL_PROPERTY
U+W
SciTegic.value.DoubleValue
-50.498

@<SCITEGIC>MOL_PROPERTY
Grad RMS
SciTegic.value.DoubleValue
0.000000

@<SCITEGIC>MOL_PROPERTY
U
SciTegic.value.DoubleValue
10.404

@<SCITEGIC>MOL_PROPERTY
W
SciTegic.value.DoubleValue
-60.901

@<SCITEGIC>MOL_PROPERTY
W(PB)
SciTegic.value.DoubleValue
-63.061

@<SCITEGIC>MOL_PROPERTY
W(SA)
SciTegic.value.DoubleValue
2.159

@<SCITEGIC>MOL_PROPERTY
Valence
SciTegic.value.DoubleValue
10.021

@<SCITEGIC>MOL_PROPERTY
Coulomb
SciTegic.value.DoubleValue
0.094

@<SCITEGIC>MOL_PROPERTY
VdW
SciTegic.value.DoubleValue
0.289

@<SCITEGIC>MOL_PROPERTY
VdW6
SciTegic.value.DoubleValue
-8.409

@<SCITEGIC>MOL_PROPERTY
VdW12
SciTegic.value.DoubleValue
8.698

@<SCITEGIC>MOL_PROPERTY
Bond
SciTegic.value.DoubleValue
0.179

@<SCITEGIC>MOL_PROPERTY
Angle
SciTegic.value.DoubleValue
2.939

@<SCITEGIC>MOL_PROPERTY
Pdih
SciTegic.value.DoubleValue
6.902

@<SCITEGIC>MOL_PROPERTY
Idih
SciTegic.value.DoubleValue
0.001

@<SCITEGIC>MOL_PROPERTY
Tether
SciTegic.value.DoubleValue
0.000

@<TRIPOS>MOLECULE
guest-s22_confgen4.mol2 : confsearch ligand conformer 392
          20          19           1
SMALL
USER_CHARGES
 
@<TRIPOS>ATOM
       1    C1      22.781542   19.932890   22.431901 C.2        1 MOL1        -0.2535
       2    H1      23.412950   20.797798   22.236037 H          1 MOL1         0.0845
       3    H2      22.701754   19.593828   23.463450 H          1 MOL1         0.0845
       4    C2      22.128855   19.316563   21.442878 C.2        1 MOL1        -0.1324
       5    H3      22.220483   19.673273   20.417329 H          1 MOL1         0.0833
       6    C3      21.234072   18.110933   21.637489 C.3        1 MOL1        -0.1813
       7    H4      21.355614   17.697907   22.648082 H          1 MOL1         0.0753
       8    H5      21.541768   17.319948   20.940720 H          1 MOL1         0.0753
       9    C4      19.744474   18.440059   21.390845 C.3        1 MOL1        -0.1855
      10    H6      19.622596   18.856857   20.381713 H          1 MOL1         0.0755
      11    H7      19.168279   17.504944   21.414719 H          1 MOL1         0.0755
      12    C5      19.169358   19.423962   22.437160 C.3        1 MOL1        -0.1855
      13    H8      19.740113   20.361804   22.409635 H          1 MOL1         0.0755
      14    H9      19.294884   19.008454   23.446590 H          1 MOL1         0.0755
      15    C6      17.671357   19.743928   22.194991 C.3        1 MOL1        -0.1958
      16    H10     17.349570   20.533511   22.884159 H          1 MOL1         0.0753
      17    H11     17.526167   20.130538   21.179003 H          1 MOL1         0.0753
      18    C7      16.741007   18.551909   22.400569 C.2        1 MOL1         0.6174
      19    O1      16.486113   18.214428   23.539984 O.co2      1 MOL1        -0.6695
      20    O2      16.286751   17.999624   21.417858 O.co2      1 MOL1        -0.6695
@<TRIPOS>BOND
    1     1     2    1
    2     1     3    1
    3     1     4    2
    4     4     5    1
    5     4     6    1
    6     6     7    1
    7     6     8    1
    8     6     9    1
    9     9    10    1
   10     9    11    1
   11     9    12    1
   12    12    13    1
   13    12    14    1
   14    12    15    1
   15    15    16    1
   16    15    17    1
   17    15    18    1
   18    18    19    1
   19    18    20    2
@<TRIPOS>SUBSTRUCTURE
       1 MOL1            1 RESIDUE      1      MOL     
@<SCITEGIC>MOL_PROPERTY
VConf Rank
SciTegic.value.IntegerValue
392

@<SCITEGIC>MOL_PROPERTY
Conf_Id
SciTegic.value.IntegerValue
28

@<SCITEGIC>MOL_PROPERTY
Delta U+W
SciTegic.value.DoubleValue
0.446

@<SCITEGIC>MOL_PROPERTY
U+W
SciTegic.value.DoubleValue
-51.299

@<SCITEGIC>MOL_PROPERTY
Grad RMS
SciTegic.value.DoubleValue
0.000000

@<SCITEGIC>MOL_PROPERTY
U
SciTegic.value.DoubleValue
9.295

@<SCITEGIC>MOL_PROPERTY
W
SciTegic.value.DoubleValue
-60.594

@<SCITEGIC>MOL_PROPERTY
W(PB)
SciTegic.value.DoubleValue
-62.806

@<SCITEGIC>MOL_PROPERTY
W(SA)
SciTegic.value.DoubleValue
2.212

@<SCITEGIC>MOL_PROPERTY
Valence
SciTegic.value.DoubleValue
9.495

@<SCITEGIC>MOL_PROPERTY
Coulomb
SciTegic.value.DoubleValue
-0.610

@<SCITEGIC>MOL_PROPERTY
VdW
SciTegic.value.DoubleValue
0.409

@<SCITEGIC>MOL_PROPERTY
VdW6
SciTegic.value.DoubleValue
-7.332

@<SCITEGIC>MOL_PROPERTY
VdW12
SciTegic.value.DoubleValue
7.741

@<SCITEGIC>MOL_PROPERTY
Bond
SciTegic.value.DoubleValue
0.126

@<SCITEGIC>MOL_PROPERTY
Angle
SciTegic.value.DoubleValue
2.497

@<SCITEGIC>MOL_PROPERTY
Pdih
SciTegic.value.DoubleValue
6.872

@<SCITEGIC>MOL_PROPERTY
Idih
SciTegic.value.DoubleValue
0.000

@<SCITEGIC>MOL_PROPERTY
Tether
SciTegic.value.DoubleValue
0.000

@<TRIPOS>MOLECULE
guest-s22_confgen4.mol2 : confsearch ligand conformer 393
          20          19           1
SMALL
USER_CHARGES
 
@<TRIPOS>ATOM
       1    C1      22.538688   20.673462   21.555976 C.2        1 MOL1        -0.2535
       2    H1      22.681887   20.044141   22.431730 H          1 MOL1         0.0845
       3    H2      23.429056   21.133145   21.130444 H          1 MOL1         0.0845
       4    C2      21.334926   20.881984   21.010587 C.2        1 MOL1        -0.1324
       5    H3      21.255166   21.521101   20.131549 H          1 MOL1         0.0833
       6    C3      20.009160   20.314167   21.489530 C.3        1 MOL1        -0.1813
       7    H4      19.592554   19.686938   20.690980 H          1 MOL1         0.0753
       8    H5      19.299806   21.141942   21.621280 H          1 MOL1         0.0753
       9    C4      20.084067   19.500997   22.805487 C.3        1 MOL1        -0.1855
      10    H6      20.722401   18.618903   22.658476 H          1 MOL1         0.0755
      11    H7      20.567870   20.114227   23.577872 H          1 MOL1         0.0755
      12    C5      18.698474   19.057842   23.337283 C.3        1 MOL1        -0.1855
      13    H8      18.083236   19.947198   23.529417 H          1 MOL1         0.0755
      14    H9      18.835097   18.563317   24.308977 H          1 MOL1         0.0755
      15    C6      17.923584   18.096684   22.394744 C.3        1 MOL1        -0.1958
      16    H10     16.956258   17.847983   22.846502 H          1 MOL1         0.0753
      17    H11     17.702347   18.585653   21.439307 H          1 MOL1         0.0753
      18    C7      18.644467   16.780896   22.115577 C.2        1 MOL1         0.6174
      19    O1      18.730420   15.972224   23.018967 O.co2      1 MOL1        -0.6695
      20    O2      19.082238   16.589939   20.998102 O.co2      1 MOL1        -0.6695
@<TRIPOS>BOND
    1     1     2    1
    2     1     3    1
    3     1     4    2
    4     4     5    1
    5     4     6    1
    6     6     7    1
    7     6     8    1
    8     6     9    1
    9     9    10    1
   10     9    11    1
   11     9    12    1
   12    12    13    1
   13    12    14    1
   14    12    15    1
   15    15    16    1
   16    15    17    1
   17    15    18    1
   18    18    19    1
   19    18    20    2
@<TRIPOS>SUBSTRUCTURE
       1 MOL1            1 RESIDUE      1      MOL     
@<SCITEGIC>MOL_PROPERTY
VConf Rank
SciTegic.value.IntegerValue
393

@<SCITEGIC>MOL_PROPERTY
Conf_Id
SciTegic.value.IntegerValue
53

@<SCITEGIC>MOL_PROPERTY
Delta U+W
SciTegic.value.DoubleValue
0.549

@<SCITEGIC>MOL_PROPERTY
U+W
SciTegic.value.DoubleValue
-51.197

@<SCITEGIC>MOL_PROPERTY
Grad RMS
SciTegic.value.DoubleValue
0.000000

@<SCITEGIC>MOL_PROPERTY
U
SciTegic.value.DoubleValue
10.870

@<SCITEGIC>MOL_PROPERTY
W
SciTegic.value.DoubleValue
-62.067

@<SCITEGIC>MOL_PROPERTY
W(PB)
SciTegic.value.DoubleValue
-64.228

@<SCITEGIC>MOL_PROPERTY
W(SA)
SciTegic.value.DoubleValue
2.161

@<SCITEGIC>MOL_PROPERTY
Valence
SciTegic.value.DoubleValue
8.803

@<SCITEGIC>MOL_PROPERTY
Coulomb
SciTegic.value.DoubleValue
1.020

@<SCITEGIC>MOL_PROPERTY
VdW
SciTegic.value.DoubleValue
1.048

@<SCITEGIC>MOL_PROPERTY
VdW6
SciTegic.value.DoubleValue
-8.312

@<SCITEGIC>MOL_PROPERTY
VdW12
SciTegic.value.DoubleValue
9.360

@<SCITEGIC>MOL_PROPERTY
Bond
SciTegic.value.DoubleValue
0.212

@<SCITEGIC>MOL_PROPERTY
Angle
SciTegic.value.DoubleValue
3.379

@<SCITEGIC>MOL_PROPERTY
Pdih
SciTegic.value.DoubleValue
5.211

@<SCITEGIC>MOL_PROPERTY
Idih
SciTegic.value.DoubleValue
0.001

@<SCITEGIC>MOL_PROPERTY
Tether
SciTegic.value.DoubleValue
0.000

@<TRIPOS>MOLECULE
guest-s22_confgen4.mol2 : confsearch ligand conformer 394
          20          19           1
SMALL
USER_CHARGES
 
@<TRIPOS>ATOM
       1    C1      17.127936   17.866360   22.570246 C.2        1 MOL1        -0.2535
       2    H1      17.035972   18.097966   21.511379 H          1 MOL1         0.0845
       3    H2      16.217755   17.907268   23.165915 H          1 MOL1         0.0845
       4    C2      18.298218   17.538235   23.128305 C.2        1 MOL1        -0.1324
       5    H3      18.334809   17.312346   24.193640 H          1 MOL1         0.0833
       6    C3      19.640783   17.448431   22.421663 C.3        1 MOL1        -0.1813
       7    H4      19.843840   16.395851   22.184506 H          1 MOL1         0.0753
       8    H5      20.433978   17.734195   23.124345 H          1 MOL1         0.0753
       9    C4      19.785779   18.298656   21.132529 C.3        1 MOL1        -0.1855
      10    H6      20.766135   18.088270   20.683667 H          1 MOL1         0.0755
      11    H7      19.045840   17.967894   20.391981 H          1 MOL1         0.0755
      12    C5      19.649820   19.829450   21.344753 C.3        1 MOL1        -0.1855
      13    H8      18.646833   20.062002   21.724874 H          1 MOL1         0.0755
      14    H9      19.728594   20.327939   20.368883 H          1 MOL1         0.0755
      15    C6      20.706610   20.443464   22.303138 C.3        1 MOL1        -0.1958
      16    H10     20.529749   21.521362   22.394914 H          1 MOL1         0.0753
      17    H11     20.601917   20.026007   23.310993 H          1 MOL1         0.0753
      18    C7      22.149541   20.257417   21.842964 C.2        1 MOL1         0.6174
      19    O1      22.852649   19.475375   22.452231 O.co2      1 MOL1        -0.6695
      20    O2      22.537809   20.914302   20.896783 O.co2      1 MOL1        -0.6695
@<TRIPOS>BOND
    1     1     2    1
    2     1     3    1
    3     1     4    2
    4     4     5    1
    5     4     6    1
    6     6     7    1
    7     6     8    1
    8     6     9    1
    9     9    10    1
   10     9    11    1
   11     9    12    1
   12    12    13    1
   13    12    14    1
   14    12    15    1
   15    15    16    1
   16    15    17    1
   17    15    18    1
   18    18    19    1
   19    18    20    2
@<TRIPOS>SUBSTRUCTURE
       1 MOL1            1 RESIDUE      1      MOL     
@<SCITEGIC>MOL_PROPERTY
VConf Rank
SciTegic.value.IntegerValue
394

@<SCITEGIC>MOL_PROPERTY
Conf_Id
SciTegic.value.IntegerValue
66

@<SCITEGIC>MOL_PROPERTY
Delta U+W
SciTegic.value.DoubleValue
1.737

@<SCITEGIC>MOL_PROPERTY
U+W
SciTegic.value.DoubleValue
-50.008

@<SCITEGIC>MOL_PROPERTY
Grad RMS
SciTegic.value.DoubleValue
0.000000

@<SCITEGIC>MOL_PROPERTY
U
SciTegic.value.DoubleValue
11.091

@<SCITEGIC>MOL_PROPERTY
W
SciTegic.value.DoubleValue
-61.099

@<SCITEGIC>MOL_PROPERTY
W(PB)
SciTegic.value.DoubleValue
-63.213

@<SCITEGIC>MOL_PROPERTY
W(SA)
SciTegic.value.DoubleValue
2.114

@<SCITEGIC>MOL_PROPERTY
Valence
SciTegic.value.DoubleValue
9.664

@<SCITEGIC>MOL_PROPERTY
Coulomb
SciTegic.value.DoubleValue
0.658

@<SCITEGIC>MOL_PROPERTY
VdW
SciTegic.value.DoubleValue
0.769

@<SCITEGIC>MOL_PROPERTY
VdW6
SciTegic.value.DoubleValue
-9.171

@<SCITEGIC>MOL_PROPERTY
VdW12
SciTegic.value.DoubleValue
9.940

@<SCITEGIC>MOL_PROPERTY
Bond
SciTegic.value.DoubleValue
0.244

@<SCITEGIC>MOL_PROPERTY
Angle
SciTegic.value.DoubleValue
3.658

@<SCITEGIC>MOL_PROPERTY
Pdih
SciTegic.value.DoubleValue
5.762

@<SCITEGIC>MOL_PROPERTY
Idih
SciTegic.value.DoubleValue
0.001

@<SCITEGIC>MOL_PROPERTY
Tether
SciTegic.value.DoubleValue
0.000

@<TRIPOS>MOLECULE
guest-s22_confgen4.mol2 : confsearch ligand conformer 395
          20          19           1
SMALL
USER_CHARGES
 
@<TRIPOS>ATOM
       1    C1      19.875491   21.660770   22.653846 C.2        1 MOL1        -0.2535
       2    H1      19.536925   21.740507   21.623216 H          1 MOL1         0.0845
       3    H2      19.547197   22.437063   23.342707 H          1 MOL1         0.0845
       4    C2      20.664021   20.663990   23.070416 C.2        1 MOL1        -0.1324
       5    H3      20.975623   20.634227   24.114140 H          1 MOL1         0.0833
       6    C3      21.192040   19.515239   22.226517 C.3        1 MOL1        -0.1813
       7    H4      21.252532   18.614835   22.850425 H          1 MOL1         0.0753
       8    H5      22.231506   19.734018   21.948616 H          1 MOL1         0.0753
       9    C4      20.381786   19.186517   20.945210 C.3        1 MOL1        -0.1855
      10    H6      20.365910   20.066089   20.288251 H          1 MOL1         0.0755
      11    H7      20.913660   18.406912   20.383111 H          1 MOL1         0.0755
      12    C5      18.929251   18.709962   21.201604 C.3        1 MOL1        -0.1855
      13    H8      18.424853   18.588878   20.233048 H          1 MOL1         0.0755
      14    H9      18.367314   19.480229   21.746134 H          1 MOL1         0.0755
      15    C6      18.844444   17.369439   21.976668 C.3        1 MOL1        -0.1958
      16    H10     19.442624   16.601284   21.472419 H          1 MOL1         0.0753
      17    H11     19.246859   17.484600   22.989409 H          1 MOL1         0.0753
      18    C7      17.416702   16.849451   22.100800 C.2        1 MOL1         0.6174
      19    O1      16.770491   17.170916   23.078463 O.co2      1 MOL1        -0.6695
      20    O2      16.982870   16.147453   21.208656 O.co2      1 MOL1        -0.6695
@<TRIPOS>BOND
    1     1     2    1
    2     1     3    1
    3     1     4    2
    4     4     5    1
    5     4     6    1
    6     6     7    1
    7     6     8    1
    8     6     9    1
    9     9    10    1
   10     9    11    1
   11     9    12    1
   12    12    13    1
   13    12    14    1
   14    12    15    1
   15    15    16    1
   16    15    17    1
   17    15    18    1
   18    18    19    1
   19    18    20    2
@<TRIPOS>SUBSTRUCTURE
       1 MOL1            1 RESIDUE      1      MOL     
@<SCITEGIC>MOL_PROPERTY
VConf Rank
SciTegic.value.IntegerValue
395

@<SCITEGIC>MOL_PROPERTY
Conf_Id
SciTegic.value.IntegerValue
64

@<SCITEGIC>MOL_PROPERTY
Delta U+W
SciTegic.value.DoubleValue
0.366

@<SCITEGIC>MOL_PROPERTY
U+W
SciTegic.value.DoubleValue
-51.379

@<SCITEGIC>MOL_PROPERTY
Grad RMS
SciTegic.value.DoubleValue
0.000000

@<SCITEGIC>MOL_PROPERTY
U
SciTegic.value.DoubleValue
10.000

@<SCITEGIC>MOL_PROPERTY
W
SciTegic.value.DoubleValue
-61.379

@<SCITEGIC>MOL_PROPERTY
W(PB)
SciTegic.value.DoubleValue
-63.541

@<SCITEGIC>MOL_PROPERTY
W(SA)
SciTegic.value.DoubleValue
2.162

@<SCITEGIC>MOL_PROPERTY
Valence
SciTegic.value.DoubleValue
9.398

@<SCITEGIC>MOL_PROPERTY
Coulomb
SciTegic.value.DoubleValue
-0.504

@<SCITEGIC>MOL_PROPERTY
VdW
SciTegic.value.DoubleValue
1.105

@<SCITEGIC>MOL_PROPERTY
VdW6
SciTegic.value.DoubleValue
-7.975

@<SCITEGIC>MOL_PROPERTY
VdW12
SciTegic.value.DoubleValue
9.080

@<SCITEGIC>MOL_PROPERTY
Bond
SciTegic.value.DoubleValue
0.216

@<SCITEGIC>MOL_PROPERTY
Angle
SciTegic.value.DoubleValue
3.417

@<SCITEGIC>MOL_PROPERTY
Pdih
SciTegic.value.DoubleValue
5.765

@<SCITEGIC>MOL_PROPERTY
Idih
SciTegic.value.DoubleValue
0.001

@<SCITEGIC>MOL_PROPERTY
Tether
SciTegic.value.DoubleValue
0.000

@<TRIPOS>MOLECULE
guest-s22_confgen4.mol2 : confsearch ligand conformer 396
          20          19           1
SMALL
USER_CHARGES
 
@<TRIPOS>ATOM
       1    C1      21.937992   18.090077   20.041002 C.2        1 MOL1        -0.2535
       2    H1      21.114765   17.631792   19.495392 H          1 MOL1         0.0845
       3    H2      22.862724   17.521575   20.123348 H          1 MOL1         0.0845
       4    C2      21.820532   19.300755   20.592793 C.2        1 MOL1        -0.1324
       5    H3      22.655898   19.740557   21.136972 H          1 MOL1         0.0833
       6    C3      20.568682   20.149106   20.521017 C.3        1 MOL1        -0.1813
       7    H4      19.859051   19.730489   19.794479 H          1 MOL1         0.0753
       8    H5      20.833828   21.149427   20.153733 H          1 MOL1         0.0753
       9    C4      19.876837   20.289956   21.895591 C.3        1 MOL1        -0.1855
      10    H6      20.586876   20.708013   22.622335 H          1 MOL1         0.0755
      11    H7      19.055102   21.013631   21.806549 H          1 MOL1         0.0755
      12    C5      19.317535   18.948436   22.421983 C.3        1 MOL1        -0.1855
      13    H8      20.134547   18.223483   22.540999 H          1 MOL1         0.0755
      14    H9      18.620791   18.523802   21.686101 H          1 MOL1         0.0755
      15    C6      18.589118   19.119989   23.777711 C.3        1 MOL1        -0.1958
      16    H10     19.276097   19.531789   24.526756 H          1 MOL1         0.0753
      17    H11     17.758548   19.828529   23.674705 H          1 MOL1         0.0753
      18    C7      18.028400   17.809462   24.318273 C.2        1 MOL1         0.6174
      19    O1      16.908249   17.481937   23.979542 O.co2      1 MOL1        -0.6695
      20    O2      18.731554   17.143809   25.052555 O.co2      1 MOL1        -0.6695
@<TRIPOS>BOND
    1     1     2    1
    2     1     3    1
    3     1     4    2
    4     4     5    1
    5     4     6    1
    6     6     7    1
    7     6     8    1
    8     6     9    1
    9     9    10    1
   10     9    11    1
   11     9    12    1
   12    12    13    1
   13    12    14    1
   14    12    15    1
   15    15    16    1
   16    15    17    1
   17    15    18    1
   18    18    19    1
   19    18    20    2
@<TRIPOS>SUBSTRUCTURE
       1 MOL1            1 RESIDUE      1      MOL     
@<SCITEGIC>MOL_PROPERTY
VConf Rank
SciTegic.value.IntegerValue
396

@<SCITEGIC>MOL_PROPERTY
Conf_Id
SciTegic.value.IntegerValue
42

@<SCITEGIC>MOL_PROPERTY
Delta U+W
SciTegic.value.DoubleValue
-0.601

@<SCITEGIC>MOL_PROPERTY
U+W
SciTegic.value.DoubleValue
-52.347

@<SCITEGIC>MOL_PROPERTY
Grad RMS
SciTegic.value.DoubleValue
0.000000

@<SCITEGIC>MOL_PROPERTY
U
SciTegic.value.DoubleValue
8.428

@<SCITEGIC>MOL_PROPERTY
W
SciTegic.value.DoubleValue
-60.774

@<SCITEGIC>MOL_PROPERTY
W(PB)
SciTegic.value.DoubleValue
-62.982

@<SCITEGIC>MOL_PROPERTY
W(SA)
SciTegic.value.DoubleValue
2.208

@<SCITEGIC>MOL_PROPERTY
Valence
SciTegic.value.DoubleValue
9.231

@<SCITEGIC>MOL_PROPERTY
Coulomb
SciTegic.value.DoubleValue
-1.304

@<SCITEGIC>MOL_PROPERTY
VdW
SciTegic.value.DoubleValue
0.501

@<SCITEGIC>MOL_PROPERTY
VdW6
SciTegic.value.DoubleValue
-6.515

@<SCITEGIC>MOL_PROPERTY
VdW12
SciTegic.value.DoubleValue
7.016

@<SCITEGIC>MOL_PROPERTY
Bond
SciTegic.value.DoubleValue
0.103

@<SCITEGIC>MOL_PROPERTY
Angle
SciTegic.value.DoubleValue
2.328

@<SCITEGIC>MOL_PROPERTY
Pdih
SciTegic.value.DoubleValue
6.799

@<SCITEGIC>MOL_PROPERTY
Idih
SciTegic.value.DoubleValue
0.000

@<SCITEGIC>MOL_PROPERTY
Tether
SciTegic.value.DoubleValue
0.000

@<TRIPOS>MOLECULE
guest-s22_confgen4.mol2 : confsearch ligand conformer 397
          20          19           1
SMALL
USER_CHARGES
 
@<TRIPOS>ATOM
       1    C1      22.373940   18.532768   20.914077 C.2        1 MOL1        -0.2535
       2    H1      22.745439   19.555131   20.960526 H          1 MOL1         0.0845
       3    H2      22.670501   17.930199   20.057304 H          1 MOL1         0.0845
       4    C2      21.581658   18.034724   21.867106 C.2        1 MOL1        -0.1324
       5    H3      21.218244   17.009611   21.800181 H          1 MOL1         0.0833
       6    C3      21.126560   18.810701   23.084747 C.3        1 MOL1        -0.1813
       7    H4      21.686540   19.751341   23.175466 H          1 MOL1         0.0753
       8    H5      21.352698   18.227375   23.987190 H          1 MOL1         0.0753
       9    C4      19.611385   19.112755   23.053654 C.3        1 MOL1        -0.1855
      10    H6      19.053042   18.170127   22.969718 H          1 MOL1         0.0755
      11    H7      19.319356   19.565041   24.011202 H          1 MOL1         0.0755
      12    C5      19.216227   20.064822   21.900100 C.3        1 MOL1        -0.1855
      13    H8      19.464764   19.606193   20.933021 H          1 MOL1         0.0755
      14    H9      19.808605   20.986778   21.973008 H          1 MOL1         0.0755
      15    C6      17.709354   20.430608   21.918993 C.3        1 MOL1        -0.1958
      16    H10     17.437439   20.868628   22.886944 H          1 MOL1         0.0753
      17    H11     17.508105   21.193375   21.157628 H          1 MOL1         0.0753
      18    C7      16.781931   19.251076   21.640783 C.2        1 MOL1         0.6174
      19    O1      16.200052   18.742374   22.578762 O.co2      1 MOL1        -0.6695
      20    O2      16.652130   18.883922   20.489503 O.co2      1 MOL1        -0.6695
@<TRIPOS>BOND
    1     1     2    1
    2     1     3    1
    3     1     4    2
    4     4     5    1
    5     4     6    1
    6     6     7    1
    7     6     8    1
    8     6     9    1
    9     9    10    1
   10     9    11    1
   11     9    12    1
   12    12    13    1
   13    12    14    1
   14    12    15    1
   15    15    16    1
   16    15    17    1
   17    15    18    1
   18    18    19    1
   19    18    20    2
@<TRIPOS>SUBSTRUCTURE
       1 MOL1            1 RESIDUE      1      MOL     
@<SCITEGIC>MOL_PROPERTY
VConf Rank
SciTegic.value.IntegerValue
397

@<SCITEGIC>MOL_PROPERTY
Conf_Id
SciTegic.value.IntegerValue
68

@<SCITEGIC>MOL_PROPERTY
Delta U+W
SciTegic.value.DoubleValue
0.492

@<SCITEGIC>MOL_PROPERTY
U+W
SciTegic.value.DoubleValue
-51.253

@<SCITEGIC>MOL_PROPERTY
Grad RMS
SciTegic.value.DoubleValue
0.000000

@<SCITEGIC>MOL_PROPERTY
U
SciTegic.value.DoubleValue
10.179

@<SCITEGIC>MOL_PROPERTY
W
SciTegic.value.DoubleValue
-61.432

@<SCITEGIC>MOL_PROPERTY
W(PB)
SciTegic.value.DoubleValue
-63.627

@<SCITEGIC>MOL_PROPERTY
W(SA)
SciTegic.value.DoubleValue
2.195

@<SCITEGIC>MOL_PROPERTY
Valence
SciTegic.value.DoubleValue
9.483

@<SCITEGIC>MOL_PROPERTY
Coulomb
SciTegic.value.DoubleValue
0.361

@<SCITEGIC>MOL_PROPERTY
VdW
SciTegic.value.DoubleValue
0.335

@<SCITEGIC>MOL_PROPERTY
VdW6
SciTegic.value.DoubleValue
-7.385

@<SCITEGIC>MOL_PROPERTY
VdW12
SciTegic.value.DoubleValue
7.720

@<SCITEGIC>MOL_PROPERTY
Bond
SciTegic.value.DoubleValue
0.125

@<SCITEGIC>MOL_PROPERTY
Angle
SciTegic.value.DoubleValue
2.487

@<SCITEGIC>MOL_PROPERTY
Pdih
SciTegic.value.DoubleValue
6.870

@<SCITEGIC>MOL_PROPERTY
Idih
SciTegic.value.DoubleValue
0.001

@<SCITEGIC>MOL_PROPERTY
Tether
SciTegic.value.DoubleValue
0.000

@<TRIPOS>MOLECULE
guest-s22_confgen4.mol2 : confsearch ligand conformer 398
          20          19           1
SMALL
USER_CHARGES
 
@<TRIPOS>ATOM
       1    C1      18.624274   16.385451   21.118659 C.2        1 MOL1        -0.2535
       2    H1      19.218564   16.207553   20.223862 H          1 MOL1         0.0845
       3    H2      17.618152   15.970341   21.142748 H          1 MOL1         0.0845
       4    C2      19.105770   17.088027   22.147369 C.2        1 MOL1        -0.1324
       5    H3      18.494894   17.251944   23.034616 H          1 MOL1         0.0833
       6    C3      20.494558   17.689252   22.187089 C.3        1 MOL1        -0.1813
       7    H4      21.133430   17.195654   21.442291 H          1 MOL1         0.0753
       8    H5      20.957392   17.497451   23.164327 H          1 MOL1         0.0753
       9    C4      20.486031   19.208262   21.902987 C.3        1 MOL1        -0.1855
      10    H6      21.523690   19.558256   21.816305 H          1 MOL1         0.0755
      11    H7      20.011260   19.393104   20.929321 H          1 MOL1         0.0755
      12    C5      19.766220   20.022146   23.004439 C.3        1 MOL1        -0.1855
      13    H8      20.217391   19.791398   23.978867 H          1 MOL1         0.0755
      14    H9      18.711012   19.722650   23.064871 H          1 MOL1         0.0755
      15    C6      19.846675   21.551760   22.762236 C.3        1 MOL1        -0.1958
      16    H10     19.426080   22.081829   23.624868 H          1 MOL1         0.0753
      17    H11     20.893295   21.867598   22.675074 H          1 MOL1         0.0753
      18    C7      19.091080   22.023537   21.523147 C.2        1 MOL1         0.6174
      19    O1      17.881402   22.118510   21.592167 O.co2      1 MOL1        -0.6695
      20    O2      19.732306   22.302067   20.528977 O.co2      1 MOL1        -0.6695
@<TRIPOS>BOND
    1     1     2    1
    2     1     3    1
    3     1     4    2
    4     4     5    1
    5     4     6    1
    6     6     7    1
    7     6     8    1
    8     6     9    1
    9     9    10    1
   10     9    11    1
   11     9    12    1
   12    12    13    1
   13    12    14    1
   14    12    15    1
   15    15    16    1
   16    15    17    1
   17    15    18    1
   18    18    19    1
   19    18    20    2
@<TRIPOS>SUBSTRUCTURE
       1 MOL1            1 RESIDUE      1      MOL     
@<SCITEGIC>MOL_PROPERTY
VConf Rank
SciTegic.value.IntegerValue
398

@<SCITEGIC>MOL_PROPERTY
Conf_Id
SciTegic.value.IntegerValue
87

@<SCITEGIC>MOL_PROPERTY
Delta U+W
SciTegic.value.DoubleValue
0.339

@<SCITEGIC>MOL_PROPERTY
U+W
SciTegic.value.DoubleValue
-51.407

@<SCITEGIC>MOL_PROPERTY
Grad RMS
SciTegic.value.DoubleValue
0.000000

@<SCITEGIC>MOL_PROPERTY
U
SciTegic.value.DoubleValue
10.461

@<SCITEGIC>MOL_PROPERTY
W
SciTegic.value.DoubleValue
-61.867

@<SCITEGIC>MOL_PROPERTY
W(PB)
SciTegic.value.DoubleValue
-64.045

@<SCITEGIC>MOL_PROPERTY
W(SA)
SciTegic.value.DoubleValue
2.178

@<SCITEGIC>MOL_PROPERTY
Valence
SciTegic.value.DoubleValue
9.555

@<SCITEGIC>MOL_PROPERTY
Coulomb
SciTegic.value.DoubleValue
0.483

@<SCITEGIC>MOL_PROPERTY
VdW
SciTegic.value.DoubleValue
0.423

@<SCITEGIC>MOL_PROPERTY
VdW6
SciTegic.value.DoubleValue
-7.223

@<SCITEGIC>MOL_PROPERTY
VdW12
SciTegic.value.DoubleValue
7.646

@<SCITEGIC>MOL_PROPERTY
Bond
SciTegic.value.DoubleValue
0.126

@<SCITEGIC>MOL_PROPERTY
Angle
SciTegic.value.DoubleValue
2.492

@<SCITEGIC>MOL_PROPERTY
Pdih
SciTegic.value.DoubleValue
6.936

@<SCITEGIC>MOL_PROPERTY
Idih
SciTegic.value.DoubleValue
0.001

@<SCITEGIC>MOL_PROPERTY
Tether
SciTegic.value.DoubleValue
0.000

@<TRIPOS>MOLECULE
guest-s22_confgen4.mol2 : confsearch ligand conformer 399
          20          19           1
SMALL
USER_CHARGES
 
@<TRIPOS>ATOM
       1    C1      17.204621   19.455323   23.404233 C.2        1 MOL1        -0.2535
       2    H1      16.427600   19.044480   22.761690 H          1 MOL1         0.0845
       3    H2      17.065176   19.367160   24.480245 H          1 MOL1         0.0845
       4    C2      18.289704   20.043437   22.893909 C.2        1 MOL1        -0.1324
       5    H3      19.052073   20.456603   23.553360 H          1 MOL1         0.0833
       6    C3      18.542042   20.211781   21.410807 C.3        1 MOL1        -0.1813
       7    H4      19.284700   21.002177   21.238560 H          1 MOL1         0.0753
       8    H5      17.615708   20.565527   20.938391 H          1 MOL1         0.0753
       9    C4      18.984581   18.905657   20.705565 C.3        1 MOL1        -0.1855
      10    H6      18.347749   18.070406   21.027644 H          1 MOL1         0.0755
      11    H7      18.802117   19.025506   19.628961 H          1 MOL1         0.0755
      12    C5      20.478467   18.538060   20.890709 C.3        1 MOL1        -0.1855
      13    H8      21.111707   19.380654   20.580738 H          1 MOL1         0.0755
      14    H9      20.715918   17.708665   20.210114 H          1 MOL1         0.0755
      15    C6      20.855126   18.109194   22.332051 C.3        1 MOL1        -0.1958
      16    H10     20.773573   18.956996   23.019554 H          1 MOL1         0.0753
      17    H11     20.169229   17.331404   22.688297 H          1 MOL1         0.0753
      18    C7      22.277502   17.570706   22.434556 C.2        1 MOL1         0.6174
      19    O1      23.176768   18.360659   22.644758 O.co2      1 MOL1        -0.6695
      20    O2      22.451995   16.377916   22.280653 O.co2      1 MOL1        -0.6695
@<TRIPOS>BOND
    1     1     2    1
    2     1     3    1
    3     1     4    2
    4     4     5    1
    5     4     6    1
    6     6     7    1
    7     6     8    1
    8     6     9    1
    9     9    10    1
   10     9    11    1
   11     9    12    1
   12    12    13    1
   13    12    14    1
   14    12    15    1
   15    15    16    1
   16    15    17    1
   17    15    18    1
   18    18    19    1
   19    18    20    2
@<TRIPOS>SUBSTRUCTURE
       1 MOL1            1 RESIDUE      1      MOL     
@<SCITEGIC>MOL_PROPERTY
VConf Rank
SciTegic.value.IntegerValue
399

@<SCITEGIC>MOL_PROPERTY
Conf_Id
SciTegic.value.IntegerValue
51

@<SCITEGIC>MOL_PROPERTY
Delta U+W
SciTegic.value.DoubleValue
1.709

@<SCITEGIC>MOL_PROPERTY
U+W
SciTegic.value.DoubleValue
-50.036

@<SCITEGIC>MOL_PROPERTY
Grad RMS
SciTegic.value.DoubleValue
0.000000

@<SCITEGIC>MOL_PROPERTY
U
SciTegic.value.DoubleValue
10.643

@<SCITEGIC>MOL_PROPERTY
W
SciTegic.value.DoubleValue
-60.679

@<SCITEGIC>MOL_PROPERTY
W(PB)
SciTegic.value.DoubleValue
-62.882

@<SCITEGIC>MOL_PROPERTY
W(SA)
SciTegic.value.DoubleValue
2.203

@<SCITEGIC>MOL_PROPERTY
Valence
SciTegic.value.DoubleValue
11.231

@<SCITEGIC>MOL_PROPERTY
Coulomb
SciTegic.value.DoubleValue
-1.077

@<SCITEGIC>MOL_PROPERTY
VdW
SciTegic.value.DoubleValue
0.489

@<SCITEGIC>MOL_PROPERTY
VdW6
SciTegic.value.DoubleValue
-7.546

@<SCITEGIC>MOL_PROPERTY
VdW12
SciTegic.value.DoubleValue
8.035

@<SCITEGIC>MOL_PROPERTY
Bond
SciTegic.value.DoubleValue
0.159

@<SCITEGIC>MOL_PROPERTY
Angle
SciTegic.value.DoubleValue
3.005

@<SCITEGIC>MOL_PROPERTY
Pdih
SciTegic.value.DoubleValue
8.065

@<SCITEGIC>MOL_PROPERTY
Idih
SciTegic.value.DoubleValue
0.002

@<SCITEGIC>MOL_PROPERTY
Tether
SciTegic.value.DoubleValue
0.000

@<TRIPOS>MOLECULE
guest-s22_confgen4.mol2 : confsearch ligand conformer 400
          20          19           1
SMALL
USER_CHARGES
 
@<TRIPOS>ATOM
       1    C1      22.082970   19.987136   20.888614 C.2        1 MOL1        -0.2535
       2    H1      21.809387   20.890832   20.346487 H          1 MOL1         0.0845
       3    H2      22.864985   19.362208   20.460901 H          1 MOL1         0.0845
       4    C2      21.481483   19.654490   22.033723 C.2        1 MOL1        -0.1324
       5    H3      21.775402   18.750735   22.566295 H          1 MOL1         0.0833
       6    C3      20.397319   20.481586   22.691067 C.3        1 MOL1        -0.1813
       7    H4      20.705749   21.535626   22.674400 H          1 MOL1         0.0753
       8    H5      20.306161   20.214835   23.752420 H          1 MOL1         0.0753
       9    C4      19.019093   20.362637   21.994278 C.3        1 MOL1        -0.1855
      10    H6      18.412926   21.227478   22.296514 H          1 MOL1         0.0755
      11    H7      19.140114   20.445618   20.905518 H          1 MOL1         0.0755
      12    C5      18.219020   19.082743   22.344791 C.3        1 MOL1        -0.1855
      13    H8      17.201669   19.192081   21.944128 H          1 MOL1         0.0755
      14    H9      18.112166   18.995743   23.434769 H          1 MOL1         0.0755
      15    C6      18.828549   17.775077   21.777556 C.3        1 MOL1        -0.1958
      16    H10     19.027160   17.882904   20.704593 H          1 MOL1         0.0753
      17    H11     19.782353   17.551606   22.265820 H          1 MOL1         0.0753
      18    C7      17.919268   16.567297   21.972737 C.2        1 MOL1         0.6174
      19    O1      18.019465   15.934004   23.005108 O.co2      1 MOL1        -0.6695
      20    O2      17.120001   16.303143   21.096222 O.co2      1 MOL1        -0.6695
@<TRIPOS>BOND
    1     1     2    1
    2     1     3    1
    3     1     4    2
    4     4     5    1
    5     4     6    1
    6     6     7    1
    7     6     8    1
    8     6     9    1
    9     9    10    1
   10     9    11    1
   11     9    12    1
   12    12    13    1
   13    12    14    1
   14    12    15    1
   15    15    16    1
   16    15    17    1
   17    15    18    1
   18    18    19    1
   19    18    20    2
@<TRIPOS>SUBSTRUCTURE
       1 MOL1            1 RESIDUE      1      MOL     
@<SCITEGIC>MOL_PROPERTY
VConf Rank
SciTegic.value.IntegerValue
400

@<SCITEGIC>MOL_PROPERTY
Conf_Id
SciTegic.value.IntegerValue
91

@<SCITEGIC>MOL_PROPERTY
Delta U+W
SciTegic.value.DoubleValue
1.604

@<SCITEGIC>MOL_PROPERTY
U+W
SciTegic.value.DoubleValue
-50.141

@<SCITEGIC>MOL_PROPERTY
Grad RMS
SciTegic.value.DoubleValue
0.000000

@<SCITEGIC>MOL_PROPERTY
U
SciTegic.value.DoubleValue
10.644

@<SCITEGIC>MOL_PROPERTY
W
SciTegic.value.DoubleValue
-60.786

@<SCITEGIC>MOL_PROPERTY
W(PB)
SciTegic.value.DoubleValue
-62.965

@<SCITEGIC>MOL_PROPERTY
W(SA)
SciTegic.value.DoubleValue
2.179

@<SCITEGIC>MOL_PROPERTY
Valence
SciTegic.value.DoubleValue
11.230

@<SCITEGIC>MOL_PROPERTY
Coulomb
SciTegic.value.DoubleValue
-1.075

@<SCITEGIC>MOL_PROPERTY
VdW
SciTegic.value.DoubleValue
0.489

@<SCITEGIC>MOL_PROPERTY
VdW6
SciTegic.value.DoubleValue
-7.547

@<SCITEGIC>MOL_PROPERTY
VdW12
SciTegic.value.DoubleValue
8.036

@<SCITEGIC>MOL_PROPERTY
Bond
SciTegic.value.DoubleValue
0.159

@<SCITEGIC>MOL_PROPERTY
Angle
SciTegic.value.DoubleValue
3.006

@<SCITEGIC>MOL_PROPERTY
Pdih
SciTegic.value.DoubleValue
8.064

@<SCITEGIC>MOL_PROPERTY
Idih
SciTegic.value.DoubleValue
0.002

@<SCITEGIC>MOL_PROPERTY
Tether
SciTegic.value.DoubleValue
0.000

@<TRIPOS>MOLECULE
guest-s22_confgen4.mol2 : confsearch ligand conformer 401
          20          19           1
SMALL
USER_CHARGES
 
@<TRIPOS>ATOM
       1    C1      19.606932   22.689966   21.637336 C.2        1 MOL1        -0.2535
       2    H1      18.966973   22.564121   20.765437 H          1 MOL1         0.0845
       3    H2      20.104737   23.650538   21.758867 H          1 MOL1         0.0845
       4    C2      19.779298   21.706279   22.524071 C.2        1 MOL1        -0.1324
       5    H3      20.424875   21.852532   23.389807 H          1 MOL1         0.0833
       6    C3      19.121364   20.348200   22.422154 C.3        1 MOL1        -0.1813
       7    H4      18.304723   20.375364   21.687877 H          1 MOL1         0.0753
       8    H5      18.669162   20.085518   23.387895 H          1 MOL1         0.0753
       9    C4      20.141477   19.263995   22.016271 C.3        1 MOL1        -0.1855
      10    H6      20.593823   19.533655   21.051878 H          1 MOL1         0.0755
      11    H7      20.955669   19.234076   22.753398 H          1 MOL1         0.0755
      12    C5      19.486477   17.869411   21.910331 C.3        1 MOL1        -0.1855
      13    H8      18.672323   17.898420   21.172865 H          1 MOL1         0.0755
      14    H9      19.032822   17.599687   22.874162 H          1 MOL1         0.0755
      15    C6      20.512650   16.779396   21.501386 C.3        1 MOL1        -0.1958
      16    H10     20.964707   17.039032   20.536945 H          1 MOL1         0.0753
      17    H11     21.324972   16.740463   22.236590 H          1 MOL1         0.0753
      18    C7      19.945515   15.364754   21.373083 C.2        1 MOL1         0.6174
      19    O1      20.719603   14.483743   21.055680 O.co2      1 MOL1        -0.6695
      20    O2      18.764972   15.166791   21.587036 O.co2      1 MOL1        -0.6695
@<TRIPOS>BOND
    1     1     2    1
    2     1     3    1
    3     1     4    2
    4     4     5    1
    5     4     6    1
    6     6     7    1
    7     6     8    1
    8     6     9    1
    9     9    10    1
   10     9    11    1
   11     9    12    1
   12    12    13    1
   13    12    14    1
   14    12    15    1
   15    15    16    1
   16    15    17    1
   17    15    18    1
   18    18    19    1
   19    18    20    2
@<TRIPOS>SUBSTRUCTURE
       1 MOL1            1 RESIDUE      1      MOL     
@<SCITEGIC>MOL_PROPERTY
VConf Rank
SciTegic.value.IntegerValue
401

@<SCITEGIC>MOL_PROPERTY
Conf_Id
SciTegic.value.IntegerValue
33

@<SCITEGIC>MOL_PROPERTY
Delta U+W
SciTegic.value.DoubleValue
0.000

@<SCITEGIC>MOL_PROPERTY
U+W
SciTegic.value.DoubleValue
-51.745

@<SCITEGIC>MOL_PROPERTY
Grad RMS
SciTegic.value.DoubleValue
0.000000

@<SCITEGIC>MOL_PROPERTY
U
SciTegic.value.DoubleValue
7.593

@<SCITEGIC>MOL_PROPERTY
W
SciTegic.value.DoubleValue
-59.338

@<SCITEGIC>MOL_PROPERTY
W(PB)
SciTegic.value.DoubleValue
-61.574

@<SCITEGIC>MOL_PROPERTY
W(SA)
SciTegic.value.DoubleValue
2.236

@<SCITEGIC>MOL_PROPERTY
Valence
SciTegic.value.DoubleValue
9.570

@<SCITEGIC>MOL_PROPERTY
Coulomb
SciTegic.value.DoubleValue
-3.091

@<SCITEGIC>MOL_PROPERTY
VdW
SciTegic.value.DoubleValue
1.114

@<SCITEGIC>MOL_PROPERTY
VdW6
SciTegic.value.DoubleValue
-6.064

@<SCITEGIC>MOL_PROPERTY
VdW12
SciTegic.value.DoubleValue
7.178

@<SCITEGIC>MOL_PROPERTY
Bond
SciTegic.value.DoubleValue
0.117

@<SCITEGIC>MOL_PROPERTY
Angle
SciTegic.value.DoubleValue
2.692

@<SCITEGIC>MOL_PROPERTY
Pdih
SciTegic.value.DoubleValue
6.761

@<SCITEGIC>MOL_PROPERTY
Idih
SciTegic.value.DoubleValue
0.000

@<SCITEGIC>MOL_PROPERTY
Tether
SciTegic.value.DoubleValue
0.000

@<TRIPOS>MOLECULE
guest-s22_confgen4.mol2 : confsearch ligand conformer 402
          20          19           1
SMALL
USER_CHARGES
 
@<TRIPOS>ATOM
       1    C1      21.026572   20.376257   24.974864 C.2        1 MOL1        -0.2535
       2    H1      21.055695   19.373077   25.397191 H          1 MOL1         0.0845
       3    H2      21.206200   21.210033   25.651481 H          1 MOL1         0.0845
       4    C2      20.778096   20.580564   23.678642 C.2        1 MOL1        -0.1324
       5    H3      20.752526   21.592910   23.275983 H          1 MOL1         0.0833
       6    C3      20.520434   19.474165   22.680036 C.3        1 MOL1        -0.1813
       7    H4      20.815550   18.504446   23.103296 H          1 MOL1         0.0753
       8    H5      21.145801   19.637010   21.793217 H          1 MOL1         0.0753
       9    C4      19.029524   19.427147   22.276569 C.3        1 MOL1        -0.1855
      10    H6      18.419289   19.348998   23.186979 H          1 MOL1         0.0755
      11    H7      18.747117   20.373004   21.794288 H          1 MOL1         0.0755
      12    C5      18.679302   18.242613   21.344688 C.3        1 MOL1        -0.1855
      13    H8      17.590216   18.217978   21.200541 H          1 MOL1         0.0755
      14    H9      18.948985   17.295022   21.831242 H          1 MOL1         0.0755
      15    C6      19.363704   18.324622   19.955500 C.3        1 MOL1        -0.1958
      16    H10     19.136523   19.285049   19.477637 H          1 MOL1         0.0753
      17    H11     20.452930   18.260632   20.056675 H          1 MOL1         0.0753
      18    C7      18.919762   17.211220   19.013576 C.2        1 MOL1         0.6174
      19    O1      19.539163   16.165838   19.028641 O.co2      1 MOL1        -0.6695
      20    O2      17.953977   17.411466   18.303720 O.co2      1 MOL1        -0.6695
@<TRIPOS>BOND
    1     1     2    1
    2     1     3    1
    3     1     4    2
    4     4     5    1
    5     4     6    1
    6     6     7    1
    7     6     8    1
    8     6     9    1
    9     9    10    1
   10     9    11    1
   11     9    12    1
   12    12    13    1
   13    12    14    1
   14    12    15    1
   15    15    16    1
   16    15    17    1
   17    15    18    1
   18    18    19    1
   19    18    20    2
@<TRIPOS>SUBSTRUCTURE
       1 MOL1            1 RESIDUE      1      MOL     
@<SCITEGIC>MOL_PROPERTY
VConf Rank
SciTegic.value.IntegerValue
402

@<SCITEGIC>MOL_PROPERTY
Conf_Id
SciTegic.value.IntegerValue
37

@<SCITEGIC>MOL_PROPERTY
Delta U+W
SciTegic.value.DoubleValue
-0.384

@<SCITEGIC>MOL_PROPERTY
U+W
SciTegic.value.DoubleValue
-52.130

@<SCITEGIC>MOL_PROPERTY
Grad RMS
SciTegic.value.DoubleValue
0.000000

@<SCITEGIC>MOL_PROPERTY
U
SciTegic.value.DoubleValue
7.491

@<SCITEGIC>MOL_PROPERTY
W
SciTegic.value.DoubleValue
-59.621

@<SCITEGIC>MOL_PROPERTY
W(PB)
SciTegic.value.DoubleValue
-61.853

@<SCITEGIC>MOL_PROPERTY
W(SA)
SciTegic.value.DoubleValue
2.232

@<SCITEGIC>MOL_PROPERTY
Valence
SciTegic.value.DoubleValue
9.604

@<SCITEGIC>MOL_PROPERTY
Coulomb
SciTegic.value.DoubleValue
-2.799

@<SCITEGIC>MOL_PROPERTY
VdW
SciTegic.value.DoubleValue
0.686

@<SCITEGIC>MOL_PROPERTY
VdW6
SciTegic.value.DoubleValue
-6.435

@<SCITEGIC>MOL_PROPERTY
VdW12
SciTegic.value.DoubleValue
7.121

@<SCITEGIC>MOL_PROPERTY
Bond
SciTegic.value.DoubleValue
0.124

@<SCITEGIC>MOL_PROPERTY
Angle
SciTegic.value.DoubleValue
2.493

@<SCITEGIC>MOL_PROPERTY
Pdih
SciTegic.value.DoubleValue
6.986

@<SCITEGIC>MOL_PROPERTY
Idih
SciTegic.value.DoubleValue
0.001

@<SCITEGIC>MOL_PROPERTY
Tether
SciTegic.value.DoubleValue
0.000

@<TRIPOS>MOLECULE
guest-s22_confgen4.mol2 : confsearch ligand conformer 403
          20          19           1
SMALL
USER_CHARGES
 
@<TRIPOS>ATOM
       1    C1      22.169213   21.334796   21.508396 C.2        1 MOL1        -0.2535
       2    H1      22.930951   22.100858   21.373874 H          1 MOL1         0.0845
       3    H2      22.496603   20.385103   21.926064 H          1 MOL1         0.0845
       4    C2      20.896459   21.569987   21.169731 C.2        1 MOL1        -0.1324
       5    H3      20.629276   22.541945   20.755559 H          1 MOL1         0.0833
       6    C3      19.729196   20.605570   21.297844 C.3        1 MOL1        -0.1813
       7    H4      19.272262   20.471249   20.308246 H          1 MOL1         0.0753
       8    H5      18.953896   21.070842   21.921195 H          1 MOL1         0.0753
       9    C4      20.086766   19.219580   21.883642 C.3        1 MOL1        -0.1855
      10    H6      20.847288   18.739550   21.252560 H          1 MOL1         0.0755
      11    H7      20.525493   19.345651   22.882999 H          1 MOL1         0.0755
      12    C5      18.848143   18.302241   21.980190 C.3        1 MOL1        -0.1855
      13    H8      18.404411   18.172160   20.983301 H          1 MOL1         0.0755
      14    H9      18.083278   18.777028   22.610401 H          1 MOL1         0.0755
      15    C6      19.203596   16.913733   22.566520 C.3        1 MOL1        -0.1958
      16    H10     19.957008   16.420021   21.941044 H          1 MOL1         0.0753
      17    H11     19.635960   17.024934   23.568168 H          1 MOL1         0.0753
      18    C7      17.996157   15.989099   22.672032 C.2        1 MOL1         0.6174
      19    O1      17.730748   15.281475   21.720469 O.co2      1 MOL1        -0.6695
      20    O2      17.341358   16.015319   23.695359 O.co2      1 MOL1        -0.6695
@<TRIPOS>BOND
    1     1     2    1
    2     1     3    1
    3     1     4    2
    4     4     5    1
    5     4     6    1
    6     6     7    1
    7     6     8    1
    8     6     9    1
    9     9    10    1
   10     9    11    1
   11     9    12    1
   12    12    13    1
   13    12    14    1
   14    12    15    1
   15    15    16    1
   16    15    17    1
   17    15    18    1
   18    18    19    1
   19    18    20    2
@<TRIPOS>SUBSTRUCTURE
       1 MOL1            1 RESIDUE      1      MOL     
@<SCITEGIC>MOL_PROPERTY
VConf Rank
SciTegic.value.IntegerValue
403

@<SCITEGIC>MOL_PROPERTY
Conf_Id
SciTegic.value.IntegerValue
44

@<SCITEGIC>MOL_PROPERTY
Delta U+W
SciTegic.value.DoubleValue
-1.440

@<SCITEGIC>MOL_PROPERTY
U+W
SciTegic.value.DoubleValue
-53.185

@<SCITEGIC>MOL_PROPERTY
Grad RMS
SciTegic.value.DoubleValue
0.000000

@<SCITEGIC>MOL_PROPERTY
U
SciTegic.value.DoubleValue
6.572

@<SCITEGIC>MOL_PROPERTY
W
SciTegic.value.DoubleValue
-59.757

@<SCITEGIC>MOL_PROPERTY
W(PB)
SciTegic.value.DoubleValue
-62.007

@<SCITEGIC>MOL_PROPERTY
W(SA)
SciTegic.value.DoubleValue
2.249

@<SCITEGIC>MOL_PROPERTY
Valence
SciTegic.value.DoubleValue
7.989

@<SCITEGIC>MOL_PROPERTY
Coulomb
SciTegic.value.DoubleValue
-2.697

@<SCITEGIC>MOL_PROPERTY
VdW
SciTegic.value.DoubleValue
1.281

@<SCITEGIC>MOL_PROPERTY
VdW6
SciTegic.value.DoubleValue
-6.467

@<SCITEGIC>MOL_PROPERTY
VdW12
SciTegic.value.DoubleValue
7.748

@<SCITEGIC>MOL_PROPERTY
Bond
SciTegic.value.DoubleValue
0.136

@<SCITEGIC>MOL_PROPERTY
Angle
SciTegic.value.DoubleValue
2.854

@<SCITEGIC>MOL_PROPERTY
Pdih
SciTegic.value.DoubleValue
4.997

@<SCITEGIC>MOL_PROPERTY
Idih
SciTegic.value.DoubleValue
0.001

@<SCITEGIC>MOL_PROPERTY
Tether
SciTegic.value.DoubleValue
0.000

@<TRIPOS>MOLECULE
guest-s22_confgen4.mol2 : confsearch ligand conformer 404
          20          19           1
SMALL
USER_CHARGES
 
@<TRIPOS>ATOM
       1    C1      17.057650   17.802871   23.628438 C.2        1 MOL1        -0.2535
       2    H1      16.623264   18.732888   23.265181 H          1 MOL1         0.0845
       3    H2      16.512096   17.263239   24.400722 H          1 MOL1         0.0845
       4    C2      18.215486   17.339976   23.150045 C.2        1 MOL1        -0.1324
       5    H3      18.633345   16.407052   23.527778 H          1 MOL1         0.0833
       6    C3      19.027592   18.032616   22.078302 C.3        1 MOL1        -0.1813
       7    H4      18.413332   18.791946   21.577600 H          1 MOL1         0.0753
       8    H5      19.319132   17.303511   21.310615 H          1 MOL1         0.0753
       9    C4      20.292193   18.688522   22.677078 C.3        1 MOL1        -0.1855
      10    H6      19.998033   19.456511   23.405676 H          1 MOL1         0.0755
      11    H7      20.855058   17.929358   23.237379 H          1 MOL1         0.0755
      12    C5      21.228088   19.310496   21.613325 C.3        1 MOL1        -0.1855
      13    H8      21.530889   18.541288   20.889444 H          1 MOL1         0.0755
      14    H9      22.148505   19.649015   22.109046 H          1 MOL1         0.0755
      15    C6      20.598107   20.511029   20.860397 C.3        1 MOL1        -0.1958
      16    H10     19.726780   20.188988   20.279207 H          1 MOL1         0.0753
      17    H11     20.251717   21.266700   21.575499 H          1 MOL1         0.0753
      18    C7      21.573627   21.181293   19.899648 C.2        1 MOL1         0.6174
      19    O1      22.260132   22.091076   20.321242 O.co2      1 MOL1        -0.6695
      20    O2      21.635755   20.762973   18.760411 O.co2      1 MOL1        -0.6695
@<TRIPOS>BOND
    1     1     2    1
    2     1     3    1
    3     1     4    2
    4     4     5    1
    5     4     6    1
    6     6     7    1
    7     6     8    1
    8     6     9    1
    9     9    10    1
   10     9    11    1
   11     9    12    1
   12    12    13    1
   13    12    14    1
   14    12    15    1
   15    15    16    1
   16    15    17    1
   17    15    18    1
   18    18    19    1
   19    18    20    2
@<TRIPOS>SUBSTRUCTURE
       1 MOL1            1 RESIDUE      1      MOL     
@<SCITEGIC>MOL_PROPERTY
VConf Rank
SciTegic.value.IntegerValue
404

@<SCITEGIC>MOL_PROPERTY
Conf_Id
SciTegic.value.IntegerValue
38

@<SCITEGIC>MOL_PROPERTY
Delta U+W
SciTegic.value.DoubleValue
-0.381

@<SCITEGIC>MOL_PROPERTY
U+W
SciTegic.value.DoubleValue
-52.126

@<SCITEGIC>MOL_PROPERTY
Grad RMS
SciTegic.value.DoubleValue
0.000000

@<SCITEGIC>MOL_PROPERTY
U
SciTegic.value.DoubleValue
7.601

@<SCITEGIC>MOL_PROPERTY
W
SciTegic.value.DoubleValue
-59.727

@<SCITEGIC>MOL_PROPERTY
W(PB)
SciTegic.value.DoubleValue
-61.964

@<SCITEGIC>MOL_PROPERTY
W(SA)
SciTegic.value.DoubleValue
2.236

@<SCITEGIC>MOL_PROPERTY
Valence
SciTegic.value.DoubleValue
9.602

@<SCITEGIC>MOL_PROPERTY
Coulomb
SciTegic.value.DoubleValue
-2.686

@<SCITEGIC>MOL_PROPERTY
VdW
SciTegic.value.DoubleValue
0.685

@<SCITEGIC>MOL_PROPERTY
VdW6
SciTegic.value.DoubleValue
-6.453

@<SCITEGIC>MOL_PROPERTY
VdW12
SciTegic.value.DoubleValue
7.139

@<SCITEGIC>MOL_PROPERTY
Bond
SciTegic.value.DoubleValue
0.125

@<SCITEGIC>MOL_PROPERTY
Angle
SciTegic.value.DoubleValue
2.485

@<SCITEGIC>MOL_PROPERTY
Pdih
SciTegic.value.DoubleValue
6.991

@<SCITEGIC>MOL_PROPERTY
Idih
SciTegic.value.DoubleValue
0.001

@<SCITEGIC>MOL_PROPERTY
Tether
SciTegic.value.DoubleValue
0.000

@<TRIPOS>MOLECULE
guest-s22_confgen4.mol2 : confsearch ligand conformer 405
          20          19           1
SMALL
USER_CHARGES
 
@<TRIPOS>ATOM
       1    C1      22.317686   18.809616   19.638830 C.2        1 MOL1        -0.2535
       2    H1      21.656265   18.323738   18.923273 H          1 MOL1         0.0845
       3    H2      23.227893   19.264041   19.251158 H          1 MOL1         0.0845
       4    C2      22.026526   18.850896   20.941591 C.2        1 MOL1        -0.1324
       5    H3      22.701743   19.343159   21.641176 H          1 MOL1         0.0833
       6    C3      20.783725   18.242471   21.552258 C.3        1 MOL1        -0.1813
       7    H4      21.061813   17.638665   22.426449 H          1 MOL1         0.0753
       8    H5      20.303185   17.561006   20.837116 H          1 MOL1         0.0753
       9    C4      19.779587   19.334546   21.976630 C.3        1 MOL1        -0.1855
      10    H6      20.261907   20.013335   22.693599 H          1 MOL1         0.0755
      11    H7      19.507529   19.939387   21.100603 H          1 MOL1         0.0755
      12    C5      18.504253   18.729510   22.605746 C.3        1 MOL1        -0.1855
      13    H8      18.771828   18.132400   23.488671 H          1 MOL1         0.0755
      14    H9      18.037932   18.041049   21.888007 H          1 MOL1         0.0755
      15    C6      17.468992   19.810514   23.011409 C.3        1 MOL1        -0.1958
      16    H10     17.212499   20.433324   22.145859 H          1 MOL1         0.0753
      17    H11     16.542076   19.325531   23.339428 H          1 MOL1         0.0753
      18    C7      17.934063   20.719896   24.145252 C.2        1 MOL1         0.6174
      19    O1      18.279969   21.852080   23.870519 O.co2      1 MOL1        -0.6695
      20    O2      17.927244   20.274068   25.275866 O.co2      1 MOL1        -0.6695
@<TRIPOS>BOND
    1     1     2    1
    2     1     3    1
    3     1     4    2
    4     4     5    1
    5     4     6    1
    6     6     7    1
    7     6     8    1
    8     6     9    1
    9     9    10    1
   10     9    11    1
   11     9    12    1
   12    12    13    1
   13    12    14    1
   14    12    15    1
   15    15    16    1
   16    15    17    1
   17    15    18    1
   18    18    19    1
   19    18    20    2
@<TRIPOS>SUBSTRUCTURE
       1 MOL1            1 RESIDUE      1      MOL     
@<SCITEGIC>MOL_PROPERTY
VConf Rank
SciTegic.value.IntegerValue
405

@<SCITEGIC>MOL_PROPERTY
Conf_Id
SciTegic.value.IntegerValue
58

@<SCITEGIC>MOL_PROPERTY
Delta U+W
SciTegic.value.DoubleValue
0.019

@<SCITEGIC>MOL_PROPERTY
U+W
SciTegic.value.DoubleValue
-51.727

@<SCITEGIC>MOL_PROPERTY
Grad RMS
SciTegic.value.DoubleValue
0.000000

@<SCITEGIC>MOL_PROPERTY
U
SciTegic.value.DoubleValue
8.963

@<SCITEGIC>MOL_PROPERTY
W
SciTegic.value.DoubleValue
-60.690

@<SCITEGIC>MOL_PROPERTY
W(PB)
SciTegic.value.DoubleValue
-62.934

@<SCITEGIC>MOL_PROPERTY
W(SA)
SciTegic.value.DoubleValue
2.244

@<SCITEGIC>MOL_PROPERTY
Valence
SciTegic.value.DoubleValue
9.327

@<SCITEGIC>MOL_PROPERTY
Coulomb
SciTegic.value.DoubleValue
-0.780

@<SCITEGIC>MOL_PROPERTY
VdW
SciTegic.value.DoubleValue
0.417

@<SCITEGIC>MOL_PROPERTY
VdW6
SciTegic.value.DoubleValue
-6.635

@<SCITEGIC>MOL_PROPERTY
VdW12
SciTegic.value.DoubleValue
7.052

@<SCITEGIC>MOL_PROPERTY
Bond
SciTegic.value.DoubleValue
0.105

@<SCITEGIC>MOL_PROPERTY
Angle
SciTegic.value.DoubleValue
2.399

@<SCITEGIC>MOL_PROPERTY
Pdih
SciTegic.value.DoubleValue
6.822

@<SCITEGIC>MOL_PROPERTY
Idih
SciTegic.value.DoubleValue
0.000

@<SCITEGIC>MOL_PROPERTY
Tether
SciTegic.value.DoubleValue
0.000

@<TRIPOS>MOLECULE
guest-s22_confgen4.mol2 : confsearch ligand conformer 406
          20          19           1
SMALL
USER_CHARGES
 
@<TRIPOS>ATOM
       1    C1      21.444181   19.747583   25.135545 C.2        1 MOL1        -0.2535
       2    H1      21.651002   20.793334   24.913722 H          1 MOL1         0.0845
       3    H2      22.076134   19.257777   25.874458 H          1 MOL1         0.0845
       4    C2      20.456633   19.087058   24.525527 C.2        1 MOL1        -0.1324
       5    H3      20.266807   18.040148   24.761339 H          1 MOL1         0.0833
       6    C3      19.539036   19.700018   23.491149 C.3        1 MOL1        -0.1813
       7    H4      19.629024   20.794767   23.504060 H          1 MOL1         0.0753
       8    H5      18.495551   19.465583   23.740762 H          1 MOL1         0.0753
       9    C4      19.863044   19.173813   22.077240 C.3        1 MOL1        -0.1855
      10    H6      20.908873   19.405952   21.833057 H          1 MOL1         0.0755
      11    H7      19.770077   18.078974   22.066452 H          1 MOL1         0.0755
      12    C5      18.931827   19.788387   21.007912 C.3        1 MOL1        -0.1855
      13    H8      19.019891   20.882915   21.036845 H          1 MOL1         0.0755
      14    H9      17.885441   19.548956   21.243379 H          1 MOL1         0.0755
      15    C6      19.261675   19.294823   19.575261 C.3        1 MOL1        -0.1958
      16    H10     18.655054   19.847675   18.848390 H          1 MOL1         0.0753
      17    H11     20.311682   19.501836   19.335492 H          1 MOL1         0.0753
      18    C7      18.995557   17.808384   19.354929 C.2        1 MOL1         0.6174
      19    O1      17.842584   17.446449   19.225500 O.co2      1 MOL1        -0.6695
      20    O2      19.947013   17.053769   19.307419 O.co2      1 MOL1        -0.6695
@<TRIPOS>BOND
    1     1     2    1
    2     1     3    1
    3     1     4    2
    4     4     5    1
    5     4     6    1
    6     6     7    1
    7     6     8    1
    8     6     9    1
    9     9    10    1
   10     9    11    1
   11     9    12    1
   12    12    13    1
   13    12    14    1
   14    12    15    1
   15    15    16    1
   16    15    17    1
   17    15    18    1
   18    18    19    1
   19    18    20    2
@<TRIPOS>SUBSTRUCTURE
       1 MOL1            1 RESIDUE      1      MOL     
@<SCITEGIC>MOL_PROPERTY
VConf Rank
SciTegic.value.IntegerValue
406

@<SCITEGIC>MOL_PROPERTY
Conf_Id
SciTegic.value.IntegerValue
54

@<SCITEGIC>MOL_PROPERTY
Delta U+W
SciTegic.value.DoubleValue
-0.048

@<SCITEGIC>MOL_PROPERTY
U+W
SciTegic.value.DoubleValue
-51.793

@<SCITEGIC>MOL_PROPERTY
Grad RMS
SciTegic.value.DoubleValue
0.000000

@<SCITEGIC>MOL_PROPERTY
U
SciTegic.value.DoubleValue
8.964

@<SCITEGIC>MOL_PROPERTY
W
SciTegic.value.DoubleValue
-60.756

@<SCITEGIC>MOL_PROPERTY
W(PB)
SciTegic.value.DoubleValue
-63.007

@<SCITEGIC>MOL_PROPERTY
W(SA)
SciTegic.value.DoubleValue
2.251

@<SCITEGIC>MOL_PROPERTY
Valence
SciTegic.value.DoubleValue
9.327

@<SCITEGIC>MOL_PROPERTY
Coulomb
SciTegic.value.DoubleValue
-0.780

@<SCITEGIC>MOL_PROPERTY
VdW
SciTegic.value.DoubleValue
0.417

@<SCITEGIC>MOL_PROPERTY
VdW6
SciTegic.value.DoubleValue
-6.635

@<SCITEGIC>MOL_PROPERTY
VdW12
SciTegic.value.DoubleValue
7.052

@<SCITEGIC>MOL_PROPERTY
Bond
SciTegic.value.DoubleValue
0.105

@<SCITEGIC>MOL_PROPERTY
Angle
SciTegic.value.DoubleValue
2.399

@<SCITEGIC>MOL_PROPERTY
Pdih
SciTegic.value.DoubleValue
6.822

@<SCITEGIC>MOL_PROPERTY
Idih
SciTegic.value.DoubleValue
0.000

@<SCITEGIC>MOL_PROPERTY
Tether
SciTegic.value.DoubleValue
0.000

@<TRIPOS>MOLECULE
guest-s22_confgen4.mol2 : confsearch ligand conformer 407
          20          19           1
SMALL
USER_CHARGES
 
@<TRIPOS>ATOM
       1    C1      20.243234   16.226577   23.731579 C.2        1 MOL1        -0.2535
       2    H1      19.575331   15.575831   24.293383 H          1 MOL1         0.0845
       3    H2      21.036144   15.753266   23.154709 H          1 MOL1         0.0845
       4    C2      20.090682   17.553256   23.749497 C.2        1 MOL1        -0.1324
       5    H3      19.292444   18.006658   24.336434 H          1 MOL1         0.0833
       6    C3      20.983645   18.519137   23.000137 C.3        1 MOL1        -0.1813
       7    H4      21.935425   18.028718   22.754915 H          1 MOL1         0.0753
       8    H5      21.234980   19.372884   23.643560 H          1 MOL1         0.0753
       9    C4      20.336568   19.025420   21.691256 C.3        1 MOL1        -0.1855
      10    H6      21.082989   19.606228   21.132240 H          1 MOL1         0.0755
      11    H7      20.070972   18.166945   21.059103 H          1 MOL1         0.0755
      12    C5      19.085327   19.901522   21.938130 C.3        1 MOL1        -0.1855
      13    H8      19.347478   20.752215   22.582362 H          1 MOL1         0.0755
      14    H9      18.329144   19.316793   22.478291 H          1 MOL1         0.0755
      15    C6      18.458046   20.428502   20.621319 C.3        1 MOL1        -0.1958
      16    H10     18.221728   19.591609   19.953040 H          1 MOL1         0.0753
      17    H11     17.511161   20.934447   20.843544 H          1 MOL1         0.0753
      18    C7      19.338987   21.420665   19.867404 C.2        1 MOL1         0.6174
      19    O1      19.916154   21.035858   18.869481 O.co2      1 MOL1        -0.6695
      20    O2      19.415763   22.556432   20.293146 O.co2      1 MOL1        -0.6695
@<TRIPOS>BOND
    1     1     2    1
    2     1     3    1
    3     1     4    2
    4     4     5    1
    5     4     6    1
    6     6     7    1
    7     6     8    1
    8     6     9    1
    9     9    10    1
   10     9    11    1
   11     9    12    1
   12    12    13    1
   13    12    14    1
   14    12    15    1
   15    15    16    1
   16    15    17    1
   17    15    18    1
   18    18    19    1
   19    18    20    2
@<TRIPOS>SUBSTRUCTURE
       1 MOL1            1 RESIDUE      1      MOL     
@<SCITEGIC>MOL_PROPERTY
VConf Rank
SciTegic.value.IntegerValue
407

@<SCITEGIC>MOL_PROPERTY
Conf_Id
SciTegic.value.IntegerValue
27

@<SCITEGIC>MOL_PROPERTY
Delta U+W
SciTegic.value.DoubleValue
0.478

@<SCITEGIC>MOL_PROPERTY
U+W
SciTegic.value.DoubleValue
-51.267

@<SCITEGIC>MOL_PROPERTY
Grad RMS
SciTegic.value.DoubleValue
0.000000

@<SCITEGIC>MOL_PROPERTY
U
SciTegic.value.DoubleValue
9.192

@<SCITEGIC>MOL_PROPERTY
W
SciTegic.value.DoubleValue
-60.459

@<SCITEGIC>MOL_PROPERTY
W(PB)
SciTegic.value.DoubleValue
-62.649

@<SCITEGIC>MOL_PROPERTY
W(SA)
SciTegic.value.DoubleValue
2.190

@<SCITEGIC>MOL_PROPERTY
Valence
SciTegic.value.DoubleValue
9.572

@<SCITEGIC>MOL_PROPERTY
Coulomb
SciTegic.value.DoubleValue
-0.884

@<SCITEGIC>MOL_PROPERTY
VdW
SciTegic.value.DoubleValue
0.504

@<SCITEGIC>MOL_PROPERTY
VdW6
SciTegic.value.DoubleValue
-7.168

@<SCITEGIC>MOL_PROPERTY
VdW12
SciTegic.value.DoubleValue
7.672

@<SCITEGIC>MOL_PROPERTY
Bond
SciTegic.value.DoubleValue
0.127

@<SCITEGIC>MOL_PROPERTY
Angle
SciTegic.value.DoubleValue
2.504

@<SCITEGIC>MOL_PROPERTY
Pdih
SciTegic.value.DoubleValue
6.941

@<SCITEGIC>MOL_PROPERTY
Idih
SciTegic.value.DoubleValue
0.001

@<SCITEGIC>MOL_PROPERTY
Tether
SciTegic.value.DoubleValue
0.000

@<TRIPOS>MOLECULE
guest-s22_confgen4.mol2 : confsearch ligand conformer 408
          20          19           1
SMALL
USER_CHARGES
 
@<TRIPOS>ATOM
       1    C1      18.421485   19.988351   19.056734 C.2        1 MOL1        -0.2535
       2    H1      19.210402   19.908117   18.310624 H          1 MOL1         0.0845
       3    H2      17.691056   20.785598   18.929979 H          1 MOL1         0.0845
       4    C2      18.350916   19.145636   20.090431 C.2        1 MOL1        -0.1324
       5    H3      17.551107   19.241834   20.824150 H          1 MOL1         0.0833
       6    C3      19.325460   18.011673   20.327475 C.3        1 MOL1        -0.1813
       7    H4      19.850367   17.773039   19.392552 H          1 MOL1         0.0753
       8    H5      18.779498   17.102837   20.613836 H          1 MOL1         0.0753
       9    C4      20.373565   18.353577   21.410359 C.3        1 MOL1        -0.1855
      10    H6      21.124369   17.552193   21.441280 H          1 MOL1         0.0755
      11    H7      20.905435   19.272063   21.126100 H          1 MOL1         0.0755
      12    C5      19.752633   18.521473   22.816167 C.3        1 MOL1        -0.1855
      13    H8      19.199358   17.611903   23.088062 H          1 MOL1         0.0755
      14    H9      19.027423   19.346526   22.809788 H          1 MOL1         0.0755
      15    C6      20.830699   18.804848   23.891124 C.3        1 MOL1        -0.1958
      16    H10     21.556793   17.983791   23.925606 H          1 MOL1         0.0753
      17    H11     21.384480   19.717496   23.640107 H          1 MOL1         0.0753
      18    C7      20.243323   18.975992   25.287458 C.2        1 MOL1         0.6174
      19    O1      19.917704   20.092353   25.640119 O.co2      1 MOL1        -0.6695
      20    O2      20.110597   17.985682   25.979100 O.co2      1 MOL1        -0.6695
@<TRIPOS>BOND
    1     1     2    1
    2     1     3    1
    3     1     4    2
    4     4     5    1
    5     4     6    1
    6     6     7    1
    7     6     8    1
    8     6     9    1
    9     9    10    1
   10     9    11    1
   11     9    12    1
   12    12    13    1
   13    12    14    1
   14    12    15    1
   15    15    16    1
   16    15    17    1
   17    15    18    1
   18    18    19    1
   19    18    20    2
@<TRIPOS>SUBSTRUCTURE
       1 MOL1            1 RESIDUE      1      MOL     
@<SCITEGIC>MOL_PROPERTY
VConf Rank
SciTegic.value.IntegerValue
408

@<SCITEGIC>MOL_PROPERTY
Conf_Id
SciTegic.value.IntegerValue
41

@<SCITEGIC>MOL_PROPERTY
Delta U+W
SciTegic.value.DoubleValue
-0.634

@<SCITEGIC>MOL_PROPERTY
U+W
SciTegic.value.DoubleValue
-52.379

@<SCITEGIC>MOL_PROPERTY
Grad RMS
SciTegic.value.DoubleValue
0.000000

@<SCITEGIC>MOL_PROPERTY
U
SciTegic.value.DoubleValue
7.828

@<SCITEGIC>MOL_PROPERTY
W
SciTegic.value.DoubleValue
-60.207

@<SCITEGIC>MOL_PROPERTY
W(PB)
SciTegic.value.DoubleValue
-62.449

@<SCITEGIC>MOL_PROPERTY
W(SA)
SciTegic.value.DoubleValue
2.242

@<SCITEGIC>MOL_PROPERTY
Valence
SciTegic.value.DoubleValue
9.300

@<SCITEGIC>MOL_PROPERTY
Coulomb
SciTegic.value.DoubleValue
-2.080

@<SCITEGIC>MOL_PROPERTY
VdW
SciTegic.value.DoubleValue
0.608

@<SCITEGIC>MOL_PROPERTY
VdW6
SciTegic.value.DoubleValue
-6.341

@<SCITEGIC>MOL_PROPERTY
VdW12
SciTegic.value.DoubleValue
6.949

@<SCITEGIC>MOL_PROPERTY
Bond
SciTegic.value.DoubleValue
0.103

@<SCITEGIC>MOL_PROPERTY
Angle
SciTegic.value.DoubleValue
2.334

@<SCITEGIC>MOL_PROPERTY
Pdih
SciTegic.value.DoubleValue
6.862

@<SCITEGIC>MOL_PROPERTY
Idih
SciTegic.value.DoubleValue
0.001

@<SCITEGIC>MOL_PROPERTY
Tether
SciTegic.value.DoubleValue
0.000

@<TRIPOS>MOLECULE
guest-s22_confgen4.mol2 : confsearch ligand conformer 409
          20          19           1
SMALL
USER_CHARGES
 
@<TRIPOS>ATOM
       1    C1      21.314323   16.119853   20.510409 C.2        1 MOL1        -0.2535
       2    H1      21.422350   15.036656   20.494522 H          1 MOL1         0.0845
       3    H2      21.513863   16.656937   19.584516 H          1 MOL1         0.0845
       4    C2      20.948895   16.760700   21.623734 C.2        1 MOL1        -0.1324
       5    H3      20.753047   16.204603   22.540285 H          1 MOL1         0.0833
       6    C3      20.779556   18.260436   21.722299 C.3        1 MOL1        -0.1813
       7    H4      21.237183   18.752712   20.853613 H          1 MOL1         0.0753
       8    H5      21.309991   18.624367   22.611763 H          1 MOL1         0.0753
       9    C4      19.285672   18.645693   21.806348 C.3        1 MOL1        -0.1855
      10    H6      18.753529   18.188440   20.960828 H          1 MOL1         0.0755
      11    H7      18.845959   18.215064   22.716551 H          1 MOL1         0.0755
      12    C5      19.038147   20.174090   21.775942 C.3        1 MOL1        -0.1855
      13    H8      17.954695   20.356567   21.761114 H          1 MOL1         0.0755
      14    H9      19.432055   20.585687   20.836883 H          1 MOL1         0.0755
      15    C6      19.657714   20.948983   22.970973 C.3        1 MOL1        -0.1958
      16    H10     20.749133   20.849960   22.972691 H          1 MOL1         0.0753
      17    H11     19.443792   22.018381   22.859927 H          1 MOL1         0.0753
      18    C7      19.125812   20.519141   24.335177 C.2        1 MOL1         0.6174
      19    O1      17.989830   20.833856   24.631663 O.co2      1 MOL1        -0.6695
      20    O2      19.865655   19.897451   25.072122 O.co2      1 MOL1        -0.6695
@<TRIPOS>BOND
    1     1     2    1
    2     1     3    1
    3     1     4    2
    4     4     5    1
    5     4     6    1
    6     6     7    1
    7     6     8    1
    8     6     9    1
    9     9    10    1
   10     9    11    1
   11     9    12    1
   12    12    13    1
   13    12    14    1
   14    12    15    1
   15    15    16    1
   16    15    17    1
   17    15    18    1
   18    18    19    1
   19    18    20    2
@<TRIPOS>SUBSTRUCTURE
       1 MOL1            1 RESIDUE      1      MOL     
@<SCITEGIC>MOL_PROPERTY
VConf Rank
SciTegic.value.IntegerValue
409

@<SCITEGIC>MOL_PROPERTY
Conf_Id
SciTegic.value.IntegerValue
84

@<SCITEGIC>MOL_PROPERTY
Delta U+W
SciTegic.value.DoubleValue
0.942

@<SCITEGIC>MOL_PROPERTY
U+W
SciTegic.value.DoubleValue
-50.803

@<SCITEGIC>MOL_PROPERTY
Grad RMS
SciTegic.value.DoubleValue
0.000000

@<SCITEGIC>MOL_PROPERTY
U
SciTegic.value.DoubleValue
10.196

@<SCITEGIC>MOL_PROPERTY
W
SciTegic.value.DoubleValue
-60.999

@<SCITEGIC>MOL_PROPERTY
W(PB)
SciTegic.value.DoubleValue
-63.182

@<SCITEGIC>MOL_PROPERTY
W(SA)
SciTegic.value.DoubleValue
2.182

@<SCITEGIC>MOL_PROPERTY
Valence
SciTegic.value.DoubleValue
9.837

@<SCITEGIC>MOL_PROPERTY
Coulomb
SciTegic.value.DoubleValue
0.032

@<SCITEGIC>MOL_PROPERTY
VdW
SciTegic.value.DoubleValue
0.328

@<SCITEGIC>MOL_PROPERTY
VdW6
SciTegic.value.DoubleValue
-7.642

@<SCITEGIC>MOL_PROPERTY
VdW12
SciTegic.value.DoubleValue
7.969

@<SCITEGIC>MOL_PROPERTY
Bond
SciTegic.value.DoubleValue
0.151

@<SCITEGIC>MOL_PROPERTY
Angle
SciTegic.value.DoubleValue
2.748

@<SCITEGIC>MOL_PROPERTY
Pdih
SciTegic.value.DoubleValue
6.937

@<SCITEGIC>MOL_PROPERTY
Idih
SciTegic.value.DoubleValue
0.001

@<SCITEGIC>MOL_PROPERTY
Tether
SciTegic.value.DoubleValue
0.000

@<TRIPOS>MOLECULE
guest-s22_confgen4.mol2 : confsearch ligand conformer 410
          20          19           1
SMALL
USER_CHARGES
 
@<TRIPOS>ATOM
       1    C1      19.090524   17.757583   18.980355 C.2        1 MOL1        -0.2535
       2    H1      18.803418   16.848500   18.454618 H          1 MOL1         0.0845
       3    H2      18.621012   18.688089   18.665235 H          1 MOL1         0.0845
       4    C2      19.982288   17.727724   19.974100 C.2        1 MOL1        -0.1324
       5    H3      20.440044   16.785532   20.274715 H          1 MOL1         0.0833
       6    C3      20.430076   18.947485   20.748267 C.3        1 MOL1        -0.1813
       7    H4      20.126700   19.863586   20.223376 H          1 MOL1         0.0753
       8    H5      21.526695   18.964128   20.805132 H          1 MOL1         0.0753
       9    C4      19.837412   18.951950   22.172974 C.3        1 MOL1        -0.1855
      10    H6      18.740601   18.928777   22.108565 H          1 MOL1         0.0755
      11    H7      20.143790   18.037921   22.699977 H          1 MOL1         0.0755
      12    C5      20.288438   20.191005   22.978984 C.3        1 MOL1        -0.1855
      13    H8      19.971182   21.107223   22.461679 H          1 MOL1         0.0755
      14    H9      21.385776   20.215817   23.021478 H          1 MOL1         0.0755
      15    C6      19.728691   20.197882   24.425193 C.3        1 MOL1        -0.1958
      16    H10     20.014408   19.276237   24.946527 H          1 MOL1         0.0753
      17    H11     20.171283   21.029828   24.985507 H          1 MOL1         0.0753
      18    C7      18.212327   20.351312   24.502614 C.2        1 MOL1         0.6174
      19    O1      17.547499   19.371122   24.775019 O.co2      1 MOL1        -0.6695
      20    O2      17.737409   21.451713   24.300926 O.co2      1 MOL1        -0.6695
@<TRIPOS>BOND
    1     1     2    1
    2     1     3    1
    3     1     4    2
    4     4     5    1
    5     4     6    1
    6     6     7    1
    7     6     8    1
    8     6     9    1
    9     9    10    1
   10     9    11    1
   11     9    12    1
   12    12    13    1
   13    12    14    1
   14    12    15    1
   15    15    16    1
   16    15    17    1
   17    15    18    1
   18    18    19    1
   19    18    20    2
@<TRIPOS>SUBSTRUCTURE
       1 MOL1            1 RESIDUE      1      MOL     
@<SCITEGIC>MOL_PROPERTY
VConf Rank
SciTegic.value.IntegerValue
410

@<SCITEGIC>MOL_PROPERTY
Conf_Id
SciTegic.value.IntegerValue
81

@<SCITEGIC>MOL_PROPERTY
Delta U+W
SciTegic.value.DoubleValue
-0.051

@<SCITEGIC>MOL_PROPERTY
U+W
SciTegic.value.DoubleValue
-51.796

@<SCITEGIC>MOL_PROPERTY
Grad RMS
SciTegic.value.DoubleValue
0.000000

@<SCITEGIC>MOL_PROPERTY
U
SciTegic.value.DoubleValue
9.412

@<SCITEGIC>MOL_PROPERTY
W
SciTegic.value.DoubleValue
-61.209

@<SCITEGIC>MOL_PROPERTY
W(PB)
SciTegic.value.DoubleValue
-63.452

@<SCITEGIC>MOL_PROPERTY
W(SA)
SciTegic.value.DoubleValue
2.243

@<SCITEGIC>MOL_PROPERTY
Valence
SciTegic.value.DoubleValue
9.329

@<SCITEGIC>MOL_PROPERTY
Coulomb
SciTegic.value.DoubleValue
-0.323

@<SCITEGIC>MOL_PROPERTY
VdW
SciTegic.value.DoubleValue
0.406

@<SCITEGIC>MOL_PROPERTY
VdW6
SciTegic.value.DoubleValue
-6.640

@<SCITEGIC>MOL_PROPERTY
VdW12
SciTegic.value.DoubleValue
7.046

@<SCITEGIC>MOL_PROPERTY
Bond
SciTegic.value.DoubleValue
0.105

@<SCITEGIC>MOL_PROPERTY
Angle
SciTegic.value.DoubleValue
2.401

@<SCITEGIC>MOL_PROPERTY
Pdih
SciTegic.value.DoubleValue
6.823

@<SCITEGIC>MOL_PROPERTY
Idih
SciTegic.value.DoubleValue
0.000

@<SCITEGIC>MOL_PROPERTY
Tether
SciTegic.value.DoubleValue
0.000

@<TRIPOS>MOLECULE
guest-s22_confgen4.mol2 : confsearch ligand conformer 411
          20          19           1
SMALL
USER_CHARGES
 
@<TRIPOS>ATOM
       1    C1      17.593772   17.896994   24.243784 C.2        1 MOL1        -0.2535
       2    H1      16.957381   18.717374   24.571568 H          1 MOL1         0.0845
       3    H2      17.270406   16.885380   24.482986 H          1 MOL1         0.0845
       4    C2      18.726335   18.118706   23.571606 C.2        1 MOL1        -0.1324
       5    H3      19.350219   17.283515   23.254669 H          1 MOL1         0.0833
       6    C3      19.241625   19.495007   23.208567 C.3        1 MOL1        -0.1813
       7    H4      20.316293   19.563124   23.421595 H          1 MOL1         0.0753
       8    H5      18.762016   20.249877   23.846032 H          1 MOL1         0.0753
       9    C4      18.968898   19.857045   21.728954 C.3        1 MOL1        -0.1855
      10    H6      17.883180   19.867136   21.561771 H          1 MOL1         0.0755
      11    H7      19.314621   20.883338   21.544103 H          1 MOL1         0.0755
      12    C5      19.624114   18.903354   20.696842 C.3        1 MOL1        -0.1855
      13    H8      19.346016   19.233750   19.686554 H          1 MOL1         0.0755
      14    H9      19.205178   17.894955   20.812246 H          1 MOL1         0.0755
      15    C6      21.172695   18.825420   20.786366 C.3        1 MOL1        -0.1958
      16    H10     21.483765   18.426290   21.758463 H          1 MOL1         0.0753
      17    H11     21.545183   18.124913   20.029960 H          1 MOL1         0.0753
      18    C7      21.877727   20.159164   20.557019 C.2        1 MOL1         0.6174
      19    O1      22.398096   20.707204   21.508836 O.co2      1 MOL1        -0.6695
      20    O2      21.902709   20.606493   19.427093 O.co2      1 MOL1        -0.6695
@<TRIPOS>BOND
    1     1     2    1
    2     1     3    1
    3     1     4    2
    4     4     5    1
    5     4     6    1
    6     6     7    1
    7     6     8    1
    8     6     9    1
    9     9    10    1
   10     9    11    1
   11     9    12    1
   12    12    13    1
   13    12    14    1
   14    12    15    1
   15    15    16    1
   16    15    17    1
   17    15    18    1
   18    18    19    1
   19    18    20    2
@<TRIPOS>SUBSTRUCTURE
       1 MOL1            1 RESIDUE      1      MOL     
@<SCITEGIC>MOL_PROPERTY
VConf Rank
SciTegic.value.IntegerValue
411

@<SCITEGIC>MOL_PROPERTY
Conf_Id
SciTegic.value.IntegerValue
86

@<SCITEGIC>MOL_PROPERTY
Delta U+W
SciTegic.value.DoubleValue
1.248

@<SCITEGIC>MOL_PROPERTY
U+W
SciTegic.value.DoubleValue
-50.498

@<SCITEGIC>MOL_PROPERTY
Grad RMS
SciTegic.value.DoubleValue
0.000000

@<SCITEGIC>MOL_PROPERTY
U
SciTegic.value.DoubleValue
10.404

@<SCITEGIC>MOL_PROPERTY
W
SciTegic.value.DoubleValue
-60.901

@<SCITEGIC>MOL_PROPERTY
W(PB)
SciTegic.value.DoubleValue
-63.061

@<SCITEGIC>MOL_PROPERTY
W(SA)
SciTegic.value.DoubleValue
2.159

@<SCITEGIC>MOL_PROPERTY
Valence
SciTegic.value.DoubleValue
10.021

@<SCITEGIC>MOL_PROPERTY
Coulomb
SciTegic.value.DoubleValue
0.094

@<SCITEGIC>MOL_PROPERTY
VdW
SciTegic.value.DoubleValue
0.289

@<SCITEGIC>MOL_PROPERTY
VdW6
SciTegic.value.DoubleValue
-8.409

@<SCITEGIC>MOL_PROPERTY
VdW12
SciTegic.value.DoubleValue
8.698

@<SCITEGIC>MOL_PROPERTY
Bond
SciTegic.value.DoubleValue
0.179

@<SCITEGIC>MOL_PROPERTY
Angle
SciTegic.value.DoubleValue
2.939

@<SCITEGIC>MOL_PROPERTY
Pdih
SciTegic.value.DoubleValue
6.902

@<SCITEGIC>MOL_PROPERTY
Idih
SciTegic.value.DoubleValue
0.001

@<SCITEGIC>MOL_PROPERTY
Tether
SciTegic.value.DoubleValue
0.000

@<TRIPOS>MOLECULE
guest-s22_confgen4.mol2 : confsearch ligand conformer 412
          20          19           1
SMALL
USER_CHARGES
 
@<TRIPOS>ATOM
       1    C1      20.704183   21.293892   24.011191 C.2        1 MOL1        -0.2535
       2    H1      20.652526   21.502878   25.078318 H          1 MOL1         0.0845
       3    H2      21.691879   21.259717   23.554343 H          1 MOL1         0.0845
       4    C2      19.596759   21.084521   23.294392 C.2        1 MOL1        -0.1324
       5    H3      18.617728   21.120957   23.771425 H          1 MOL1         0.0833
       6    C3      19.589187   20.788514   21.809678 C.3        1 MOL1        -0.1813
       7    H4      20.581372   20.968750   21.374080 H          1 MOL1         0.0753
       8    H5      18.900730   21.482403   21.309313 H          1 MOL1         0.0753
       9    C4      19.146777   19.340059   21.502576 C.3        1 MOL1        -0.1855
      10    H6      18.156202   19.157724   21.941254 H          1 MOL1         0.0755
      11    H7      19.032625   19.229393   20.415501 H          1 MOL1         0.0755
      12    C5      20.152418   18.285737   22.022857 C.3        1 MOL1        -0.1855
      13    H8      20.262326   18.390744   23.110498 H          1 MOL1         0.0755
      14    H9      21.143893   18.470740   21.586851 H          1 MOL1         0.0755
      15    C6      19.712674   16.833278   21.703451 C.3        1 MOL1        -0.1958
      16    H10     20.391486   16.128216   22.197459 H          1 MOL1         0.0753
      17    H11     18.710194   16.643976   22.105914 H          1 MOL1         0.0753
      18    C7      19.711517   16.498377   20.214638 C.2        1 MOL1         0.6174
      19    O1      20.780245   16.295435   19.672640 O.co2      1 MOL1        -0.6695
      20    O2      18.642987   16.437846   19.638732 O.co2      1 MOL1        -0.6695
@<TRIPOS>BOND
    1     1     2    1
    2     1     3    1
    3     1     4    2
    4     4     5    1
    5     4     6    1
    6     6     7    1
    7     6     8    1
    8     6     9    1
    9     9    10    1
   10     9    11    1
   11     9    12    1
   12    12    13    1
   13    12    14    1
   14    12    15    1
   15    15    16    1
   16    15    17    1
   17    15    18    1
   18    18    19    1
   19    18    20    2
@<TRIPOS>SUBSTRUCTURE
       1 MOL1            1 RESIDUE      1      MOL     
@<SCITEGIC>MOL_PROPERTY
VConf Rank
SciTegic.value.IntegerValue
412

@<SCITEGIC>MOL_PROPERTY
Conf_Id
SciTegic.value.IntegerValue
28

@<SCITEGIC>MOL_PROPERTY
Delta U+W
SciTegic.value.DoubleValue
0.446

@<SCITEGIC>MOL_PROPERTY
U+W
SciTegic.value.DoubleValue
-51.299

@<SCITEGIC>MOL_PROPERTY
Grad RMS
SciTegic.value.DoubleValue
0.000000

@<SCITEGIC>MOL_PROPERTY
U
SciTegic.value.DoubleValue
9.295

@<SCITEGIC>MOL_PROPERTY
W
SciTegic.value.DoubleValue
-60.594

@<SCITEGIC>MOL_PROPERTY
W(PB)
SciTegic.value.DoubleValue
-62.806

@<SCITEGIC>MOL_PROPERTY
W(SA)
SciTegic.value.DoubleValue
2.212

@<SCITEGIC>MOL_PROPERTY
Valence
SciTegic.value.DoubleValue
9.495

@<SCITEGIC>MOL_PROPERTY
Coulomb
SciTegic.value.DoubleValue
-0.610

@<SCITEGIC>MOL_PROPERTY
VdW
SciTegic.value.DoubleValue
0.409

@<SCITEGIC>MOL_PROPERTY
VdW6
SciTegic.value.DoubleValue
-7.332

@<SCITEGIC>MOL_PROPERTY
VdW12
SciTegic.value.DoubleValue
7.741

@<SCITEGIC>MOL_PROPERTY
Bond
SciTegic.value.DoubleValue
0.126

@<SCITEGIC>MOL_PROPERTY
Angle
SciTegic.value.DoubleValue
2.497

@<SCITEGIC>MOL_PROPERTY
Pdih
SciTegic.value.DoubleValue
6.872

@<SCITEGIC>MOL_PROPERTY
Idih
SciTegic.value.DoubleValue
0.000

@<SCITEGIC>MOL_PROPERTY
Tether
SciTegic.value.DoubleValue
0.000

@<TRIPOS>MOLECULE
guest-s22_confgen4.mol2 : confsearch ligand conformer 413
          20          19           1
SMALL
USER_CHARGES
 
@<TRIPOS>ATOM
       1    C1      17.428171   18.270000   20.367505 C.2        1 MOL1        -0.2535
       2    H1      17.725212   17.439083   21.003775 H          1 MOL1         0.0845
       3    H2      16.521304   18.138886   19.779677 H          1 MOL1         0.0845
       4    C2      18.127945   19.408272   20.299479 C.2        1 MOL1        -0.1324
       5    H3      17.778607   20.206533   19.645045 H          1 MOL1         0.0833
       6    C3      19.405909   19.736233   21.053605 C.3        1 MOL1        -0.1813
       7    H4      19.213503   20.601489   21.700886 H          1 MOL1         0.0753
       8    H5      20.165058   20.065064   20.331582 H          1 MOL1         0.0753
       9    C4      19.983641   18.572753   21.896895 C.3        1 MOL1        -0.1855
      10    H6      19.266755   18.294147   22.681515 H          1 MOL1         0.0755
      11    H7      20.104695   17.690515   21.253703 H          1 MOL1         0.0755
      12    C5      21.356277   18.896498   22.537300 C.3        1 MOL1        -0.1855
      13    H8      22.080768   19.125199   21.744080 H          1 MOL1         0.0755
      14    H9      21.730240   17.996250   23.044364 H          1 MOL1         0.0755
      15    C6      21.331519   20.067678   23.557290 C.3        1 MOL1        -0.1958
      16    H10     22.343092   20.230063   23.947173 H          1 MOL1         0.0753
      17    H11     21.034985   21.002030   23.067441 H          1 MOL1         0.0753
      18    C7      20.416844   19.831984   24.755924 C.2        1 MOL1         0.6174
      19    O1      20.753058   19.002555   25.578395 O.co2      1 MOL1        -0.6695
      20    O2      19.404120   20.497511   24.847153 O.co2      1 MOL1        -0.6695
@<TRIPOS>BOND
    1     1     2    1
    2     1     3    1
    3     1     4    2
    4     4     5    1
    5     4     6    1
    6     6     7    1
    7     6     8    1
    8     6     9    1
    9     9    10    1
   10     9    11    1
   11     9    12    1
   12    12    13    1
   13    12    14    1
   14    12    15    1
   15    15    16    1
   16    15    17    1
   17    15    18    1
   18    18    19    1
   19    18    20    2
@<TRIPOS>SUBSTRUCTURE
       1 MOL1            1 RESIDUE      1      MOL     
@<SCITEGIC>MOL_PROPERTY
VConf Rank
SciTegic.value.IntegerValue
413

@<SCITEGIC>MOL_PROPERTY
Conf_Id
SciTegic.value.IntegerValue
53

@<SCITEGIC>MOL_PROPERTY
Delta U+W
SciTegic.value.DoubleValue
0.549

@<SCITEGIC>MOL_PROPERTY
U+W
SciTegic.value.DoubleValue
-51.197

@<SCITEGIC>MOL_PROPERTY
Grad RMS
SciTegic.value.DoubleValue
0.000000

@<SCITEGIC>MOL_PROPERTY
U
SciTegic.value.DoubleValue
10.870

@<SCITEGIC>MOL_PROPERTY
W
SciTegic.value.DoubleValue
-62.067

@<SCITEGIC>MOL_PROPERTY
W(PB)
SciTegic.value.DoubleValue
-64.228

@<SCITEGIC>MOL_PROPERTY
W(SA)
SciTegic.value.DoubleValue
2.161

@<SCITEGIC>MOL_PROPERTY
Valence
SciTegic.value.DoubleValue
8.803

@<SCITEGIC>MOL_PROPERTY
Coulomb
SciTegic.value.DoubleValue
1.020

@<SCITEGIC>MOL_PROPERTY
VdW
SciTegic.value.DoubleValue
1.048

@<SCITEGIC>MOL_PROPERTY
VdW6
SciTegic.value.DoubleValue
-8.312

@<SCITEGIC>MOL_PROPERTY
VdW12
SciTegic.value.DoubleValue
9.360

@<SCITEGIC>MOL_PROPERTY
Bond
SciTegic.value.DoubleValue
0.212

@<SCITEGIC>MOL_PROPERTY
Angle
SciTegic.value.DoubleValue
3.379

@<SCITEGIC>MOL_PROPERTY
Pdih
SciTegic.value.DoubleValue
5.211

@<SCITEGIC>MOL_PROPERTY
Idih
SciTegic.value.DoubleValue
0.001

@<SCITEGIC>MOL_PROPERTY
Tether
SciTegic.value.DoubleValue
0.000

@<TRIPOS>MOLECULE
guest-s22_confgen4.mol2 : confsearch ligand conformer 414
          20          19           1
SMALL
USER_CHARGES
 
@<TRIPOS>ATOM
       1    C1      17.021214   18.185570   21.561615 C.2        1 MOL1        -0.2535
       2    H1      16.884123   19.143553   22.058377 H          1 MOL1         0.0845
       3    H2      16.217834   17.457840   21.661186 H          1 MOL1         0.0845
       4    C2      18.118684   17.902229   20.851733 C.2        1 MOL1        -0.1324
       5    H3      18.204685   16.928009   20.371314 H          1 MOL1         0.0833
       6    C3      19.313718   18.815965   20.635242 C.3        1 MOL1        -0.1813
       7    H4      19.214371   19.298656   19.654150 H          1 MOL1         0.0753
       8    H5      20.221186   18.203948   20.554519 H          1 MOL1         0.0753
       9    C4      19.539676   19.903403   21.717921 C.3        1 MOL1        -0.1855
      10    H6      20.381980   20.536364   21.406918 H          1 MOL1         0.0755
      11    H7      18.667968   20.569881   21.753364 H          1 MOL1         0.0755
      12    C5      19.823750   19.354700   23.140975 C.3        1 MOL1        -0.1855
      13    H8      18.958365   18.779784   23.494720 H          1 MOL1         0.0755
      14    H9      19.927755   20.203531   23.830676 H          1 MOL1         0.0755
      15    C6      21.094955   18.468762   23.248075 C.3        1 MOL1        -0.1958
      16    H10     21.211126   18.125132   24.282478 H          1 MOL1         0.0753
      17    H11     20.990114   17.567897   22.632891 H          1 MOL1         0.0753
      18    C7      22.386914   19.180969   22.858167 C.2        1 MOL1         0.6174
      19    O1      22.924084   18.869644   21.813331 O.co2      1 MOL1        -0.6695
      20    O2      22.832065   20.016952   23.620060 O.co2      1 MOL1        -0.6695
@<TRIPOS>BOND
    1     1     2    1
    2     1     3    1
    3     1     4    2
    4     4     5    1
    5     4     6    1
    6     6     7    1
    7     6     8    1
    8     6     9    1
    9     9    10    1
   10     9    11    1
   11     9    12    1
   12    12    13    1
   13    12    14    1
   14    12    15    1
   15    15    16    1
   16    15    17    1
   17    15    18    1
   18    18    19    1
   19    18    20    2
@<TRIPOS>SUBSTRUCTURE
       1 MOL1            1 RESIDUE      1      MOL     
@<SCITEGIC>MOL_PROPERTY
VConf Rank
SciTegic.value.IntegerValue
414

@<SCITEGIC>MOL_PROPERTY
Conf_Id
SciTegic.value.IntegerValue
66

@<SCITEGIC>MOL_PROPERTY
Delta U+W
SciTegic.value.DoubleValue
1.737

@<SCITEGIC>MOL_PROPERTY
U+W
SciTegic.value.DoubleValue
-50.008

@<SCITEGIC>MOL_PROPERTY
Grad RMS
SciTegic.value.DoubleValue
0.000000

@<SCITEGIC>MOL_PROPERTY
U
SciTegic.value.DoubleValue
11.091

@<SCITEGIC>MOL_PROPERTY
W
SciTegic.value.DoubleValue
-61.099

@<SCITEGIC>MOL_PROPERTY
W(PB)
SciTegic.value.DoubleValue
-63.213

@<SCITEGIC>MOL_PROPERTY
W(SA)
SciTegic.value.DoubleValue
2.114

@<SCITEGIC>MOL_PROPERTY
Valence
SciTegic.value.DoubleValue
9.664

@<SCITEGIC>MOL_PROPERTY
Coulomb
SciTegic.value.DoubleValue
0.658

@<SCITEGIC>MOL_PROPERTY
VdW
SciTegic.value.DoubleValue
0.769

@<SCITEGIC>MOL_PROPERTY
VdW6
SciTegic.value.DoubleValue
-9.171

@<SCITEGIC>MOL_PROPERTY
VdW12
SciTegic.value.DoubleValue
9.940

@<SCITEGIC>MOL_PROPERTY
Bond
SciTegic.value.DoubleValue
0.244

@<SCITEGIC>MOL_PROPERTY
Angle
SciTegic.value.DoubleValue
3.658

@<SCITEGIC>MOL_PROPERTY
Pdih
SciTegic.value.DoubleValue
5.762

@<SCITEGIC>MOL_PROPERTY
Idih
SciTegic.value.DoubleValue
0.001

@<SCITEGIC>MOL_PROPERTY
Tether
SciTegic.value.DoubleValue
0.000

@<TRIPOS>MOLECULE
guest-s22_confgen4.mol2 : confsearch ligand conformer 415
          20          19           1
SMALL
USER_CHARGES
 
@<TRIPOS>ATOM
       1    C1      19.272904   16.625460   20.798953 C.2        1 MOL1        -0.2535
       2    H1      18.537295   17.220674   20.262499 H          1 MOL1         0.0845
       3    H2      19.787759   15.850467   20.233934 H          1 MOL1         0.0845
       4    C2      19.540117   16.820355   22.094906 C.2        1 MOL1        -0.1324
       5    H3      20.285200   16.193150   22.583582 H          1 MOL1         0.0833
       6    C3      18.906781   17.862488   23.002343 C.3        1 MOL1        -0.1813
       7    H4      19.656456   18.205885   23.726025 H          1 MOL1         0.0753
       8    H5      18.133699   17.374027   23.610071 H          1 MOL1         0.0753
       9    C4      18.290658   19.096132   22.291827 C.3        1 MOL1        -0.1855
      10    H6      17.498433   18.764810   21.607650 H          1 MOL1         0.0755
      11    H7      17.790048   19.721314   23.043602 H          1 MOL1         0.0755
      12    C5      19.307422   19.971617   21.515672 C.3        1 MOL1        -0.1855
      13    H8      18.756438   20.760625   20.985517 H          1 MOL1         0.0755
      14    H9      19.809645   19.375372   20.742456 H          1 MOL1         0.0755
      15    C6      20.374220   20.635704   22.424434 C.3        1 MOL1        -0.1958
      16    H10     19.888714   21.194570   23.233200 H          1 MOL1         0.0753
      17    H11     21.010976   19.874660   22.889402 H          1 MOL1         0.0753
      18    C7      21.280209   21.597637   21.664095 C.2        1 MOL1         0.6174
      19    O1      22.311671   21.163375   21.190540 O.co2      1 MOL1        -0.6695
      20    O2      20.923451   22.754056   21.552948 O.co2      1 MOL1        -0.6695
@<TRIPOS>BOND
    1     1     2    1
    2     1     3    1
    3     1     4    2
    4     4     5    1
    5     4     6    1
    6     6     7    1
    7     6     8    1
    8     6     9    1
    9     9    10    1
   10     9    11    1
   11     9    12    1
   12    12    13    1
   13    12    14    1
   14    12    15    1
   15    15    16    1
   16    15    17    1
   17    15    18    1
   18    18    19    1
   19    18    20    2
@<TRIPOS>SUBSTRUCTURE
       1 MOL1            1 RESIDUE      1      MOL     
@<SCITEGIC>MOL_PROPERTY
VConf Rank
SciTegic.value.IntegerValue
415

@<SCITEGIC>MOL_PROPERTY
Conf_Id
SciTegic.value.IntegerValue
64

@<SCITEGIC>MOL_PROPERTY
Delta U+W
SciTegic.value.DoubleValue
0.366

@<SCITEGIC>MOL_PROPERTY
U+W
SciTegic.value.DoubleValue
-51.379

@<SCITEGIC>MOL_PROPERTY
Grad RMS
SciTegic.value.DoubleValue
0.000000

@<SCITEGIC>MOL_PROPERTY
U
SciTegic.value.DoubleValue
10.000

@<SCITEGIC>MOL_PROPERTY
W
SciTegic.value.DoubleValue
-61.379

@<SCITEGIC>MOL_PROPERTY
W(PB)
SciTegic.value.DoubleValue
-63.541

@<SCITEGIC>MOL_PROPERTY
W(SA)
SciTegic.value.DoubleValue
2.162

@<SCITEGIC>MOL_PROPERTY
Valence
SciTegic.value.DoubleValue
9.398

@<SCITEGIC>MOL_PROPERTY
Coulomb
SciTegic.value.DoubleValue
-0.504

@<SCITEGIC>MOL_PROPERTY
VdW
SciTegic.value.DoubleValue
1.105

@<SCITEGIC>MOL_PROPERTY
VdW6
SciTegic.value.DoubleValue
-7.975

@<SCITEGIC>MOL_PROPERTY
VdW12
SciTegic.value.DoubleValue
9.080

@<SCITEGIC>MOL_PROPERTY
Bond
SciTegic.value.DoubleValue
0.216

@<SCITEGIC>MOL_PROPERTY
Angle
SciTegic.value.DoubleValue
3.417

@<SCITEGIC>MOL_PROPERTY
Pdih
SciTegic.value.DoubleValue
5.765

@<SCITEGIC>MOL_PROPERTY
Idih
SciTegic.value.DoubleValue
0.001

@<SCITEGIC>MOL_PROPERTY
Tether
SciTegic.value.DoubleValue
0.000

@<TRIPOS>MOLECULE
guest-s22_confgen4.mol2 : confsearch ligand conformer 416
          20          19           1
SMALL
USER_CHARGES
 
@<TRIPOS>ATOM
       1    C1      20.748132   16.510001   23.257684 C.2        1 MOL1        -0.2535
       2    H1      20.131843   16.775305   24.115134 H          1 MOL1         0.0845
       3    H2      21.706119   16.033068   23.457431 H          1 MOL1         0.0845
       4    C2      20.349711   16.761909   22.007958 C.2        1 MOL1        -0.1324
       5    H3      20.982819   16.490552   21.163605 H          1 MOL1         0.0833
       6    C3      19.034134   17.421359   21.652486 C.3        1 MOL1        -0.1813
       7    H4      18.378039   17.474191   22.531931 H          1 MOL1         0.0753
       8    H5      18.510610   16.801559   20.912477 H          1 MOL1         0.0753
       9    C4      19.228324   18.838551   21.067852 C.3        1 MOL1        -0.1855
      10    H6      19.885088   18.785684   20.188676 H          1 MOL1         0.0755
      11    H7      18.257845   19.212088   20.713558 H          1 MOL1         0.0755
      12    C5      19.810585   19.833780   22.097451 C.3        1 MOL1        -0.1855
      13    H8      20.794516   19.484791   22.439963 H          1 MOL1         0.0755
      14    H9      19.161275   19.872251   22.983004 H          1 MOL1         0.0755
      15    C6      19.954400   21.257406   21.505313 C.3        1 MOL1        -0.1958
      16    H10     20.610632   21.237208   20.626940 H          1 MOL1         0.0753
      17    H11     18.978156   21.629921   21.172649 H          1 MOL1         0.0753
      18    C7      20.527562   22.258020   22.502485 C.2        1 MOL1         0.6174
      19    O1      19.754478   22.849727   23.229789 O.co2      1 MOL1        -0.6695
      20    O2      21.732858   22.409240   22.535446 O.co2      1 MOL1        -0.6695
@<TRIPOS>BOND
    1     1     2    1
    2     1     3    1
    3     1     4    2
    4     4     5    1
    5     4     6    1
    6     6     7    1
    7     6     8    1
    8     6     9    1
    9     9    10    1
   10     9    11    1
   11     9    12    1
   12    12    13    1
   13    12    14    1
   14    12    15    1
   15    15    16    1
   16    15    17    1
   17    15    18    1
   18    18    19    1
   19    18    20    2
@<TRIPOS>SUBSTRUCTURE
       1 MOL1            1 RESIDUE      1      MOL     
@<SCITEGIC>MOL_PROPERTY
VConf Rank
SciTegic.value.IntegerValue
416

@<SCITEGIC>MOL_PROPERTY
Conf_Id
SciTegic.value.IntegerValue
42

@<SCITEGIC>MOL_PROPERTY
Delta U+W
SciTegic.value.DoubleValue
-0.601

@<SCITEGIC>MOL_PROPERTY
U+W
SciTegic.value.DoubleValue
-52.347

@<SCITEGIC>MOL_PROPERTY
Grad RMS
SciTegic.value.DoubleValue
0.000000

@<SCITEGIC>MOL_PROPERTY
U
SciTegic.value.DoubleValue
8.428

@<SCITEGIC>MOL_PROPERTY
W
SciTegic.value.DoubleValue
-60.774

@<SCITEGIC>MOL_PROPERTY
W(PB)
SciTegic.value.DoubleValue
-62.982

@<SCITEGIC>MOL_PROPERTY
W(SA)
SciTegic.value.DoubleValue
2.208

@<SCITEGIC>MOL_PROPERTY
Valence
SciTegic.value.DoubleValue
9.231

@<SCITEGIC>MOL_PROPERTY
Coulomb
SciTegic.value.DoubleValue
-1.304

@<SCITEGIC>MOL_PROPERTY
VdW
SciTegic.value.DoubleValue
0.501

@<SCITEGIC>MOL_PROPERTY
VdW6
SciTegic.value.DoubleValue
-6.515

@<SCITEGIC>MOL_PROPERTY
VdW12
SciTegic.value.DoubleValue
7.016

@<SCITEGIC>MOL_PROPERTY
Bond
SciTegic.value.DoubleValue
0.103

@<SCITEGIC>MOL_PROPERTY
Angle
SciTegic.value.DoubleValue
2.328

@<SCITEGIC>MOL_PROPERTY
Pdih
SciTegic.value.DoubleValue
6.799

@<SCITEGIC>MOL_PROPERTY
Idih
SciTegic.value.DoubleValue
0.000

@<SCITEGIC>MOL_PROPERTY
Tether
SciTegic.value.DoubleValue
0.000

@<TRIPOS>MOLECULE
guest-s22_confgen4.mol2 : confsearch ligand conformer 417
          20          19           1
SMALL
USER_CHARGES
 
@<TRIPOS>ATOM
       1    C1      21.871001   17.281720   22.751269 C.2        1 MOL1        -0.2535
       2    H1      21.668189   17.310405   23.820587 H          1 MOL1         0.0845
       3    H2      22.911780   17.209784   22.440302 H          1 MOL1         0.0845
       4    C2      20.884348   17.336505   21.852638 C.2        1 MOL1        -0.1324
       5    H3      21.109031   17.309332   20.786718 H          1 MOL1         0.0833
       6    C3      19.416319   17.438496   22.208156 C.3        1 MOL1        -0.1813
       7    H4      19.265378   17.263583   23.282042 H          1 MOL1         0.0753
       8    H5      18.864465   16.646440   21.684788 H          1 MOL1         0.0753
       9    C4      18.813344   18.806802   21.818130 C.3        1 MOL1        -0.1855
      10    H6      18.959424   18.976649   20.742421 H          1 MOL1         0.0755
      11    H7      17.728061   18.777751   21.985634 H          1 MOL1         0.0755
      12    C5      19.421173   19.978560   22.624851 C.3        1 MOL1        -0.1855
      13    H8      20.501147   20.045518   22.433735 H          1 MOL1         0.0755
      14    H9      19.303054   19.778378   23.698259 H          1 MOL1         0.0755
      15    C6      18.758419   21.339894   22.289664 C.3        1 MOL1        -0.1958
      16    H10     17.675229   21.284652   22.452068 H          1 MOL1         0.0753
      17    H11     19.142207   22.110921   22.968056 H          1 MOL1         0.0753
      18    C7      19.012909   21.818311   20.863073 C.2        1 MOL1         0.6174
      19    O1      18.118160   21.702614   20.048700 O.co2      1 MOL1        -0.6695
      20    O2      20.094331   22.311237   20.608821 O.co2      1 MOL1        -0.6695
@<TRIPOS>BOND
    1     1     2    1
    2     1     3    1
    3     1     4    2
    4     4     5    1
    5     4     6    1
    6     6     7    1
    7     6     8    1
    8     6     9    1
    9     9    10    1
   10     9    11    1
   11     9    12    1
   12    12    13    1
   13    12    14    1
   14    12    15    1
   15    15    16    1
   16    15    17    1
   17    15    18    1
   18    18    19    1
   19    18    20    2
@<TRIPOS>SUBSTRUCTURE
       1 MOL1            1 RESIDUE      1      MOL     
@<SCITEGIC>MOL_PROPERTY
VConf Rank
SciTegic.value.IntegerValue
417

@<SCITEGIC>MOL_PROPERTY
Conf_Id
SciTegic.value.IntegerValue
68

@<SCITEGIC>MOL_PROPERTY
Delta U+W
SciTegic.value.DoubleValue
0.492

@<SCITEGIC>MOL_PROPERTY
U+W
SciTegic.value.DoubleValue
-51.253

@<SCITEGIC>MOL_PROPERTY
Grad RMS
SciTegic.value.DoubleValue
0.000000

@<SCITEGIC>MOL_PROPERTY
U
SciTegic.value.DoubleValue
10.179

@<SCITEGIC>MOL_PROPERTY
W
SciTegic.value.DoubleValue
-61.432

@<SCITEGIC>MOL_PROPERTY
W(PB)
SciTegic.value.DoubleValue
-63.627

@<SCITEGIC>MOL_PROPERTY
W(SA)
SciTegic.value.DoubleValue
2.195

@<SCITEGIC>MOL_PROPERTY
Valence
SciTegic.value.DoubleValue
9.483

@<SCITEGIC>MOL_PROPERTY
Coulomb
SciTegic.value.DoubleValue
0.361

@<SCITEGIC>MOL_PROPERTY
VdW
SciTegic.value.DoubleValue
0.335

@<SCITEGIC>MOL_PROPERTY
VdW6
SciTegic.value.DoubleValue
-7.385

@<SCITEGIC>MOL_PROPERTY
VdW12
SciTegic.value.DoubleValue
7.720

@<SCITEGIC>MOL_PROPERTY
Bond
SciTegic.value.DoubleValue
0.125

@<SCITEGIC>MOL_PROPERTY
Angle
SciTegic.value.DoubleValue
2.487

@<SCITEGIC>MOL_PROPERTY
Pdih
SciTegic.value.DoubleValue
6.870

@<SCITEGIC>MOL_PROPERTY
Idih
SciTegic.value.DoubleValue
0.001

@<SCITEGIC>MOL_PROPERTY
Tether
SciTegic.value.DoubleValue
0.000

@<TRIPOS>MOLECULE
guest-s22_confgen4.mol2 : confsearch ligand conformer 418
          20          19           1
SMALL
USER_CHARGES
 
@<TRIPOS>ATOM
       1    C1      18.264162   20.904884   19.746548 C.2        1 MOL1        -0.2535
       2    H1      17.840625   21.757190   20.275398 H          1 MOL1         0.0845
       3    H2      17.730854   20.544461   18.868564 H          1 MOL1         0.0845
       4    C2      19.391871   20.319271   20.157675 C.2        1 MOL1        -0.1324
       5    H3      19.799936   19.469012   19.611975 H          1 MOL1         0.0833
       6    C3      20.189186   20.768351   21.363659 C.3        1 MOL1        -0.1813
       7    H4      19.914020   21.798609   21.627042 H          1 MOL1         0.0753
       8    H5      21.259301   20.789424   21.117883 H          1 MOL1         0.0753
       9    C4      19.954215   19.863372   22.594100 C.3        1 MOL1        -0.1855
      10    H6      20.452141   20.312340   23.464297 H          1 MOL1         0.0755
      11    H7      18.880511   19.838050   22.826733 H          1 MOL1         0.0755
      12    C5      20.484869   18.424130   22.392315 C.3        1 MOL1        -0.1855
      13    H8      21.546053   18.465081   22.112100 H          1 MOL1         0.0755
      14    H9      19.955612   17.941109   21.559612 H          1 MOL1         0.0755
      15    C6      20.333765   17.550630   23.664723 C.3        1 MOL1        -0.1958
      16    H10     20.827300   16.584504   23.506513 H          1 MOL1         0.0753
      17    H11     20.836036   18.028203   24.514671 H          1 MOL1         0.0753
      18    C7      18.885527   17.265885   24.052489 C.2        1 MOL1         0.6174
      19    O1      18.280690   16.419451   23.424135 O.co2      1 MOL1        -0.6695
      20    O2      18.406800   17.882834   24.983788 O.co2      1 MOL1        -0.6695
@<TRIPOS>BOND
    1     1     2    1
    2     1     3    1
    3     1     4    2
    4     4     5    1
    5     4     6    1
    6     6     7    1
    7     6     8    1
    8     6     9    1
    9     9    10    1
   10     9    11    1
   11     9    12    1
   12    12    13    1
   13    12    14    1
   14    12    15    1
   15    15    16    1
   16    15    17    1
   17    15    18    1
   18    18    19    1
   19    18    20    2
@<TRIPOS>SUBSTRUCTURE
       1 MOL1            1 RESIDUE      1      MOL     
@<SCITEGIC>MOL_PROPERTY
VConf Rank
SciTegic.value.IntegerValue
418

@<SCITEGIC>MOL_PROPERTY
Conf_Id
SciTegic.value.IntegerValue
87

@<SCITEGIC>MOL_PROPERTY
Delta U+W
SciTegic.value.DoubleValue
0.339

@<SCITEGIC>MOL_PROPERTY
U+W
SciTegic.value.DoubleValue
-51.407

@<SCITEGIC>MOL_PROPERTY
Grad RMS
SciTegic.value.DoubleValue
0.000000

@<SCITEGIC>MOL_PROPERTY
U
SciTegic.value.DoubleValue
10.461

@<SCITEGIC>MOL_PROPERTY
W
SciTegic.value.DoubleValue
-61.867

@<SCITEGIC>MOL_PROPERTY
W(PB)
SciTegic.value.DoubleValue
-64.045

@<SCITEGIC>MOL_PROPERTY
W(SA)
SciTegic.value.DoubleValue
2.178

@<SCITEGIC>MOL_PROPERTY
Valence
SciTegic.value.DoubleValue
9.555

@<SCITEGIC>MOL_PROPERTY
Coulomb
SciTegic.value.DoubleValue
0.483

@<SCITEGIC>MOL_PROPERTY
VdW
SciTegic.value.DoubleValue
0.423

@<SCITEGIC>MOL_PROPERTY
VdW6
SciTegic.value.DoubleValue
-7.223

@<SCITEGIC>MOL_PROPERTY
VdW12
SciTegic.value.DoubleValue
7.646

@<SCITEGIC>MOL_PROPERTY
Bond
SciTegic.value.DoubleValue
0.126

@<SCITEGIC>MOL_PROPERTY
Angle
SciTegic.value.DoubleValue
2.492

@<SCITEGIC>MOL_PROPERTY
Pdih
SciTegic.value.DoubleValue
6.936

@<SCITEGIC>MOL_PROPERTY
Idih
SciTegic.value.DoubleValue
0.001

@<SCITEGIC>MOL_PROPERTY
Tether
SciTegic.value.DoubleValue
0.000

@<TRIPOS>MOLECULE
guest-s22_confgen4.mol2 : confsearch ligand conformer 419
          20          19           1
SMALL
USER_CHARGES
 
@<TRIPOS>ATOM
       1    C1      20.656974   16.462613   21.055393 C.2        1 MOL1        -0.2535
       2    H1      19.780265   15.928750   20.692365 H          1 MOL1         0.0845
       3    H2      21.591227   16.320000   20.515159 H          1 MOL1         0.0845
       4    C2      20.590577   17.264450   22.121396 C.2        1 MOL1        -0.1324
       5    H3      21.480934   17.783149   22.474954 H          1 MOL1         0.0833
       6    C3      19.330117   17.498812   22.926334 C.3        1 MOL1        -0.1813
       7    H4      19.581142   17.892585   23.920248 H          1 MOL1         0.0753
       8    H5      18.845555   16.529230   23.103867 H          1 MOL1         0.0753
       9    C4      18.313301   18.434574   22.226619 C.3        1 MOL1        -0.1855
      10    H6      18.204343   18.149048   21.171376 H          1 MOL1         0.0755
      11    H7      17.329813   18.267710   22.686665 H          1 MOL1         0.0755
      12    C5      18.633750   19.946491   22.338517 C.3        1 MOL1        -0.1855
      13    H8      18.755716   20.225378   23.394162 H          1 MOL1         0.0755
      14    H9      17.765754   20.510663   21.970032 H          1 MOL1         0.0755
      15    C6      19.882541   20.394117   21.536386 C.3        1 MOL1        -0.1958
      16    H10     20.792094   19.966718   21.970117 H          1 MOL1         0.0753
      17    H11     19.815728   20.039936   20.500811 H          1 MOL1         0.0753
      18    C7      20.054861   21.908457   21.509727 C.2        1 MOL1         0.6174
      19    O1      20.686751   22.430333   22.407084 O.co2      1 MOL1        -0.6695
      20    O2      19.534913   22.529297   20.603584 O.co2      1 MOL1        -0.6695
@<TRIPOS>BOND
    1     1     2    1
    2     1     3    1
    3     1     4    2
    4     4     5    1
    5     4     6    1
    6     6     7    1
    7     6     8    1
    8     6     9    1
    9     9    10    1
   10     9    11    1
   11     9    12    1
   12    12    13    1
   13    12    14    1
   14    12    15    1
   15    15    16    1
   16    15    17    1
   17    15    18    1
   18    18    19    1
   19    18    20    2
@<TRIPOS>SUBSTRUCTURE
       1 MOL1            1 RESIDUE      1      MOL     
@<SCITEGIC>MOL_PROPERTY
VConf Rank
SciTegic.value.IntegerValue
419

@<SCITEGIC>MOL_PROPERTY
Conf_Id
SciTegic.value.IntegerValue
51

@<SCITEGIC>MOL_PROPERTY
Delta U+W
SciTegic.value.DoubleValue
1.709

@<SCITEGIC>MOL_PROPERTY
U+W
SciTegic.value.DoubleValue
-50.036

@<SCITEGIC>MOL_PROPERTY
Grad RMS
SciTegic.value.DoubleValue
0.000000

@<SCITEGIC>MOL_PROPERTY
U
SciTegic.value.DoubleValue
10.643

@<SCITEGIC>MOL_PROPERTY
W
SciTegic.value.DoubleValue
-60.679

@<SCITEGIC>MOL_PROPERTY
W(PB)
SciTegic.value.DoubleValue
-62.882

@<SCITEGIC>MOL_PROPERTY
W(SA)
SciTegic.value.DoubleValue
2.203

@<SCITEGIC>MOL_PROPERTY
Valence
SciTegic.value.DoubleValue
11.231

@<SCITEGIC>MOL_PROPERTY
Coulomb
SciTegic.value.DoubleValue
-1.077

@<SCITEGIC>MOL_PROPERTY
VdW
SciTegic.value.DoubleValue
0.489

@<SCITEGIC>MOL_PROPERTY
VdW6
SciTegic.value.DoubleValue
-7.546

@<SCITEGIC>MOL_PROPERTY
VdW12
SciTegic.value.DoubleValue
8.035

@<SCITEGIC>MOL_PROPERTY
Bond
SciTegic.value.DoubleValue
0.159

@<SCITEGIC>MOL_PROPERTY
Angle
SciTegic.value.DoubleValue
3.005

@<SCITEGIC>MOL_PROPERTY
Pdih
SciTegic.value.DoubleValue
8.065

@<SCITEGIC>MOL_PROPERTY
Idih
SciTegic.value.DoubleValue
0.002

@<SCITEGIC>MOL_PROPERTY
Tether
SciTegic.value.DoubleValue
0.000

@<TRIPOS>MOLECULE
guest-s22_confgen4.mol2 : confsearch ligand conformer 420
          20          19           1
SMALL
USER_CHARGES
 
@<TRIPOS>ATOM
       1    C1      17.742936   18.180598   20.042639 C.2        1 MOL1        -0.2535
       2    H1      18.064800   18.672739   19.126333 H          1 MOL1         0.0845
       3    H2      16.673053   18.044602   20.190547 H          1 MOL1         0.0845
       4    C2      18.625275   17.761220   20.953306 C.2        1 MOL1        -0.1324
       5    H3      18.284158   17.262735   21.859918 H          1 MOL1         0.0833
       6    C3      20.125062   17.905907   20.807335 C.3        1 MOL1        -0.1813
       7    H4      20.405694   17.607360   19.788256 H          1 MOL1         0.0753
       8    H5      20.641770   17.204545   21.475946 H          1 MOL1         0.0753
       9    C4      20.635337   19.347359   21.054331 C.3        1 MOL1        -0.1855
      10    H6      21.629786   19.435951   20.596119 H          1 MOL1         0.0755
      11    H7      19.995555   20.067980   20.526775 H          1 MOL1         0.0755
      12    C5      20.768205   19.745911   22.545843 C.3        1 MOL1        -0.1855
      13    H8      21.300991   20.705455   22.599719 H          1 MOL1         0.0755
      14    H9      21.396991   19.015423   23.073150 H          1 MOL1         0.0755
      15    C6      19.415477   19.896947   23.287856 C.3        1 MOL1        -0.1958
      16    H10     18.742785   20.551989   22.721526 H          1 MOL1         0.0753
      17    H11     18.920017   18.925914   23.386338 H          1 MOL1         0.0753
      18    C7      19.572802   20.475846   24.689193 C.2        1 MOL1         0.6174
      19    O1      19.767403   19.706642   25.609705 O.co2      1 MOL1        -0.6695
      20    O2      19.517146   21.682654   24.821106 O.co2      1 MOL1        -0.6695
@<TRIPOS>BOND
    1     1     2    1
    2     1     3    1
    3     1     4    2
    4     4     5    1
    5     4     6    1
    6     6     7    1
    7     6     8    1
    8     6     9    1
    9     9    10    1
   10     9    11    1
   11     9    12    1
   12    12    13    1
   13    12    14    1
   14    12    15    1
   15    15    16    1
   16    15    17    1
   17    15    18    1
   18    18    19    1
   19    18    20    2
@<TRIPOS>SUBSTRUCTURE
       1 MOL1            1 RESIDUE      1      MOL     
@<SCITEGIC>MOL_PROPERTY
VConf Rank
SciTegic.value.IntegerValue
420

@<SCITEGIC>MOL_PROPERTY
Conf_Id
SciTegic.value.IntegerValue
91

@<SCITEGIC>MOL_PROPERTY
Delta U+W
SciTegic.value.DoubleValue
1.604

@<SCITEGIC>MOL_PROPERTY
U+W
SciTegic.value.DoubleValue
-50.141

@<SCITEGIC>MOL_PROPERTY
Grad RMS
SciTegic.value.DoubleValue
0.000000

@<SCITEGIC>MOL_PROPERTY
U
SciTegic.value.DoubleValue
10.644

@<SCITEGIC>MOL_PROPERTY
W
SciTegic.value.DoubleValue
-60.786

@<SCITEGIC>MOL_PROPERTY
W(PB)
SciTegic.value.DoubleValue
-62.965

@<SCITEGIC>MOL_PROPERTY
W(SA)
SciTegic.value.DoubleValue
2.179

@<SCITEGIC>MOL_PROPERTY
Valence
SciTegic.value.DoubleValue
11.230

@<SCITEGIC>MOL_PROPERTY
Coulomb
SciTegic.value.DoubleValue
-1.075

@<SCITEGIC>MOL_PROPERTY
VdW
SciTegic.value.DoubleValue
0.489

@<SCITEGIC>MOL_PROPERTY
VdW6
SciTegic.value.DoubleValue
-7.547

@<SCITEGIC>MOL_PROPERTY
VdW12
SciTegic.value.DoubleValue
8.036

@<SCITEGIC>MOL_PROPERTY
Bond
SciTegic.value.DoubleValue
0.159

@<SCITEGIC>MOL_PROPERTY
Angle
SciTegic.value.DoubleValue
3.006

@<SCITEGIC>MOL_PROPERTY
Pdih
SciTegic.value.DoubleValue
8.064

@<SCITEGIC>MOL_PROPERTY
Idih
SciTegic.value.DoubleValue
0.002

@<SCITEGIC>MOL_PROPERTY
Tether
SciTegic.value.DoubleValue
0.000

@<TRIPOS>MOLECULE
guest-s22_confgen4.mol2 : confsearch ligand conformer 421
          20          19           1
SMALL
USER_CHARGES
 
@<TRIPOS>ATOM
       1    C1      18.150921   18.716654   18.595507 C.2        1 MOL1        -0.2535
       2    H1      19.110543   18.936353   18.130266 H          1 MOL1         0.0845
       3    H2      17.255895   18.873658   17.995878 H          1 MOL1         0.0845
       4    C2      18.070269   18.274184   19.853031 C.2        1 MOL1        -0.1324
       5    H3      17.099635   18.060890   20.300280 H          1 MOL1         0.0833
       6    C3      19.267586   18.031868   20.744859 C.3        1 MOL1        -0.1813
       7    H4      20.189707   18.017414   20.147958 H          1 MOL1         0.0753
       8    H5      19.180841   17.043646   21.216067 H          1 MOL1         0.0753
       9    C4      19.378554   19.117515   21.835698 C.3        1 MOL1        -0.1855
      10    H6      19.460839   20.104195   21.359174 H          1 MOL1         0.0755
      11    H7      18.457946   19.128484   22.435298 H          1 MOL1         0.0755
      12    C5      20.595135   18.883518   22.757810 C.3        1 MOL1        -0.1855
      13    H8      21.516376   18.872906   22.158854 H          1 MOL1         0.0755
      14    H9      20.514051   17.896372   23.233722 H          1 MOL1         0.0755
      15    C6      20.706785   19.976032   23.854325 C.3        1 MOL1        -0.1958
      16    H10     20.794511   20.963487   23.386190 H          1 MOL1         0.0753
      17    H11     19.793150   19.987990   24.460160 H          1 MOL1         0.0753
      18    C7      21.887897   19.819494   24.813381 C.2        1 MOL1         0.6174
      19    O1      22.007568   20.655626   25.686707 O.co2      1 MOL1        -0.6695
      20    O2      22.654865   18.885656   24.677901 O.co2      1 MOL1        -0.6695
@<TRIPOS>BOND
    1     1     2    1
    2     1     3    1
    3     1     4    2
    4     4     5    1
    5     4     6    1
    6     6     7    1
    7     6     8    1
    8     6     9    1
    9     9    10    1
   10     9    11    1
   11     9    12    1
   12    12    13    1
   13    12    14    1
   14    12    15    1
   15    15    16    1
   16    15    17    1
   17    15    18    1
   18    18    19    1
   19    18    20    2
@<TRIPOS>SUBSTRUCTURE
       1 MOL1            1 RESIDUE      1      MOL     
@<SCITEGIC>MOL_PROPERTY
VConf Rank
SciTegic.value.IntegerValue
421

@<SCITEGIC>MOL_PROPERTY
Conf_Id
SciTegic.value.IntegerValue
33

@<SCITEGIC>MOL_PROPERTY
Delta U+W
SciTegic.value.DoubleValue
0.000

@<SCITEGIC>MOL_PROPERTY
U+W
SciTegic.value.DoubleValue
-51.745

@<SCITEGIC>MOL_PROPERTY
Grad RMS
SciTegic.value.DoubleValue
0.000000

@<SCITEGIC>MOL_PROPERTY
U
SciTegic.value.DoubleValue
7.593

@<SCITEGIC>MOL_PROPERTY
W
SciTegic.value.DoubleValue
-59.338

@<SCITEGIC>MOL_PROPERTY
W(PB)
SciTegic.value.DoubleValue
-61.574

@<SCITEGIC>MOL_PROPERTY
W(SA)
SciTegic.value.DoubleValue
2.236

@<SCITEGIC>MOL_PROPERTY
Valence
SciTegic.value.DoubleValue
9.570

@<SCITEGIC>MOL_PROPERTY
Coulomb
SciTegic.value.DoubleValue
-3.091

@<SCITEGIC>MOL_PROPERTY
VdW
SciTegic.value.DoubleValue
1.114

@<SCITEGIC>MOL_PROPERTY
VdW6
SciTegic.value.DoubleValue
-6.064

@<SCITEGIC>MOL_PROPERTY
VdW12
SciTegic.value.DoubleValue
7.178

@<SCITEGIC>MOL_PROPERTY
Bond
SciTegic.value.DoubleValue
0.117

@<SCITEGIC>MOL_PROPERTY
Angle
SciTegic.value.DoubleValue
2.692

@<SCITEGIC>MOL_PROPERTY
Pdih
SciTegic.value.DoubleValue
6.761

@<SCITEGIC>MOL_PROPERTY
Idih
SciTegic.value.DoubleValue
0.000

@<SCITEGIC>MOL_PROPERTY
Tether
SciTegic.value.DoubleValue
0.000

@<TRIPOS>MOLECULE
guest-s22_confgen4.mol2 : confsearch ligand conformer 422
          20          19           1
SMALL
USER_CHARGES
 
@<TRIPOS>ATOM
       1    C1      17.959495   15.861003   21.672025 C.2        1 MOL1        -0.2535
       2    H1      17.553418   16.164589   20.708430 H          1 MOL1         0.0845
       3    H2      17.551594   14.959420   22.125924 H          1 MOL1         0.0845
       4    C2      18.918677   16.565510   22.278089 C.2        1 MOL1        -0.1324
       5    H3      19.310935   16.244870   23.242948 H          1 MOL1         0.0833
       6    C3      19.533409   17.825074   21.709469 C.3        1 MOL1        -0.1813
       7    H4      19.274496   17.927612   20.646903 H          1 MOL1         0.0753
       8    H5      20.626653   17.748177   21.763840 H          1 MOL1         0.0753
       9    C4      19.050436   19.074635   22.479627 C.3        1 MOL1        -0.1855
      10    H6      17.951698   19.084456   22.483816 H          1 MOL1         0.0755
      11    H7      19.363867   19.005282   23.530314 H          1 MOL1         0.0755
      12    C5      19.553416   20.406255   21.873012 C.3        1 MOL1        -0.1855
      13    H8      19.075712   21.239272   22.407217 H          1 MOL1         0.0755
      14    H9      19.229335   20.483157   20.825897 H          1 MOL1         0.0755
      15    C6      21.092301   20.580636   21.952987 C.3        1 MOL1        -0.1958
      16    H10     21.433294   20.463399   22.988536 H          1 MOL1         0.0753
      17    H11     21.599749   19.815890   21.354319 H          1 MOL1         0.0753
      18    C7      21.557301   21.943861   21.453624 C.2        1 MOL1         0.6174
      19    O1      21.811060   22.065967   20.271505 O.co2      1 MOL1        -0.6695
      20    O2      21.634520   22.852985   22.256284 O.co2      1 MOL1        -0.6695
@<TRIPOS>BOND
    1     1     2    1
    2     1     3    1
    3     1     4    2
    4     4     5    1
    5     4     6    1
    6     6     7    1
    7     6     8    1
    8     6     9    1
    9     9    10    1
   10     9    11    1
   11     9    12    1
   12    12    13    1
   13    12    14    1
   14    12    15    1
   15    15    16    1
   16    15    17    1
   17    15    18    1
   18    18    19    1
   19    18    20    2
@<TRIPOS>SUBSTRUCTURE
       1 MOL1            1 RESIDUE      1      MOL     
@<SCITEGIC>MOL_PROPERTY
VConf Rank
SciTegic.value.IntegerValue
422

@<SCITEGIC>MOL_PROPERTY
Conf_Id
SciTegic.value.IntegerValue
37

@<SCITEGIC>MOL_PROPERTY
Delta U+W
SciTegic.value.DoubleValue
-0.384

@<SCITEGIC>MOL_PROPERTY
U+W
SciTegic.value.DoubleValue
-52.130

@<SCITEGIC>MOL_PROPERTY
Grad RMS
SciTegic.value.DoubleValue
0.000000

@<SCITEGIC>MOL_PROPERTY
U
SciTegic.value.DoubleValue
7.491

@<SCITEGIC>MOL_PROPERTY
W
SciTegic.value.DoubleValue
-59.621

@<SCITEGIC>MOL_PROPERTY
W(PB)
SciTegic.value.DoubleValue
-61.853

@<SCITEGIC>MOL_PROPERTY
W(SA)
SciTegic.value.DoubleValue
2.232

@<SCITEGIC>MOL_PROPERTY
Valence
SciTegic.value.DoubleValue
9.604

@<SCITEGIC>MOL_PROPERTY
Coulomb
SciTegic.value.DoubleValue
-2.799

@<SCITEGIC>MOL_PROPERTY
VdW
SciTegic.value.DoubleValue
0.686

@<SCITEGIC>MOL_PROPERTY
VdW6
SciTegic.value.DoubleValue
-6.435

@<SCITEGIC>MOL_PROPERTY
VdW12
SciTegic.value.DoubleValue
7.121

@<SCITEGIC>MOL_PROPERTY
Bond
SciTegic.value.DoubleValue
0.124

@<SCITEGIC>MOL_PROPERTY
Angle
SciTegic.value.DoubleValue
2.493

@<SCITEGIC>MOL_PROPERTY
Pdih
SciTegic.value.DoubleValue
6.986

@<SCITEGIC>MOL_PROPERTY
Idih
SciTegic.value.DoubleValue
0.001

@<SCITEGIC>MOL_PROPERTY
Tether
SciTegic.value.DoubleValue
0.000

@<TRIPOS>MOLECULE
guest-s22_confgen4.mol2 : confsearch ligand conformer 423
          20          19           1
SMALL
USER_CHARGES
 
@<TRIPOS>ATOM
       1    C1      17.331385   18.328041   24.072305 C.2        1 MOL1        -0.2535
       2    H1      16.521619   18.101998   24.763951 H          1 MOL1         0.0845
       3    H2      18.291757   18.591530   24.510264 H          1 MOL1         0.0845
       4    C2      17.134245   18.278572   22.749958 C.2        1 MOL1        -0.1324
       5    H3      16.148976   18.008097   22.370857 H          1 MOL1         0.0833
       6    C3      18.160724   18.566003   21.667028 C.3        1 MOL1        -0.1813
       7    H4      17.779633   19.370928   21.024378 H          1 MOL1         0.0753
       8    H5      18.245337   17.684052   21.018077 H          1 MOL1         0.0753
       9    C4      19.566394   18.952147   22.183719 C.3        1 MOL1        -0.1855
      10    H6      19.491588   19.846713   22.817156 H          1 MOL1         0.0755
      11    H7      19.962335   18.141545   22.810809 H          1 MOL1         0.0755
      12    C5      20.547162   19.227229   21.022924 C.3        1 MOL1        -0.1855
      13    H8      20.156601   20.037454   20.391573 H          1 MOL1         0.0755
      14    H9      20.626375   18.335774   20.385242 H          1 MOL1         0.0755
      15    C6      21.955489   19.614100   21.537737 C.3        1 MOL1        -0.1958
      16    H10     21.896004   20.511076   22.165827 H          1 MOL1         0.0753
      17    H11     22.365744   18.809363   22.159582 H          1 MOL1         0.0753
      18    C7      22.942708   19.890749   20.409530 C.2        1 MOL1         0.6174
      19    O1      23.021798   21.025473   19.981986 O.co2      1 MOL1        -0.6695
      20    O2      23.592186   18.960298   19.974689 O.co2      1 MOL1        -0.6695
@<TRIPOS>BOND
    1     1     2    1
    2     1     3    1
    3     1     4    2
    4     4     5    1
    5     4     6    1
    6     6     7    1
    7     6     8    1
    8     6     9    1
    9     9    10    1
   10     9    11    1
   11     9    12    1
   12    12    13    1
   13    12    14    1
   14    12    15    1
   15    15    16    1
   16    15    17    1
   17    15    18    1
   18    18    19    1
   19    18    20    2
@<TRIPOS>SUBSTRUCTURE
       1 MOL1            1 RESIDUE      1      MOL     
@<SCITEGIC>MOL_PROPERTY
VConf Rank
SciTegic.value.IntegerValue
423

@<SCITEGIC>MOL_PROPERTY
Conf_Id
SciTegic.value.IntegerValue
44

@<SCITEGIC>MOL_PROPERTY
Delta U+W
SciTegic.value.DoubleValue
-1.440

@<SCITEGIC>MOL_PROPERTY
U+W
SciTegic.value.DoubleValue
-53.185

@<SCITEGIC>MOL_PROPERTY
Grad RMS
SciTegic.value.DoubleValue
0.000000

@<SCITEGIC>MOL_PROPERTY
U
SciTegic.value.DoubleValue
6.572

@<SCITEGIC>MOL_PROPERTY
W
SciTegic.value.DoubleValue
-59.757

@<SCITEGIC>MOL_PROPERTY
W(PB)
SciTegic.value.DoubleValue
-62.007

@<SCITEGIC>MOL_PROPERTY
W(SA)
SciTegic.value.DoubleValue
2.249

@<SCITEGIC>MOL_PROPERTY
Valence
SciTegic.value.DoubleValue
7.989

@<SCITEGIC>MOL_PROPERTY
Coulomb
SciTegic.value.DoubleValue
-2.697

@<SCITEGIC>MOL_PROPERTY
VdW
SciTegic.value.DoubleValue
1.281

@<SCITEGIC>MOL_PROPERTY
VdW6
SciTegic.value.DoubleValue
-6.467

@<SCITEGIC>MOL_PROPERTY
VdW12
SciTegic.value.DoubleValue
7.748

@<SCITEGIC>MOL_PROPERTY
Bond
SciTegic.value.DoubleValue
0.136

@<SCITEGIC>MOL_PROPERTY
Angle
SciTegic.value.DoubleValue
2.854

@<SCITEGIC>MOL_PROPERTY
Pdih
SciTegic.value.DoubleValue
4.997

@<SCITEGIC>MOL_PROPERTY
Idih
SciTegic.value.DoubleValue
0.001

@<SCITEGIC>MOL_PROPERTY
Tether
SciTegic.value.DoubleValue
0.000

@<TRIPOS>MOLECULE
guest-s22_confgen4.mol2 : confsearch ligand conformer 424
          20          19           1
SMALL
USER_CHARGES
 
@<TRIPOS>ATOM
       1    C1      19.841566   15.614482   21.647332 C.2        1 MOL1        -0.2535
       2    H1      19.749546   15.873131   20.593666 H          1 MOL1         0.0845
       3    H2      19.658665   14.578227   21.926573 H          1 MOL1         0.0845
       4    C2      20.163362   16.529993   22.564940 C.2        1 MOL1        -0.1324
       5    H3      20.249771   16.250269   23.614666 H          1 MOL1         0.0833
       6    C3      20.432650   17.985270   22.252610 C.3        1 MOL1        -0.1813
       7    H4      20.590295   18.111943   21.173860 H          1 MOL1         0.0753
       8    H5      21.360377   18.300995   22.748162 H          1 MOL1         0.0753
       9    C4      19.263468   18.879496   22.723072 C.3        1 MOL1        -0.1855
      10    H6      18.346871   18.598685   22.186241 H          1 MOL1         0.0755
      11    H7      19.071762   18.683447   23.786979 H          1 MOL1         0.0755
      12    C5      19.531181   20.392636   22.541245 C.3        1 MOL1        -0.1855
      13    H8      20.442346   20.676846   23.085648 H          1 MOL1         0.0755
      14    H9      18.706751   20.953875   23.002576 H          1 MOL1         0.0755
      15    C6      19.658250   20.824982   21.057335 C.3        1 MOL1        -0.1958
      16    H10     20.529136   20.352004   20.589840 H          1 MOL1         0.0753
      17    H11     18.773024   20.507488   20.493447 H          1 MOL1         0.0753
      18    C7      19.807013   22.333327   20.893942 C.2        1 MOL1         0.6174
      19    O1      18.797988   22.999254   20.770879 O.co2      1 MOL1        -0.6695
      20    O2      20.926760   22.805000   20.914021 O.co2      1 MOL1        -0.6695
@<TRIPOS>BOND
    1     1     2    1
    2     1     3    1
    3     1     4    2
    4     4     5    1
    5     4     6    1
    6     6     7    1
    7     6     8    1
    8     6     9    1
    9     9    10    1
   10     9    11    1
   11     9    12    1
   12    12    13    1
   13    12    14    1
   14    12    15    1
   15    15    16    1
   16    15    17    1
   17    15    18    1
   18    18    19    1
   19    18    20    2
@<TRIPOS>SUBSTRUCTURE
       1 MOL1            1 RESIDUE      1      MOL     
@<SCITEGIC>MOL_PROPERTY
VConf Rank
SciTegic.value.IntegerValue
424

@<SCITEGIC>MOL_PROPERTY
Conf_Id
SciTegic.value.IntegerValue
38

@<SCITEGIC>MOL_PROPERTY
Delta U+W
SciTegic.value.DoubleValue
-0.381

@<SCITEGIC>MOL_PROPERTY
U+W
SciTegic.value.DoubleValue
-52.126

@<SCITEGIC>MOL_PROPERTY
Grad RMS
SciTegic.value.DoubleValue
0.000000

@<SCITEGIC>MOL_PROPERTY
U
SciTegic.value.DoubleValue
7.601

@<SCITEGIC>MOL_PROPERTY
W
SciTegic.value.DoubleValue
-59.727

@<SCITEGIC>MOL_PROPERTY
W(PB)
SciTegic.value.DoubleValue
-61.964

@<SCITEGIC>MOL_PROPERTY
W(SA)
SciTegic.value.DoubleValue
2.236

@<SCITEGIC>MOL_PROPERTY
Valence
SciTegic.value.DoubleValue
9.602

@<SCITEGIC>MOL_PROPERTY
Coulomb
SciTegic.value.DoubleValue
-2.686

@<SCITEGIC>MOL_PROPERTY
VdW
SciTegic.value.DoubleValue
0.685

@<SCITEGIC>MOL_PROPERTY
VdW6
SciTegic.value.DoubleValue
-6.453

@<SCITEGIC>MOL_PROPERTY
VdW12
SciTegic.value.DoubleValue
7.139

@<SCITEGIC>MOL_PROPERTY
Bond
SciTegic.value.DoubleValue
0.125

@<SCITEGIC>MOL_PROPERTY
Angle
SciTegic.value.DoubleValue
2.485

@<SCITEGIC>MOL_PROPERTY
Pdih
SciTegic.value.DoubleValue
6.991

@<SCITEGIC>MOL_PROPERTY
Idih
SciTegic.value.DoubleValue
0.001

@<SCITEGIC>MOL_PROPERTY
Tether
SciTegic.value.DoubleValue
0.000

@<TRIPOS>MOLECULE
guest-s22_confgen4.mol2 : confsearch ligand conformer 425
          20          19           1
SMALL
USER_CHARGES
 
@<TRIPOS>ATOM
       1    C1      20.933883   15.905442   22.430684 C.2        1 MOL1        -0.2535
       2    H1      20.157698   15.485502   21.792902 H          1 MOL1         0.0845
       3    H2      21.841767   15.320118   22.566371 H          1 MOL1         0.0845
       4    C2      20.783251   17.092757   23.023353 C.2        1 MOL1        -0.1324
       5    H3      21.572883   17.495664   23.657236 H          1 MOL1         0.0833
       6    C3      19.552599   17.960665   22.882358 C.3        1 MOL1        -0.1813
       7    H4      19.221713   18.292977   23.875439 H          1 MOL1         0.0753
       8    H5      18.725464   17.380432   22.451176 H          1 MOL1         0.0753
       9    C4      19.836617   19.189973   21.994018 C.3        1 MOL1        -0.1855
      10    H6      20.662628   19.769792   22.428698 H          1 MOL1         0.0755
      11    H7      20.171916   18.853635   21.003199 H          1 MOL1         0.0755
      12    C5      18.589310   20.089651   21.841912 C.3        1 MOL1        -0.1855
      13    H8      18.257537   20.436481   22.830512 H          1 MOL1         0.0755
      14    H9      17.764954   19.497823   21.421485 H          1 MOL1         0.0755
      15    C6      18.846181   21.315359   20.927278 C.3        1 MOL1        -0.1958
      16    H10     19.205078   20.986281   19.944548 H          1 MOL1         0.0753
      17    H11     17.904319   21.850495   20.758452 H          1 MOL1         0.0753
      18    C7      19.844228   22.317868   21.499768 C.2        1 MOL1         0.6174
      19    O1      20.964541   22.347741   21.029688 O.co2      1 MOL1        -0.6695
      20    O2      19.470144   23.050575   22.394363 O.co2      1 MOL1        -0.6695
@<TRIPOS>BOND
    1     1     2    1
    2     1     3    1
    3     1     4    2
    4     4     5    1
    5     4     6    1
    6     6     7    1
    7     6     8    1
    8     6     9    1
    9     9    10    1
   10     9    11    1
   11     9    12    1
   12    12    13    1
   13    12    14    1
   14    12    15    1
   15    15    16    1
   16    15    17    1
   17    15    18    1
   18    18    19    1
   19    18    20    2
@<TRIPOS>SUBSTRUCTURE
       1 MOL1            1 RESIDUE      1      MOL     
@<SCITEGIC>MOL_PROPERTY
VConf Rank
SciTegic.value.IntegerValue
425

@<SCITEGIC>MOL_PROPERTY
Conf_Id
SciTegic.value.IntegerValue
58

@<SCITEGIC>MOL_PROPERTY
Delta U+W
SciTegic.value.DoubleValue
0.019

@<SCITEGIC>MOL_PROPERTY
U+W
SciTegic.value.DoubleValue
-51.727

@<SCITEGIC>MOL_PROPERTY
Grad RMS
SciTegic.value.DoubleValue
0.000000

@<SCITEGIC>MOL_PROPERTY
U
SciTegic.value.DoubleValue
8.963

@<SCITEGIC>MOL_PROPERTY
W
SciTegic.value.DoubleValue
-60.690

@<SCITEGIC>MOL_PROPERTY
W(PB)
SciTegic.value.DoubleValue
-62.934

@<SCITEGIC>MOL_PROPERTY
W(SA)
SciTegic.value.DoubleValue
2.244

@<SCITEGIC>MOL_PROPERTY
Valence
SciTegic.value.DoubleValue
9.327

@<SCITEGIC>MOL_PROPERTY
Coulomb
SciTegic.value.DoubleValue
-0.780

@<SCITEGIC>MOL_PROPERTY
VdW
SciTegic.value.DoubleValue
0.417

@<SCITEGIC>MOL_PROPERTY
VdW6
SciTegic.value.DoubleValue
-6.635

@<SCITEGIC>MOL_PROPERTY
VdW12
SciTegic.value.DoubleValue
7.052

@<SCITEGIC>MOL_PROPERTY
Bond
SciTegic.value.DoubleValue
0.105

@<SCITEGIC>MOL_PROPERTY
Angle
SciTegic.value.DoubleValue
2.399

@<SCITEGIC>MOL_PROPERTY
Pdih
SciTegic.value.DoubleValue
6.822

@<SCITEGIC>MOL_PROPERTY
Idih
SciTegic.value.DoubleValue
0.000

@<SCITEGIC>MOL_PROPERTY
Tether
SciTegic.value.DoubleValue
0.000

@<TRIPOS>MOLECULE
guest-s22_confgen4.mol2 : confsearch ligand conformer 426
          20          19           1
SMALL
USER_CHARGES
 
@<TRIPOS>ATOM
       1    C1      21.762435   22.172569   21.898146 C.2        1 MOL1        -0.2535
       2    H1      22.519914   21.690576   21.282122 H          1 MOL1         0.0845
       3    H2      22.062995   23.052208   22.464860 H          1 MOL1         0.0845
       4    C2      20.513063   21.704831   21.961046 C.2        1 MOL1        -0.1324
       5    H3      19.770087   22.201596   22.584642 H          1 MOL1         0.0833
       6    C3      20.023049   20.491032   21.203273 C.3        1 MOL1        -0.1813
       7    H4      20.743393   20.214577   20.421341 H          1 MOL1         0.0753
       8    H5      19.080368   20.731865   20.693884 H          1 MOL1         0.0753
       9    C4      19.807024   19.292469   22.150792 C.3        1 MOL1        -0.1855
      10    H6      20.750849   19.057613   22.661976 H          1 MOL1         0.0755
      11    H7      19.084495   19.570811   22.930478 H          1 MOL1         0.0755
      12    C5      19.303045   18.043825   21.392358 C.3        1 MOL1        -0.1855
      13    H8      20.023576   17.782718   20.605439 H          1 MOL1         0.0755
      14    H9      18.353457   18.272229   20.888563 H          1 MOL1         0.0755
      15    C6      19.108804   16.818821   22.323233 C.3        1 MOL1        -0.1958
      16    H10     18.867122   15.935321   21.720742 H          1 MOL1         0.0753
      17    H11     20.041625   16.595209   22.854929 H          1 MOL1         0.0753
      18    C7      17.992346   16.990649   23.349324 C.2        1 MOL1         0.6174
      19    O1      16.843022   16.894832   22.965959 O.co2      1 MOL1        -0.6695
      20    O2      18.300418   17.204448   24.505331 O.co2      1 MOL1        -0.6695
@<TRIPOS>BOND
    1     1     2    1
    2     1     3    1
    3     1     4    2
    4     4     5    1
    5     4     6    1
    6     6     7    1
    7     6     8    1
    8     6     9    1
    9     9    10    1
   10     9    11    1
   11     9    12    1
   12    12    13    1
   13    12    14    1
   14    12    15    1
   15    15    16    1
   16    15    17    1
   17    15    18    1
   18    18    19    1
   19    18    20    2
@<TRIPOS>SUBSTRUCTURE
       1 MOL1            1 RESIDUE      1      MOL     
@<SCITEGIC>MOL_PROPERTY
VConf Rank
SciTegic.value.IntegerValue
426

@<SCITEGIC>MOL_PROPERTY
Conf_Id
SciTegic.value.IntegerValue
54

@<SCITEGIC>MOL_PROPERTY
Delta U+W
SciTegic.value.DoubleValue
-0.048

@<SCITEGIC>MOL_PROPERTY
U+W
SciTegic.value.DoubleValue
-51.793

@<SCITEGIC>MOL_PROPERTY
Grad RMS
SciTegic.value.DoubleValue
0.000000

@<SCITEGIC>MOL_PROPERTY
U
SciTegic.value.DoubleValue
8.964

@<SCITEGIC>MOL_PROPERTY
W
SciTegic.value.DoubleValue
-60.756

@<SCITEGIC>MOL_PROPERTY
W(PB)
SciTegic.value.DoubleValue
-63.007

@<SCITEGIC>MOL_PROPERTY
W(SA)
SciTegic.value.DoubleValue
2.251

@<SCITEGIC>MOL_PROPERTY
Valence
SciTegic.value.DoubleValue
9.327

@<SCITEGIC>MOL_PROPERTY
Coulomb
SciTegic.value.DoubleValue
-0.780

@<SCITEGIC>MOL_PROPERTY
VdW
SciTegic.value.DoubleValue
0.417

@<SCITEGIC>MOL_PROPERTY
VdW6
SciTegic.value.DoubleValue
-6.635

@<SCITEGIC>MOL_PROPERTY
VdW12
SciTegic.value.DoubleValue
7.052

@<SCITEGIC>MOL_PROPERTY
Bond
SciTegic.value.DoubleValue
0.105

@<SCITEGIC>MOL_PROPERTY
Angle
SciTegic.value.DoubleValue
2.399

@<SCITEGIC>MOL_PROPERTY
Pdih
SciTegic.value.DoubleValue
6.822

@<SCITEGIC>MOL_PROPERTY
Idih
SciTegic.value.DoubleValue
0.000

@<SCITEGIC>MOL_PROPERTY
Tether
SciTegic.value.DoubleValue
0.000

@<TRIPOS>MOLECULE
guest-s22_confgen4.mol2 : confsearch ligand conformer 427
          20          19           1
SMALL
USER_CHARGES
 
@<TRIPOS>ATOM
       1    C1      17.885760   21.860520   21.604430 C.2        1 MOL1        -0.2535
       2    H1      18.064134   22.824931   21.131903 H          1 MOL1         0.0845
       3    H2      16.890592   21.430085   21.505054 H          1 MOL1         0.0845
       4    C2      18.853562   21.231671   22.276427 C.2        1 MOL1        -0.1324
       5    H3      19.841670   21.681944   22.366708 H          1 MOL1         0.0833
       6    C3      18.676841   19.894429   22.963741 C.3        1 MOL1        -0.1813
       7    H4      17.608439   19.704162   23.133584 H          1 MOL1         0.0753
       8    H5      19.145986   19.918702   23.956393 H          1 MOL1         0.0753
       9    C4      19.262204   18.726045   22.138860 C.3        1 MOL1        -0.1855
      10    H6      18.980718   17.779953   22.621208 H          1 MOL1         0.0755
      11    H7      18.802621   18.717054   21.140943 H          1 MOL1         0.0755
      12    C5      20.802224   18.795333   22.006042 C.3        1 MOL1        -0.1855
      13    H8      21.261459   18.819095   23.004028 H          1 MOL1         0.0755
      14    H9      21.085282   19.730471   21.505152 H          1 MOL1         0.0755
      15    C6      21.384694   17.604785   21.200744 C.3        1 MOL1        -0.1958
      16    H10     20.910876   17.547669   20.213290 H          1 MOL1         0.0753
      17    H11     22.455463   17.766984   21.030155 H          1 MOL1         0.0753
      18    C7      21.233041   16.253345   21.893165 C.2        1 MOL1         0.6174
      19    O1      20.384175   15.487219   21.481426 O.co2      1 MOL1        -0.6695
      20    O2      21.976458   15.998566   22.820276 O.co2      1 MOL1        -0.6695
@<TRIPOS>BOND
    1     1     2    1
    2     1     3    1
    3     1     4    2
    4     4     5    1
    5     4     6    1
    6     6     7    1
    7     6     8    1
    8     6     9    1
    9     9    10    1
   10     9    11    1
   11     9    12    1
   12    12    13    1
   13    12    14    1
   14    12    15    1
   15    15    16    1
   16    15    17    1
   17    15    18    1
   18    18    19    1
   19    18    20    2
@<TRIPOS>SUBSTRUCTURE
       1 MOL1            1 RESIDUE      1      MOL     
@<SCITEGIC>MOL_PROPERTY
VConf Rank
SciTegic.value.IntegerValue
427

@<SCITEGIC>MOL_PROPERTY
Conf_Id
SciTegic.value.IntegerValue
27

@<SCITEGIC>MOL_PROPERTY
Delta U+W
SciTegic.value.DoubleValue
0.478

@<SCITEGIC>MOL_PROPERTY
U+W
SciTegic.value.DoubleValue
-51.267

@<SCITEGIC>MOL_PROPERTY
Grad RMS
SciTegic.value.DoubleValue
0.000000

@<SCITEGIC>MOL_PROPERTY
U
SciTegic.value.DoubleValue
9.192

@<SCITEGIC>MOL_PROPERTY
W
SciTegic.value.DoubleValue
-60.459

@<SCITEGIC>MOL_PROPERTY
W(PB)
SciTegic.value.DoubleValue
-62.649

@<SCITEGIC>MOL_PROPERTY
W(SA)
SciTegic.value.DoubleValue
2.190

@<SCITEGIC>MOL_PROPERTY
Valence
SciTegic.value.DoubleValue
9.572

@<SCITEGIC>MOL_PROPERTY
Coulomb
SciTegic.value.DoubleValue
-0.884

@<SCITEGIC>MOL_PROPERTY
VdW
SciTegic.value.DoubleValue
0.504

@<SCITEGIC>MOL_PROPERTY
VdW6
SciTegic.value.DoubleValue
-7.168

@<SCITEGIC>MOL_PROPERTY
VdW12
SciTegic.value.DoubleValue
7.672

@<SCITEGIC>MOL_PROPERTY
Bond
SciTegic.value.DoubleValue
0.127

@<SCITEGIC>MOL_PROPERTY
Angle
SciTegic.value.DoubleValue
2.504

@<SCITEGIC>MOL_PROPERTY
Pdih
SciTegic.value.DoubleValue
6.941

@<SCITEGIC>MOL_PROPERTY
Idih
SciTegic.value.DoubleValue
0.001

@<SCITEGIC>MOL_PROPERTY
Tether
SciTegic.value.DoubleValue
0.000

@<TRIPOS>MOLECULE
guest-s22_confgen4.mol2 : confsearch ligand conformer 428
          20          19           1
SMALL
USER_CHARGES
 
@<TRIPOS>ATOM
       1    C1      20.214919   19.031389   25.231078 C.2        1 MOL1        -0.2535
       2    H1      20.702897   19.988621   25.407404 H          1 MOL1         0.0845
       3    H2      20.436000   18.221083   25.923700 H          1 MOL1         0.0845
       4    C2      19.379566   18.853120   24.204392 C.2        1 MOL1        -0.1324
       5    H3      18.899363   17.887593   24.048010 H          1 MOL1         0.0833
       6    C3      19.020538   19.933433   23.206484 C.3        1 MOL1        -0.1813
       7    H4      19.248197   20.920441   23.631385 H          1 MOL1         0.0753
       8    H5      17.938934   19.922815   23.016539 H          1 MOL1         0.0753
       9    C4      19.785903   19.780041   21.872787 C.3        1 MOL1        -0.1855
      10    H6      19.584685   20.659852   21.246430 H          1 MOL1         0.0755
      11    H7      20.866664   19.775527   22.070883 H          1 MOL1         0.0755
      12    C5      19.390289   18.503214   21.096100 C.3        1 MOL1        -0.1855
      13    H8      18.305468   18.496715   20.921516 H          1 MOL1         0.0755
      14    H9      19.622662   17.612471   21.695485 H          1 MOL1         0.0755
      15    C6      20.127473   18.404490   19.737839 C.3        1 MOL1        -0.1958
      16    H10     19.895546   19.277595   19.116201 H          1 MOL1         0.0753
      17    H11     21.212623   18.397732   19.895998 H          1 MOL1         0.0753
      18    C7      19.755347   17.152086   18.952313 C.2        1 MOL1         0.6174
      19    O1      20.414405   16.146652   19.129526 O.co2      1 MOL1        -0.6695
      20    O2      18.805188   17.210115   18.196978 O.co2      1 MOL1        -0.6695
@<TRIPOS>BOND
    1     1     2    1
    2     1     3    1
    3     1     4    2
    4     4     5    1
    5     4     6    1
    6     6     7    1
    7     6     8    1
    8     6     9    1
    9     9    10    1
   10     9    11    1
   11     9    12    1
   12    12    13    1
   13    12    14    1
   14    12    15    1
   15    15    16    1
   16    15    17    1
   17    15    18    1
   18    18    19    1
   19    18    20    2
@<TRIPOS>SUBSTRUCTURE
       1 MOL1            1 RESIDUE      1      MOL     
@<SCITEGIC>MOL_PROPERTY
VConf Rank
SciTegic.value.IntegerValue
428

@<SCITEGIC>MOL_PROPERTY
Conf_Id
SciTegic.value.IntegerValue
41

@<SCITEGIC>MOL_PROPERTY
Delta U+W
SciTegic.value.DoubleValue
-0.634

@<SCITEGIC>MOL_PROPERTY
U+W
SciTegic.value.DoubleValue
-52.379

@<SCITEGIC>MOL_PROPERTY
Grad RMS
SciTegic.value.DoubleValue
0.000000

@<SCITEGIC>MOL_PROPERTY
U
SciTegic.value.DoubleValue
7.828

@<SCITEGIC>MOL_PROPERTY
W
SciTegic.value.DoubleValue
-60.207

@<SCITEGIC>MOL_PROPERTY
W(PB)
SciTegic.value.DoubleValue
-62.449

@<SCITEGIC>MOL_PROPERTY
W(SA)
SciTegic.value.DoubleValue
2.242

@<SCITEGIC>MOL_PROPERTY
Valence
SciTegic.value.DoubleValue
9.300

@<SCITEGIC>MOL_PROPERTY
Coulomb
SciTegic.value.DoubleValue
-2.080

@<SCITEGIC>MOL_PROPERTY
VdW
SciTegic.value.DoubleValue
0.608

@<SCITEGIC>MOL_PROPERTY
VdW6
SciTegic.value.DoubleValue
-6.341

@<SCITEGIC>MOL_PROPERTY
VdW12
SciTegic.value.DoubleValue
6.949

@<SCITEGIC>MOL_PROPERTY
Bond
SciTegic.value.DoubleValue
0.103

@<SCITEGIC>MOL_PROPERTY
Angle
SciTegic.value.DoubleValue
2.334

@<SCITEGIC>MOL_PROPERTY
Pdih
SciTegic.value.DoubleValue
6.862

@<SCITEGIC>MOL_PROPERTY
Idih
SciTegic.value.DoubleValue
0.001

@<SCITEGIC>MOL_PROPERTY
Tether
SciTegic.value.DoubleValue
0.000

@<TRIPOS>MOLECULE
guest-s22_confgen4.mol2 : confsearch ligand conformer 429
          20          19           1
SMALL
USER_CHARGES
 
@<TRIPOS>ATOM
       1    C1      22.917952   18.223795   20.415037 C.2        1 MOL1        -0.2535
       2    H1      23.390095   17.706758   19.581374 H          1 MOL1         0.0845
       3    H2      23.460449   19.056231   20.860347 H          1 MOL1         0.0845
       4    C2      21.718972   17.849769   20.869204 C.2        1 MOL1        -0.1324
       5    H3      21.191859   17.014176   20.409205 H          1 MOL1         0.0833
       6    C3      21.002248   18.517907   22.021375 C.3        1 MOL1        -0.1813
       7    H4      21.696362   19.160338   22.579820 H          1 MOL1         0.0753
       8    H5      20.647915   17.748174   22.719167 H          1 MOL1         0.0753
       9    C4      19.809378   19.361311   21.518475 C.3        1 MOL1        -0.1855
      10    H6      20.167550   20.057918   20.748013 H          1 MOL1         0.0755
      11    H7      19.078085   18.705940   21.025567 H          1 MOL1         0.0755
      12    C5      19.113896   20.177443   22.635803 C.3        1 MOL1        -0.1855
      13    H8      18.332898   20.803458   22.182443 H          1 MOL1         0.0755
      14    H9      19.840146   20.868728   23.084238 H          1 MOL1         0.0755
      15    C6      18.472715   19.314783   23.757019 C.3        1 MOL1        -0.1958
      16    H10     19.237560   18.731323   24.281988 H          1 MOL1         0.0753
      17    H11     18.017218   19.973316   24.505725 H          1 MOL1         0.0753
      18    C7      17.384213   18.364433   23.266372 C.2        1 MOL1         0.6174
      19    O1      16.318063   18.840733   22.928930 O.co2      1 MOL1        -0.6695
      20    O2      17.623627   17.173045   23.251258 O.co2      1 MOL1        -0.6695
@<TRIPOS>BOND
    1     1     2    1
    2     1     3    1
    3     1     4    2
    4     4     5    1
    5     4     6    1
    6     6     7    1
    7     6     8    1
    8     6     9    1
    9     9    10    1
   10     9    11    1
   11     9    12    1
   12    12    13    1
   13    12    14    1
   14    12    15    1
   15    15    16    1
   16    15    17    1
   17    15    18    1
   18    18    19    1
   19    18    20    2
@<TRIPOS>SUBSTRUCTURE
       1 MOL1            1 RESIDUE      1      MOL     
@<SCITEGIC>MOL_PROPERTY
VConf Rank
SciTegic.value.IntegerValue
429

@<SCITEGIC>MOL_PROPERTY
Conf_Id
SciTegic.value.IntegerValue
84

@<SCITEGIC>MOL_PROPERTY
Delta U+W
SciTegic.value.DoubleValue
0.942

@<SCITEGIC>MOL_PROPERTY
U+W
SciTegic.value.DoubleValue
-50.803

@<SCITEGIC>MOL_PROPERTY
Grad RMS
SciTegic.value.DoubleValue
0.000000

@<SCITEGIC>MOL_PROPERTY
U
SciTegic.value.DoubleValue
10.196

@<SCITEGIC>MOL_PROPERTY
W
SciTegic.value.DoubleValue
-60.999

@<SCITEGIC>MOL_PROPERTY
W(PB)
SciTegic.value.DoubleValue
-63.182

@<SCITEGIC>MOL_PROPERTY
W(SA)
SciTegic.value.DoubleValue
2.182

@<SCITEGIC>MOL_PROPERTY
Valence
SciTegic.value.DoubleValue
9.837

@<SCITEGIC>MOL_PROPERTY
Coulomb
SciTegic.value.DoubleValue
0.032

@<SCITEGIC>MOL_PROPERTY
VdW
SciTegic.value.DoubleValue
0.328

@<SCITEGIC>MOL_PROPERTY
VdW6
SciTegic.value.DoubleValue
-7.642

@<SCITEGIC>MOL_PROPERTY
VdW12
SciTegic.value.DoubleValue
7.969

@<SCITEGIC>MOL_PROPERTY
Bond
SciTegic.value.DoubleValue
0.151

@<SCITEGIC>MOL_PROPERTY
Angle
SciTegic.value.DoubleValue
2.748

@<SCITEGIC>MOL_PROPERTY
Pdih
SciTegic.value.DoubleValue
6.937

@<SCITEGIC>MOL_PROPERTY
Idih
SciTegic.value.DoubleValue
0.001

@<SCITEGIC>MOL_PROPERTY
Tether
SciTegic.value.DoubleValue
0.000

@<TRIPOS>MOLECULE
guest-s22_confgen4.mol2 : confsearch ligand conformer 430
          20          19           1
SMALL
USER_CHARGES
 
@<TRIPOS>ATOM
       1    C1      21.537077   19.467947   19.175480 C.2        1 MOL1        -0.2535
       2    H1      22.048735   18.918044   18.387397 H          1 MOL1         0.0845
       3    H2      20.900810   20.298795   18.874751 H          1 MOL1         0.0845
       4    C2      21.684881   19.131612   20.459496 C.2        1 MOL1        -0.1324
       5    H3      22.325901   18.295878   20.739279 H          1 MOL1         0.0833
       6    C3      21.008177   19.848077   21.606847 C.3        1 MOL1        -0.1813
       7    H4      20.602023   20.810723   21.267521 H          1 MOL1         0.0753
       8    H5      21.748202   20.074235   22.386139 H          1 MOL1         0.0753
       9    C4      19.871116   18.993282   22.204743 C.3        1 MOL1        -0.1855
      10    H6      19.137981   18.765512   21.418415 H          1 MOL1         0.0755
      11    H7      20.277308   18.031939   22.548077 H          1 MOL1         0.0755
      12    C5      19.171149   19.710219   23.381340 C.3        1 MOL1        -0.1855
      13    H8      18.751298   20.666030   23.038030 H          1 MOL1         0.0755
      14    H9      19.914843   19.950667   24.153140 H          1 MOL1         0.0755
      15    C6      18.045418   18.853686   24.016923 C.3        1 MOL1        -0.1958
      16    H10     18.443600   17.884365   24.340530 H          1 MOL1         0.0753
      17    H11     17.664836   19.356051   24.914008 H          1 MOL1         0.0753
      18    C7      16.856249   18.607828   23.092627 C.2        1 MOL1         0.6174
      19    O1      16.735066   17.507834   22.590331 O.co2      1 MOL1        -0.6695
      20    O2      16.074904   19.520688   22.910164 O.co2      1 MOL1        -0.6695
@<TRIPOS>BOND
    1     1     2    1
    2     1     3    1
    3     1     4    2
    4     4     5    1
    5     4     6    1
    6     6     7    1
    7     6     8    1
    8     6     9    1
    9     9    10    1
   10     9    11    1
   11     9    12    1
   12    12    13    1
   13    12    14    1
   14    12    15    1
   15    15    16    1
   16    15    17    1
   17    15    18    1
   18    18    19    1
   19    18    20    2
@<TRIPOS>SUBSTRUCTURE
       1 MOL1            1 RESIDUE      1      MOL     
@<SCITEGIC>MOL_PROPERTY
VConf Rank
SciTegic.value.IntegerValue
430

@<SCITEGIC>MOL_PROPERTY
Conf_Id
SciTegic.value.IntegerValue
81

@<SCITEGIC>MOL_PROPERTY
Delta U+W
SciTegic.value.DoubleValue
-0.051

@<SCITEGIC>MOL_PROPERTY
U+W
SciTegic.value.DoubleValue
-51.796

@<SCITEGIC>MOL_PROPERTY
Grad RMS
SciTegic.value.DoubleValue
0.000000

@<SCITEGIC>MOL_PROPERTY
U
SciTegic.value.DoubleValue
9.412

@<SCITEGIC>MOL_PROPERTY
W
SciTegic.value.DoubleValue
-61.209

@<SCITEGIC>MOL_PROPERTY
W(PB)
SciTegic.value.DoubleValue
-63.452

@<SCITEGIC>MOL_PROPERTY
W(SA)
SciTegic.value.DoubleValue
2.243

@<SCITEGIC>MOL_PROPERTY
Valence
SciTegic.value.DoubleValue
9.329

@<SCITEGIC>MOL_PROPERTY
Coulomb
SciTegic.value.DoubleValue
-0.323

@<SCITEGIC>MOL_PROPERTY
VdW
SciTegic.value.DoubleValue
0.406

@<SCITEGIC>MOL_PROPERTY
VdW6
SciTegic.value.DoubleValue
-6.640

@<SCITEGIC>MOL_PROPERTY
VdW12
SciTegic.value.DoubleValue
7.046

@<SCITEGIC>MOL_PROPERTY
Bond
SciTegic.value.DoubleValue
0.105

@<SCITEGIC>MOL_PROPERTY
Angle
SciTegic.value.DoubleValue
2.401

@<SCITEGIC>MOL_PROPERTY
Pdih
SciTegic.value.DoubleValue
6.823

@<SCITEGIC>MOL_PROPERTY
Idih
SciTegic.value.DoubleValue
0.000

@<SCITEGIC>MOL_PROPERTY
Tether
SciTegic.value.DoubleValue
0.000

@<TRIPOS>MOLECULE
guest-s22_confgen4.mol2 : confsearch ligand conformer 431
          20          19           1
SMALL
USER_CHARGES
 
@<TRIPOS>ATOM
       1    C1      22.628607   20.038761   22.875379 C.2        1 MOL1        -0.2535
       2    H1      23.335765   19.410646   22.336066 H          1 MOL1         0.0845
       3    H2      23.012216   20.952453   23.326106 H          1 MOL1         0.0845
       4    C2      21.339316   19.706315   22.979725 C.2        1 MOL1        -0.1324
       5    H3      20.648462   20.347808   23.526013 H          1 MOL1         0.0833
       6    C3      20.736115   18.451656   22.385163 C.3        1 MOL1        -0.1813
       7    H4      20.075208   17.968449   23.116358 H          1 MOL1         0.0753
       8    H5      21.530549   17.723535   22.173197 H          1 MOL1         0.0753
       9    C4      19.963799   18.731211   21.073643 C.3        1 MOL1        -0.1855
      10    H6      20.664714   19.133357   20.329445 H          1 MOL1         0.0755
      11    H7      19.599803   17.778596   20.664983 H          1 MOL1         0.0755
      12    C5      18.772739   19.713153   21.219445 C.3        1 MOL1        -0.1855
      13    H8      18.315485   19.860687   20.231349 H          1 MOL1         0.0755
      14    H9      19.145669   20.697763   21.531152 H          1 MOL1         0.0755
      15    C6      17.673072   19.246807   22.212140 C.3        1 MOL1        -0.1958
      16    H10     18.079168   19.162217   23.226522 H          1 MOL1         0.0753
      17    H11     16.880675   20.002893   22.257399 H          1 MOL1         0.0753
      18    C7      17.016052   17.921809   21.836307 C.2        1 MOL1         0.6174
      19    O1      17.268080   16.942014   22.509783 O.co2      1 MOL1        -0.6695
      20    O2      16.254735   17.908910   20.888842 O.co2      1 MOL1        -0.6695
@<TRIPOS>BOND
    1     1     2    1
    2     1     3    1
    3     1     4    2
    4     4     5    1
    5     4     6    1
    6     6     7    1
    7     6     8    1
    8     6     9    1
    9     9    10    1
   10     9    11    1
   11     9    12    1
   12    12    13    1
   13    12    14    1
   14    12    15    1
   15    15    16    1
   16    15    17    1
   17    15    18    1
   18    18    19    1
   19    18    20    2
@<TRIPOS>SUBSTRUCTURE
       1 MOL1            1 RESIDUE      1      MOL     
@<SCITEGIC>MOL_PROPERTY
VConf Rank
SciTegic.value.IntegerValue
431

@<SCITEGIC>MOL_PROPERTY
Conf_Id
SciTegic.value.IntegerValue
86

@<SCITEGIC>MOL_PROPERTY
Delta U+W
SciTegic.value.DoubleValue
1.248

@<SCITEGIC>MOL_PROPERTY
U+W
SciTegic.value.DoubleValue
-50.498

@<SCITEGIC>MOL_PROPERTY
Grad RMS
SciTegic.value.DoubleValue
0.000000

@<SCITEGIC>MOL_PROPERTY
U
SciTegic.value.DoubleValue
10.404

@<SCITEGIC>MOL_PROPERTY
W
SciTegic.value.DoubleValue
-60.901

@<SCITEGIC>MOL_PROPERTY
W(PB)
SciTegic.value.DoubleValue
-63.061

@<SCITEGIC>MOL_PROPERTY
W(SA)
SciTegic.value.DoubleValue
2.159

@<SCITEGIC>MOL_PROPERTY
Valence
SciTegic.value.DoubleValue
10.021

@<SCITEGIC>MOL_PROPERTY
Coulomb
SciTegic.value.DoubleValue
0.094

@<SCITEGIC>MOL_PROPERTY
VdW
SciTegic.value.DoubleValue
0.289

@<SCITEGIC>MOL_PROPERTY
VdW6
SciTegic.value.DoubleValue
-8.409

@<SCITEGIC>MOL_PROPERTY
VdW12
SciTegic.value.DoubleValue
8.698

@<SCITEGIC>MOL_PROPERTY
Bond
SciTegic.value.DoubleValue
0.179

@<SCITEGIC>MOL_PROPERTY
Angle
SciTegic.value.DoubleValue
2.939

@<SCITEGIC>MOL_PROPERTY
Pdih
SciTegic.value.DoubleValue
6.902

@<SCITEGIC>MOL_PROPERTY
Idih
SciTegic.value.DoubleValue
0.001

@<SCITEGIC>MOL_PROPERTY
Tether
SciTegic.value.DoubleValue
0.000

@<TRIPOS>MOLECULE
guest-s22_confgen4.mol2 : confsearch ligand conformer 432
          20          19           1
SMALL
USER_CHARGES
 
@<TRIPOS>ATOM
       1    C1      20.591593   16.262584   23.168494 C.2        1 MOL1        -0.2535
       2    H1      20.660169   15.769277   24.136507 H          1 MOL1         0.0845
       3    H2      19.943268   15.809922   22.420033 H          1 MOL1         0.0845
       4    C2      21.275073   17.381567   22.914021 C.2        1 MOL1        -0.1324
       5    H3      21.916893   17.819768   23.677851 H          1 MOL1         0.0833
       6    C3      21.230088   18.122995   21.594812 C.3        1 MOL1        -0.1813
       7    H4      20.731289   17.516379   20.826777 H          1 MOL1         0.0753
       8    H5      22.256487   18.287630   21.240945 H          1 MOL1         0.0753
       9    C4      20.519207   19.489917   21.714119 C.3        1 MOL1        -0.1855
      10    H6      21.015052   20.095774   22.484831 H          1 MOL1         0.0755
      11    H7      20.637028   20.032383   20.766037 H          1 MOL1         0.0755
      12    C5      19.013713   19.353079   22.043304 C.3        1 MOL1        -0.1855
      13    H8      18.894638   18.816946   22.994330 H          1 MOL1         0.0755
      14    H9      18.518888   18.743884   21.274291 H          1 MOL1         0.0755
      15    C6      18.299477   20.725409   22.151035 C.3        1 MOL1        -0.1958
      16    H10     17.272288   20.576812   22.504225 H          1 MOL1         0.0753
      17    H11     18.802405   21.356792   22.893462 H          1 MOL1         0.0753
      18    C7      18.222462   21.490160   20.832722 C.2        1 MOL1         0.6174
      19    O1      17.406278   21.128601   20.007951 O.co2      1 MOL1        -0.6695
      20    O2      18.971413   22.433279   20.669366 O.co2      1 MOL1        -0.6695
@<TRIPOS>BOND
    1     1     2    1
    2     1     3    1
    3     1     4    2
    4     4     5    1
    5     4     6    1
    6     6     7    1
    7     6     8    1
    8     6     9    1
    9     9    10    1
   10     9    11    1
   11     9    12    1
   12    12    13    1
   13    12    14    1
   14    12    15    1
   15    15    16    1
   16    15    17    1
   17    15    18    1
   18    18    19    1
   19    18    20    2
@<TRIPOS>SUBSTRUCTURE
       1 MOL1            1 RESIDUE      1      MOL     
@<SCITEGIC>MOL_PROPERTY
VConf Rank
SciTegic.value.IntegerValue
432

@<SCITEGIC>MOL_PROPERTY
Conf_Id
SciTegic.value.IntegerValue
28

@<SCITEGIC>MOL_PROPERTY
Delta U+W
SciTegic.value.DoubleValue
0.446

@<SCITEGIC>MOL_PROPERTY
U+W
SciTegic.value.DoubleValue
-51.299

@<SCITEGIC>MOL_PROPERTY
Grad RMS
SciTegic.value.DoubleValue
0.000000

@<SCITEGIC>MOL_PROPERTY
U
SciTegic.value.DoubleValue
9.295

@<SCITEGIC>MOL_PROPERTY
W
SciTegic.value.DoubleValue
-60.594

@<SCITEGIC>MOL_PROPERTY
W(PB)
SciTegic.value.DoubleValue
-62.806

@<SCITEGIC>MOL_PROPERTY
W(SA)
SciTegic.value.DoubleValue
2.212

@<SCITEGIC>MOL_PROPERTY
Valence
SciTegic.value.DoubleValue
9.495

@<SCITEGIC>MOL_PROPERTY
Coulomb
SciTegic.value.DoubleValue
-0.610

@<SCITEGIC>MOL_PROPERTY
VdW
SciTegic.value.DoubleValue
0.409

@<SCITEGIC>MOL_PROPERTY
VdW6
SciTegic.value.DoubleValue
-7.332

@<SCITEGIC>MOL_PROPERTY
VdW12
SciTegic.value.DoubleValue
7.741

@<SCITEGIC>MOL_PROPERTY
Bond
SciTegic.value.DoubleValue
0.126

@<SCITEGIC>MOL_PROPERTY
Angle
SciTegic.value.DoubleValue
2.497

@<SCITEGIC>MOL_PROPERTY
Pdih
SciTegic.value.DoubleValue
6.872

@<SCITEGIC>MOL_PROPERTY
Idih
SciTegic.value.DoubleValue
0.000

@<SCITEGIC>MOL_PROPERTY
Tether
SciTegic.value.DoubleValue
0.000

@<TRIPOS>MOLECULE
guest-s22_confgen4.mol2 : confsearch ligand conformer 433
          20          19           1
SMALL
USER_CHARGES
 
@<TRIPOS>ATOM
       1    C1      21.067768   22.121721   22.026905 C.2        1 MOL1        -0.2535
       2    H1      21.378935   21.587219   21.131931 H          1 MOL1         0.0845
       3    H2      21.306782   23.182779   22.073483 H          1 MOL1         0.0845
       4    C2      20.418081   21.522916   23.031551 C.2        1 MOL1        -0.1324
       5    H3      20.130057   22.112081   23.901876 H          1 MOL1         0.0833
       6    C3      20.018378   20.058893   23.111130 C.3        1 MOL1        -0.1813
       7    H4      18.923981   20.001686   23.171800 H          1 MOL1         0.0753
       8    H5      20.392998   19.643564   24.056071 H          1 MOL1         0.0753
       9    C4      20.522089   19.179650   21.939888 C.3        1 MOL1        -0.1855
      10    H6      20.081553   19.532717   20.997314 H          1 MOL1         0.0755
      11    H7      21.609639   19.300776   21.843670 H          1 MOL1         0.0755
      12    C5      20.217695   17.672175   22.124068 C.3        1 MOL1        -0.1855
      13    H8      20.702994   17.314528   23.042197 H          1 MOL1         0.0755
      14    H9      20.678512   17.115413   21.296377 H          1 MOL1         0.0755
      15    C6      18.705406   17.321832   22.177927 C.3        1 MOL1        -0.1958
      16    H10     18.588661   16.241234   22.320538 H          1 MOL1         0.0753
      17    H11     18.226981   17.801144   23.039476 H          1 MOL1         0.0753
      18    C7      17.932441   17.698135   20.917045 C.2        1 MOL1         0.6174
      19    O1      18.138403   17.055606   19.906012 O.co2      1 MOL1        -0.6695
      20    O2      17.130346   18.608674   20.983528 O.co2      1 MOL1        -0.6695
@<TRIPOS>BOND
    1     1     2    1
    2     1     3    1
    3     1     4    2
    4     4     5    1
    5     4     6    1
    6     6     7    1
    7     6     8    1
    8     6     9    1
    9     9    10    1
   10     9    11    1
   11     9    12    1
   12    12    13    1
   13    12    14    1
   14    12    15    1
   15    15    16    1
   16    15    17    1
   17    15    18    1
   18    18    19    1
   19    18    20    2
@<TRIPOS>SUBSTRUCTURE
       1 MOL1            1 RESIDUE      1      MOL     
@<SCITEGIC>MOL_PROPERTY
VConf Rank
SciTegic.value.IntegerValue
433

@<SCITEGIC>MOL_PROPERTY
Conf_Id
SciTegic.value.IntegerValue
53

@<SCITEGIC>MOL_PROPERTY
Delta U+W
SciTegic.value.DoubleValue
0.549

@<SCITEGIC>MOL_PROPERTY
U+W
SciTegic.value.DoubleValue
-51.197

@<SCITEGIC>MOL_PROPERTY
Grad RMS
SciTegic.value.DoubleValue
0.000000

@<SCITEGIC>MOL_PROPERTY
U
SciTegic.value.DoubleValue
10.870

@<SCITEGIC>MOL_PROPERTY
W
SciTegic.value.DoubleValue
-62.067

@<SCITEGIC>MOL_PROPERTY
W(PB)
SciTegic.value.DoubleValue
-64.228

@<SCITEGIC>MOL_PROPERTY
W(SA)
SciTegic.value.DoubleValue
2.161

@<SCITEGIC>MOL_PROPERTY
Valence
SciTegic.value.DoubleValue
8.803

@<SCITEGIC>MOL_PROPERTY
Coulomb
SciTegic.value.DoubleValue
1.020

@<SCITEGIC>MOL_PROPERTY
VdW
SciTegic.value.DoubleValue
1.048

@<SCITEGIC>MOL_PROPERTY
VdW6
SciTegic.value.DoubleValue
-8.312

@<SCITEGIC>MOL_PROPERTY
VdW12
SciTegic.value.DoubleValue
9.360

@<SCITEGIC>MOL_PROPERTY
Bond
SciTegic.value.DoubleValue
0.212

@<SCITEGIC>MOL_PROPERTY
Angle
SciTegic.value.DoubleValue
3.379

@<SCITEGIC>MOL_PROPERTY
Pdih
SciTegic.value.DoubleValue
5.211

@<SCITEGIC>MOL_PROPERTY
Idih
SciTegic.value.DoubleValue
0.001

@<SCITEGIC>MOL_PROPERTY
Tether
SciTegic.value.DoubleValue
0.000

@<TRIPOS>MOLECULE
guest-s22_confgen4.mol2 : confsearch ligand conformer 434
          20          19           1
SMALL
USER_CHARGES
 
@<TRIPOS>ATOM
       1    C1      18.882553   16.242731   22.591498 C.2        1 MOL1        -0.2535
       2    H1      18.067313   16.794126   23.054798 H          1 MOL1         0.0845
       3    H2      19.119170   15.266082   23.009938 H          1 MOL1         0.0845
       4    C2      19.568262   16.726762   21.550262 C.2        1 MOL1        -0.1324
       5    H3      20.374316   16.132094   21.121368 H          1 MOL1         0.0833
       6    C3      19.350664   18.069695   20.872715 C.3        1 MOL1        -0.1813
       7    H4      18.746133   17.914230   19.969512 H          1 MOL1         0.0753
       8    H5      20.314078   18.443281   20.502786 H          1 MOL1         0.0753
       9    C4      18.690541   19.169275   21.745030 C.3        1 MOL1        -0.1855
      10    H6      18.523651   20.057442   21.120413 H          1 MOL1         0.0755
      11    H7      17.691801   18.836971   22.057143 H          1 MOL1         0.0755
      12    C5      19.507628   19.583421   22.997112 C.3        1 MOL1        -0.1855
      13    H8      19.619601   18.721206   23.666889 H          1 MOL1         0.0755
      14    H9      18.933760   20.332932   23.559186 H          1 MOL1         0.0755
      15    C6      20.913613   20.165187   22.685546 C.3        1 MOL1        -0.1958
      16    H10     21.415362   20.423432   23.625293 H          1 MOL1         0.0753
      17    H11     21.542367   19.412934   22.195867 H          1 MOL1         0.0753
      18    C7      20.891418   21.422956   21.821861 C.2        1 MOL1         0.6174
      19    O1      21.273455   21.338910   20.671148 O.co2      1 MOL1        -0.6695
      20    O2      20.508880   22.459120   22.329344 O.co2      1 MOL1        -0.6695
@<TRIPOS>BOND
    1     1     2    1
    2     1     3    1
    3     1     4    2
    4     4     5    1
    5     4     6    1
    6     6     7    1
    7     6     8    1
    8     6     9    1
    9     9    10    1
   10     9    11    1
   11     9    12    1
   12    12    13    1
   13    12    14    1
   14    12    15    1
   15    15    16    1
   16    15    17    1
   17    15    18    1
   18    18    19    1
   19    18    20    2
@<TRIPOS>SUBSTRUCTURE
       1 MOL1            1 RESIDUE      1      MOL     
@<SCITEGIC>MOL_PROPERTY
VConf Rank
SciTegic.value.IntegerValue
434

@<SCITEGIC>MOL_PROPERTY
Conf_Id
SciTegic.value.IntegerValue
66

@<SCITEGIC>MOL_PROPERTY
Delta U+W
SciTegic.value.DoubleValue
1.737

@<SCITEGIC>MOL_PROPERTY
U+W
SciTegic.value.DoubleValue
-50.008

@<SCITEGIC>MOL_PROPERTY
Grad RMS
SciTegic.value.DoubleValue
0.000000

@<SCITEGIC>MOL_PROPERTY
U
SciTegic.value.DoubleValue
11.091

@<SCITEGIC>MOL_PROPERTY
W
SciTegic.value.DoubleValue
-61.099

@<SCITEGIC>MOL_PROPERTY
W(PB)
SciTegic.value.DoubleValue
-63.213

@<SCITEGIC>MOL_PROPERTY
W(SA)
SciTegic.value.DoubleValue
2.114

@<SCITEGIC>MOL_PROPERTY
Valence
SciTegic.value.DoubleValue
9.664

@<SCITEGIC>MOL_PROPERTY
Coulomb
SciTegic.value.DoubleValue
0.658

@<SCITEGIC>MOL_PROPERTY
VdW
SciTegic.value.DoubleValue
0.769

@<SCITEGIC>MOL_PROPERTY
VdW6
SciTegic.value.DoubleValue
-9.171

@<SCITEGIC>MOL_PROPERTY
VdW12
SciTegic.value.DoubleValue
9.940

@<SCITEGIC>MOL_PROPERTY
Bond
SciTegic.value.DoubleValue
0.244

@<SCITEGIC>MOL_PROPERTY
Angle
SciTegic.value.DoubleValue
3.658

@<SCITEGIC>MOL_PROPERTY
Pdih
SciTegic.value.DoubleValue
5.762

@<SCITEGIC>MOL_PROPERTY
Idih
SciTegic.value.DoubleValue
0.001

@<SCITEGIC>MOL_PROPERTY
Tether
SciTegic.value.DoubleValue
0.000

@<TRIPOS>MOLECULE
guest-s22_confgen4.mol2 : confsearch ligand conformer 435
          20          19           1
SMALL
USER_CHARGES
 
@<TRIPOS>ATOM
       1    C1      16.909188   19.588857   22.010919 C.2        1 MOL1        -0.2535
       2    H1      17.269910   20.314405   21.285217 H          1 MOL1         0.0845
       3    H2      15.921554   19.165591   21.836675 H          1 MOL1         0.0845
       4    C2      17.631274   19.226900   23.076967 C.2        1 MOL1        -0.1324
       5    H3      17.220047   18.497163   23.773901 H          1 MOL1         0.0833
       6    C3      19.019225   19.727936   23.441867 C.3        1 MOL1        -0.1813
       7    H4      19.577843   18.911853   23.916846 H          1 MOL1         0.0753
       8    H5      18.920992   20.492546   24.223727 H          1 MOL1         0.0753
       9    C4      19.862315   20.301659   22.272953 C.3        1 MOL1        -0.1855
      10    H6      19.335745   21.156758   21.829081 H          1 MOL1         0.0755
      11    H7      20.797371   20.709167   22.680674 H          1 MOL1         0.0755
      12    C5      20.209789   19.278521   21.161579 C.3        1 MOL1        -0.1855
      13    H8      20.729693   19.806516   20.350344 H          1 MOL1         0.0755
      14    H9      19.290955   18.868782   20.721741 H          1 MOL1         0.0755
      15    C6      21.107884   18.112854   21.651029 C.3        1 MOL1        -0.1958
      16    H10     22.007537   18.506261   22.138887 H          1 MOL1         0.0753
      17    H11     20.576450   17.501689   22.389202 H          1 MOL1         0.0753
      18    C7      21.549481   17.193046   20.518250 C.2        1 MOL1         0.6174
      19    O1      20.859942   16.226170   20.260492 O.co2      1 MOL1        -0.6695
      20    O2      22.564901   17.475704   19.913303 O.co2      1 MOL1        -0.6695
@<TRIPOS>BOND
    1     1     2    1
    2     1     3    1
    3     1     4    2
    4     4     5    1
    5     4     6    1
    6     6     7    1
    7     6     8    1
    8     6     9    1
    9     9    10    1
   10     9    11    1
   11     9    12    1
   12    12    13    1
   13    12    14    1
   14    12    15    1
   15    15    16    1
   16    15    17    1
   17    15    18    1
   18    18    19    1
   19    18    20    2
@<TRIPOS>SUBSTRUCTURE
       1 MOL1            1 RESIDUE      1      MOL     
@<SCITEGIC>MOL_PROPERTY
VConf Rank
SciTegic.value.IntegerValue
435

@<SCITEGIC>MOL_PROPERTY
Conf_Id
SciTegic.value.IntegerValue
64

@<SCITEGIC>MOL_PROPERTY
Delta U+W
SciTegic.value.DoubleValue
0.366

@<SCITEGIC>MOL_PROPERTY
U+W
SciTegic.value.DoubleValue
-51.379

@<SCITEGIC>MOL_PROPERTY
Grad RMS
SciTegic.value.DoubleValue
0.000000

@<SCITEGIC>MOL_PROPERTY
U
SciTegic.value.DoubleValue
10.000

@<SCITEGIC>MOL_PROPERTY
W
SciTegic.value.DoubleValue
-61.379

@<SCITEGIC>MOL_PROPERTY
W(PB)
SciTegic.value.DoubleValue
-63.541

@<SCITEGIC>MOL_PROPERTY
W(SA)
SciTegic.value.DoubleValue
2.162

@<SCITEGIC>MOL_PROPERTY
Valence
SciTegic.value.DoubleValue
9.398

@<SCITEGIC>MOL_PROPERTY
Coulomb
SciTegic.value.DoubleValue
-0.504

@<SCITEGIC>MOL_PROPERTY
VdW
SciTegic.value.DoubleValue
1.105

@<SCITEGIC>MOL_PROPERTY
VdW6
SciTegic.value.DoubleValue
-7.975

@<SCITEGIC>MOL_PROPERTY
VdW12
SciTegic.value.DoubleValue
9.080

@<SCITEGIC>MOL_PROPERTY
Bond
SciTegic.value.DoubleValue
0.216

@<SCITEGIC>MOL_PROPERTY
Angle
SciTegic.value.DoubleValue
3.417

@<SCITEGIC>MOL_PROPERTY
Pdih
SciTegic.value.DoubleValue
5.765

@<SCITEGIC>MOL_PROPERTY
Idih
SciTegic.value.DoubleValue
0.001

@<SCITEGIC>MOL_PROPERTY
Tether
SciTegic.value.DoubleValue
0.000

@<TRIPOS>MOLECULE
guest-s22_confgen4.mol2 : confsearch ligand conformer 436
          20          19           1
SMALL
USER_CHARGES
 
@<TRIPOS>ATOM
       1    C1      22.371528   20.521909   22.967462 C.2        1 MOL1        -0.2535
       2    H1      21.762059   21.419188   23.061569 H          1 MOL1         0.0845
       3    H2      23.382349   20.640887   22.581211 H          1 MOL1         0.0845
       4    C2      21.899662   19.319592   23.307739 C.2        1 MOL1        -0.1324
       5    H3      22.525315   18.433544   23.203485 H          1 MOL1         0.0833
       6    C3      20.507399   19.075907   23.850141 C.3        1 MOL1        -0.1813
       7    H4      20.023299   20.026112   24.113641 H          1 MOL1         0.0753
       8    H5      20.581094   18.497527   24.780673 H          1 MOL1         0.0753
       9    C4      19.616763   18.302628   22.851768 C.3        1 MOL1        -0.1855
      10    H6      20.101356   17.352597   22.587772 H          1 MOL1         0.0755
      11    H7      18.669895   18.046061   23.346236 H          1 MOL1         0.0755
      12    C5      19.317135   19.111863   21.569215 C.3        1 MOL1        -0.1855
      13    H8      20.255567   19.351988   21.050645 H          1 MOL1         0.0755
      14    H9      18.848144   20.068852   21.836625 H          1 MOL1         0.0755
      15    C6      18.386787   18.337532   20.603356 C.3        1 MOL1        -0.1958
      16    H10     18.847528   17.384412   20.317229 H          1 MOL1         0.0753
      17    H11     17.436889   18.103154   21.098579 H          1 MOL1         0.0753
      18    C7      18.076605   19.115534   19.329545 C.2        1 MOL1         0.6174
      19    O1      17.122032   19.867539   19.334992 O.co2      1 MOL1        -0.6695
      20    O2      18.805721   18.959785   18.369950 O.co2      1 MOL1        -0.6695
@<TRIPOS>BOND
    1     1     2    1
    2     1     3    1
    3     1     4    2
    4     4     5    1
    5     4     6    1
    6     6     7    1
    7     6     8    1
    8     6     9    1
    9     9    10    1
   10     9    11    1
   11     9    12    1
   12    12    13    1
   13    12    14    1
   14    12    15    1
   15    15    16    1
   16    15    17    1
   17    15    18    1
   18    18    19    1
   19    18    20    2
@<TRIPOS>SUBSTRUCTURE
       1 MOL1            1 RESIDUE      1      MOL     
@<SCITEGIC>MOL_PROPERTY
VConf Rank
SciTegic.value.IntegerValue
436

@<SCITEGIC>MOL_PROPERTY
Conf_Id
SciTegic.value.IntegerValue
42

@<SCITEGIC>MOL_PROPERTY
Delta U+W
SciTegic.value.DoubleValue
-0.601

@<SCITEGIC>MOL_PROPERTY
U+W
SciTegic.value.DoubleValue
-52.347

@<SCITEGIC>MOL_PROPERTY
Grad RMS
SciTegic.value.DoubleValue
0.000000

@<SCITEGIC>MOL_PROPERTY
U
SciTegic.value.DoubleValue
8.428

@<SCITEGIC>MOL_PROPERTY
W
SciTegic.value.DoubleValue
-60.774

@<SCITEGIC>MOL_PROPERTY
W(PB)
SciTegic.value.DoubleValue
-62.982

@<SCITEGIC>MOL_PROPERTY
W(SA)
SciTegic.value.DoubleValue
2.208

@<SCITEGIC>MOL_PROPERTY
Valence
SciTegic.value.DoubleValue
9.231

@<SCITEGIC>MOL_PROPERTY
Coulomb
SciTegic.value.DoubleValue
-1.304

@<SCITEGIC>MOL_PROPERTY
VdW
SciTegic.value.DoubleValue
0.501

@<SCITEGIC>MOL_PROPERTY
VdW6
SciTegic.value.DoubleValue
-6.515

@<SCITEGIC>MOL_PROPERTY
VdW12
SciTegic.value.DoubleValue
7.016

@<SCITEGIC>MOL_PROPERTY
Bond
SciTegic.value.DoubleValue
0.103

@<SCITEGIC>MOL_PROPERTY
Angle
SciTegic.value.DoubleValue
2.328

@<SCITEGIC>MOL_PROPERTY
Pdih
SciTegic.value.DoubleValue
6.799

@<SCITEGIC>MOL_PROPERTY
Idih
SciTegic.value.DoubleValue
0.000

@<SCITEGIC>MOL_PROPERTY
Tether
SciTegic.value.DoubleValue
0.000

@<TRIPOS>MOLECULE
guest-s22_confgen4.mol2 : confsearch ligand conformer 437
          20          19           1
SMALL
USER_CHARGES
 
@<TRIPOS>ATOM
       1    C1      17.716783   19.239897   19.772809 C.2        1 MOL1        -0.2535
       2    H1      17.986804   18.238752   19.440854 H          1 MOL1         0.0845
       3    H2      17.487383   19.977436   19.005667 H          1 MOL1         0.0845
       4    C2      17.671515   19.556033   21.069741 C.2        1 MOL1        -0.1324
       5    H3      17.401695   20.564887   21.380895 H          1 MOL1         0.0833
       6    C3      17.978210   18.586760   22.191504 C.3        1 MOL1        -0.1813
       7    H4      18.046251   17.559841   21.807554 H          1 MOL1         0.0753
       8    H5      17.147518   18.594506   22.909628 H          1 MOL1         0.0753
       9    C4      19.283513   18.947199   22.935969 C.3        1 MOL1        -0.1855
      10    H6      19.210598   19.972242   23.324953 H          1 MOL1         0.0755
      11    H7      19.388603   18.288262   23.808608 H          1 MOL1         0.0755
      12    C5      20.538115   18.810143   22.041285 C.3        1 MOL1        -0.1855
      13    H8      20.465475   19.495343   21.185377 H          1 MOL1         0.0755
      14    H9      20.578479   17.793301   21.628207 H          1 MOL1         0.0755
      15    C6      21.853520   19.094145   22.811920 C.3        1 MOL1        -0.1958
      16    H10     21.931852   18.434597   23.684609 H          1 MOL1         0.0753
      17    H11     22.711396   18.870455   22.166938 H          1 MOL1         0.0753
      18    C7      21.997816   20.539540   23.279706 C.2        1 MOL1         0.6174
      19    O1      21.795857   20.788211   24.452113 O.co2      1 MOL1        -0.6695
      20    O2      22.326586   21.376002   22.461575 O.co2      1 MOL1        -0.6695
@<TRIPOS>BOND
    1     1     2    1
    2     1     3    1
    3     1     4    2
    4     4     5    1
    5     4     6    1
    6     6     7    1
    7     6     8    1
    8     6     9    1
    9     9    10    1
   10     9    11    1
   11     9    12    1
   12    12    13    1
   13    12    14    1
   14    12    15    1
   15    15    16    1
   16    15    17    1
   17    15    18    1
   18    18    19    1
   19    18    20    2
@<TRIPOS>SUBSTRUCTURE
       1 MOL1            1 RESIDUE      1      MOL     
@<SCITEGIC>MOL_PROPERTY
VConf Rank
SciTegic.value.IntegerValue
437

@<SCITEGIC>MOL_PROPERTY
Conf_Id
SciTegic.value.IntegerValue
68

@<SCITEGIC>MOL_PROPERTY
Delta U+W
SciTegic.value.DoubleValue
0.492

@<SCITEGIC>MOL_PROPERTY
U+W
SciTegic.value.DoubleValue
-51.253

@<SCITEGIC>MOL_PROPERTY
Grad RMS
SciTegic.value.DoubleValue
0.000000

@<SCITEGIC>MOL_PROPERTY
U
SciTegic.value.DoubleValue
10.179

@<SCITEGIC>MOL_PROPERTY
W
SciTegic.value.DoubleValue
-61.432

@<SCITEGIC>MOL_PROPERTY
W(PB)
SciTegic.value.DoubleValue
-63.627

@<SCITEGIC>MOL_PROPERTY
W(SA)
SciTegic.value.DoubleValue
2.195

@<SCITEGIC>MOL_PROPERTY
Valence
SciTegic.value.DoubleValue
9.483

@<SCITEGIC>MOL_PROPERTY
Coulomb
SciTegic.value.DoubleValue
0.361

@<SCITEGIC>MOL_PROPERTY
VdW
SciTegic.value.DoubleValue
0.335

@<SCITEGIC>MOL_PROPERTY
VdW6
SciTegic.value.DoubleValue
-7.385

@<SCITEGIC>MOL_PROPERTY
VdW12
SciTegic.value.DoubleValue
7.720

@<SCITEGIC>MOL_PROPERTY
Bond
SciTegic.value.DoubleValue
0.125

@<SCITEGIC>MOL_PROPERTY
Angle
SciTegic.value.DoubleValue
2.487

@<SCITEGIC>MOL_PROPERTY
Pdih
SciTegic.value.DoubleValue
6.870

@<SCITEGIC>MOL_PROPERTY
Idih
SciTegic.value.DoubleValue
0.001

@<SCITEGIC>MOL_PROPERTY
Tether
SciTegic.value.DoubleValue
0.000

@<TRIPOS>MOLECULE
guest-s22_confgen4.mol2 : confsearch ligand conformer 438
          20          19           1
SMALL
USER_CHARGES
 
@<TRIPOS>ATOM
       1    C1      22.851389   19.427289   22.033113 C.2        1 MOL1        -0.2535
       2    H1      23.135334   18.959277   22.974298 H          1 MOL1         0.0845
       3    H2      23.491312   20.223249   21.656120 H          1 MOL1         0.0845
       4    C2      21.759443   19.045192   21.365765 C.2        1 MOL1        -0.1324
       5    H3      21.495044   19.525253   20.424022 H          1 MOL1         0.0833
       6    C3      20.827499   17.944076   21.824899 C.3        1 MOL1        -0.1813
       7    H4      21.339961   17.306683   22.558133 H          1 MOL1         0.0753
       8    H5      20.571377   17.293469   20.978076 H          1 MOL1         0.0753
       9    C4      19.535386   18.497154   22.467339 C.3        1 MOL1        -0.1855
      10    H6      18.965990   17.660472   22.894535 H          1 MOL1         0.0755
      11    H7      19.799922   19.156007   23.306107 H          1 MOL1         0.0755
      12    C5      18.640845   19.257982   21.460032 C.3        1 MOL1        -0.1855
      13    H8      18.424204   18.605872   20.603218 H          1 MOL1         0.0755
      14    H9      19.177188   20.131815   21.065611 H          1 MOL1         0.0755
      15    C6      17.302091   19.725014   22.088103 C.3        1 MOL1        -0.1958
      16    H10     16.660961   20.152357   21.308143 H          1 MOL1         0.0753
      17    H11     16.761558   18.868837   22.509468 H          1 MOL1         0.0753
      18    C7      17.463812   20.782165   23.176733 C.2        1 MOL1         0.6174
      19    O1      17.679505   21.928107   22.834096 O.co2      1 MOL1        -0.6695
      20    O2      17.350654   20.436523   24.336410 O.co2      1 MOL1        -0.6695
@<TRIPOS>BOND
    1     1     2    1
    2     1     3    1
    3     1     4    2
    4     4     5    1
    5     4     6    1
    6     6     7    1
    7     6     8    1
    8     6     9    1
    9     9    10    1
   10     9    11    1
   11     9    12    1
   12    12    13    1
   13    12    14    1
   14    12    15    1
   15    15    16    1
   16    15    17    1
   17    15    18    1
   18    18    19    1
   19    18    20    2
@<TRIPOS>SUBSTRUCTURE
       1 MOL1            1 RESIDUE      1      MOL     
@<SCITEGIC>MOL_PROPERTY
VConf Rank
SciTegic.value.IntegerValue
438

@<SCITEGIC>MOL_PROPERTY
Conf_Id
SciTegic.value.IntegerValue
87

@<SCITEGIC>MOL_PROPERTY
Delta U+W
SciTegic.value.DoubleValue
0.339

@<SCITEGIC>MOL_PROPERTY
U+W
SciTegic.value.DoubleValue
-51.407

@<SCITEGIC>MOL_PROPERTY
Grad RMS
SciTegic.value.DoubleValue
0.000000

@<SCITEGIC>MOL_PROPERTY
U
SciTegic.value.DoubleValue
10.461

@<SCITEGIC>MOL_PROPERTY
W
SciTegic.value.DoubleValue
-61.867

@<SCITEGIC>MOL_PROPERTY
W(PB)
SciTegic.value.DoubleValue
-64.045

@<SCITEGIC>MOL_PROPERTY
W(SA)
SciTegic.value.DoubleValue
2.178

@<SCITEGIC>MOL_PROPERTY
Valence
SciTegic.value.DoubleValue
9.555

@<SCITEGIC>MOL_PROPERTY
Coulomb
SciTegic.value.DoubleValue
0.483

@<SCITEGIC>MOL_PROPERTY
VdW
SciTegic.value.DoubleValue
0.423

@<SCITEGIC>MOL_PROPERTY
VdW6
SciTegic.value.DoubleValue
-7.223

@<SCITEGIC>MOL_PROPERTY
VdW12
SciTegic.value.DoubleValue
7.646

@<SCITEGIC>MOL_PROPERTY
Bond
SciTegic.value.DoubleValue
0.126

@<SCITEGIC>MOL_PROPERTY
Angle
SciTegic.value.DoubleValue
2.492

@<SCITEGIC>MOL_PROPERTY
Pdih
SciTegic.value.DoubleValue
6.936

@<SCITEGIC>MOL_PROPERTY
Idih
SciTegic.value.DoubleValue
0.001

@<SCITEGIC>MOL_PROPERTY
Tether
SciTegic.value.DoubleValue
0.000

@<TRIPOS>MOLECULE
guest-s22_confgen4.mol2 : confsearch ligand conformer 439
          20          19           1
SMALL
USER_CHARGES
 
@<TRIPOS>ATOM
       1    C1      20.331987   16.853385   23.738408 C.2        1 MOL1        -0.2535
       2    H1      20.893762   17.381499   24.507122 H          1 MOL1         0.0845
       3    H2      19.717124   16.012403   24.054179 H          1 MOL1         0.0845
       4    C2      20.391526   17.223006   22.456398 C.2        1 MOL1        -0.1324
       5    H3      19.829080   16.676327   21.700366 H          1 MOL1         0.0833
       6    C3      21.233951   18.372421   21.945738 C.3        1 MOL1        -0.1813
       7    H4      21.399245   18.272067   20.864747 H          1 MOL1         0.0753
       8    H5      22.228784   18.306008   22.406503 H          1 MOL1         0.0753
       9    C4      20.638072   19.766306   22.263823 C.3        1 MOL1        -0.1855
      10    H6      20.299595   19.800752   23.308419 H          1 MOL1         0.0755
      11    H7      21.447537   20.504765   22.185221 H          1 MOL1         0.0755
      12    C5      19.496149   20.218778   21.319163 C.3        1 MOL1        -0.1855
      13    H8      19.833745   20.169752   20.274814 H          1 MOL1         0.0755
      14    H9      19.279675   21.276700   21.522704 H          1 MOL1         0.0755
      15    C6      18.181378   19.412802   21.477415 C.3        1 MOL1        -0.1958
      16    H10     18.319660   18.380744   21.140054 H          1 MOL1         0.0753
      17    H11     17.883386   19.375569   22.531995 H          1 MOL1         0.0753
      18    C7      17.026323   20.005610   20.678631 C.2        1 MOL1         0.6174
      19    O1      16.878968   19.644186   19.527741 O.co2      1 MOL1        -0.6695
      20    O2      16.316407   20.829232   21.221355 O.co2      1 MOL1        -0.6695
@<TRIPOS>BOND
    1     1     2    1
    2     1     3    1
    3     1     4    2
    4     4     5    1
    5     4     6    1
    6     6     7    1
    7     6     8    1
    8     6     9    1
    9     9    10    1
   10     9    11    1
   11     9    12    1
   12    12    13    1
   13    12    14    1
   14    12    15    1
   15    15    16    1
   16    15    17    1
   17    15    18    1
   18    18    19    1
   19    18    20    2
@<TRIPOS>SUBSTRUCTURE
       1 MOL1            1 RESIDUE      1      MOL     
@<SCITEGIC>MOL_PROPERTY
VConf Rank
SciTegic.value.IntegerValue
439

@<SCITEGIC>MOL_PROPERTY
Conf_Id
SciTegic.value.IntegerValue
51

@<SCITEGIC>MOL_PROPERTY
Delta U+W
SciTegic.value.DoubleValue
1.709

@<SCITEGIC>MOL_PROPERTY
U+W
SciTegic.value.DoubleValue
-50.036

@<SCITEGIC>MOL_PROPERTY
Grad RMS
SciTegic.value.DoubleValue
0.000000

@<SCITEGIC>MOL_PROPERTY
U
SciTegic.value.DoubleValue
10.643

@<SCITEGIC>MOL_PROPERTY
W
SciTegic.value.DoubleValue
-60.679

@<SCITEGIC>MOL_PROPERTY
W(PB)
SciTegic.value.DoubleValue
-62.882

@<SCITEGIC>MOL_PROPERTY
W(SA)
SciTegic.value.DoubleValue
2.203

@<SCITEGIC>MOL_PROPERTY
Valence
SciTegic.value.DoubleValue
11.231

@<SCITEGIC>MOL_PROPERTY
Coulomb
SciTegic.value.DoubleValue
-1.077

@<SCITEGIC>MOL_PROPERTY
VdW
SciTegic.value.DoubleValue
0.489

@<SCITEGIC>MOL_PROPERTY
VdW6
SciTegic.value.DoubleValue
-7.546

@<SCITEGIC>MOL_PROPERTY
VdW12
SciTegic.value.DoubleValue
8.035

@<SCITEGIC>MOL_PROPERTY
Bond
SciTegic.value.DoubleValue
0.159

@<SCITEGIC>MOL_PROPERTY
Angle
SciTegic.value.DoubleValue
3.005

@<SCITEGIC>MOL_PROPERTY
Pdih
SciTegic.value.DoubleValue
8.065

@<SCITEGIC>MOL_PROPERTY
Idih
SciTegic.value.DoubleValue
0.002

@<SCITEGIC>MOL_PROPERTY
Tether
SciTegic.value.DoubleValue
0.000

@<TRIPOS>MOLECULE
guest-s22_confgen4.mol2 : confsearch ligand conformer 440
          20          19           1
SMALL
USER_CHARGES
 
@<TRIPOS>ATOM
       1    C1      19.228644   18.675179   24.730284 C.2        1 MOL1        -0.2535
       2    H1      19.038982   17.604577   24.787349 H          1 MOL1         0.0845
       3    H2      18.686401   19.318798   25.420754 H          1 MOL1         0.0845
       4    C2      20.091375   19.182132   23.845747 C.2        1 MOL1        -0.1324
       5    H3      20.274459   20.255443   23.809995 H          1 MOL1         0.0833
       6    C3      20.887616   18.346529   22.866272 C.3        1 MOL1        -0.1813
       7    H4      21.302000   17.482381   23.402873 H          1 MOL1         0.0753
       8    H5      21.754153   18.912791   22.499673 H          1 MOL1         0.0753
       9    C4      20.050097   17.826592   21.671534 C.3        1 MOL1        -0.1855
      10    H6      20.586300   16.976138   21.228872 H          1 MOL1         0.0755
      11    H7      19.092617   17.424904   22.030432 H          1 MOL1         0.0755
      12    C5      19.804047   18.863629   20.546759 C.3        1 MOL1        -0.1855
      13    H8      19.364467   18.340480   19.686194 H          1 MOL1         0.0755
      14    H9      20.762698   19.273396   20.200178 H          1 MOL1         0.0755
      15    C6      18.858063   20.024858   20.946673 C.3        1 MOL1        -0.1958
      16    H10     17.932986   19.628347   21.381796 H          1 MOL1         0.0753
      17    H11     19.328412   20.661446   21.702723 H          1 MOL1         0.0753
      18    C7      18.484131   20.914160   19.766445 C.2        1 MOL1         0.6174
      19    O1      19.207412   21.855006   19.504603 O.co2      1 MOL1        -0.6695
      20    O2      17.490383   20.630993   19.126785 O.co2      1 MOL1        -0.6695
@<TRIPOS>BOND
    1     1     2    1
    2     1     3    1
    3     1     4    2
    4     4     5    1
    5     4     6    1
    6     6     7    1
    7     6     8    1
    8     6     9    1
    9     9    10    1
   10     9    11    1
   11     9    12    1
   12    12    13    1
   13    12    14    1
   14    12    15    1
   15    15    16    1
   16    15    17    1
   17    15    18    1
   18    18    19    1
   19    18    20    2
@<TRIPOS>SUBSTRUCTURE
       1 MOL1            1 RESIDUE      1      MOL     
@<SCITEGIC>MOL_PROPERTY
VConf Rank
SciTegic.value.IntegerValue
440

@<SCITEGIC>MOL_PROPERTY
Conf_Id
SciTegic.value.IntegerValue
91

@<SCITEGIC>MOL_PROPERTY
Delta U+W
SciTegic.value.DoubleValue
1.604

@<SCITEGIC>MOL_PROPERTY
U+W
SciTegic.value.DoubleValue
-50.141

@<SCITEGIC>MOL_PROPERTY
Grad RMS
SciTegic.value.DoubleValue
0.000000

@<SCITEGIC>MOL_PROPERTY
U
SciTegic.value.DoubleValue
10.644

@<SCITEGIC>MOL_PROPERTY
W
SciTegic.value.DoubleValue
-60.786

@<SCITEGIC>MOL_PROPERTY
W(PB)
SciTegic.value.DoubleValue
-62.965

@<SCITEGIC>MOL_PROPERTY
W(SA)
SciTegic.value.DoubleValue
2.179

@<SCITEGIC>MOL_PROPERTY
Valence
SciTegic.value.DoubleValue
11.230

@<SCITEGIC>MOL_PROPERTY
Coulomb
SciTegic.value.DoubleValue
-1.075

@<SCITEGIC>MOL_PROPERTY
VdW
SciTegic.value.DoubleValue
0.489

@<SCITEGIC>MOL_PROPERTY
VdW6
SciTegic.value.DoubleValue
-7.547

@<SCITEGIC>MOL_PROPERTY
VdW12
SciTegic.value.DoubleValue
8.036

@<SCITEGIC>MOL_PROPERTY
Bond
SciTegic.value.DoubleValue
0.159

@<SCITEGIC>MOL_PROPERTY
Angle
SciTegic.value.DoubleValue
3.006

@<SCITEGIC>MOL_PROPERTY
Pdih
SciTegic.value.DoubleValue
8.064

@<SCITEGIC>MOL_PROPERTY
Idih
SciTegic.value.DoubleValue
0.002

@<SCITEGIC>MOL_PROPERTY
Tether
SciTegic.value.DoubleValue
0.000

@<TRIPOS>MOLECULE
guest-s22_confgen4.mol2 : confsearch ligand conformer 441
          20          19           1
SMALL
USER_CHARGES
 
@<TRIPOS>ATOM
       1    C1      18.126005   19.701933   18.667994 C.2        1 MOL1        -0.2535
       2    H1      17.230397   19.962353   19.229830 H          1 MOL1         0.0845
       3    H2      18.000813   19.441617   17.618309 H          1 MOL1         0.0845
       4    C2      19.332461   19.698222   19.240794 C.2        1 MOL1        -0.1324
       5    H3      20.216340   19.433743   18.660737 H          1 MOL1         0.0833
       6    C3      19.583653   20.048762   20.690507 C.3        1 MOL1        -0.1813
       7    H4      18.702833   20.545385   21.119840 H          1 MOL1         0.0753
       8    H5      20.413693   20.764836   20.756951 H          1 MOL1         0.0753
       9    C4      19.918296   18.790192   21.518087 C.3        1 MOL1        -0.1855
      10    H6      19.086812   18.075591   21.444840 H          1 MOL1         0.0755
      11    H7      20.802020   18.296390   21.091061 H          1 MOL1         0.0755
      12    C5      20.180718   19.130707   23.001427 C.3        1 MOL1        -0.1855
      13    H8      19.297054   19.624207   23.429375 H          1 MOL1         0.0755
      14    H9      21.011375   19.846305   23.075270 H          1 MOL1         0.0755
      15    C6      20.516533   17.864532   23.833551 C.3        1 MOL1        -0.1958
      16    H10     19.688768   17.148559   23.769516 H          1 MOL1         0.0753
      17    H11     21.401503   17.370314   23.415838 H          1 MOL1         0.0753
      18    C7      20.790810   18.112950   25.317591 C.2        1 MOL1         0.6174
      19    O1      21.058769   17.145166   26.001499 O.co2      1 MOL1        -0.6695
      20    O2      20.734220   19.244177   25.760050 O.co2      1 MOL1        -0.6695
@<TRIPOS>BOND
    1     1     2    1
    2     1     3    1
    3     1     4    2
    4     4     5    1
    5     4     6    1
    6     6     7    1
    7     6     8    1
    8     6     9    1
    9     9    10    1
   10     9    11    1
   11     9    12    1
   12    12    13    1
   13    12    14    1
   14    12    15    1
   15    15    16    1
   16    15    17    1
   17    15    18    1
   18    18    19    1
   19    18    20    2
@<TRIPOS>SUBSTRUCTURE
       1 MOL1            1 RESIDUE      1      MOL     
@<SCITEGIC>MOL_PROPERTY
VConf Rank
SciTegic.value.IntegerValue
441

@<SCITEGIC>MOL_PROPERTY
Conf_Id
SciTegic.value.IntegerValue
33

@<SCITEGIC>MOL_PROPERTY
Delta U+W
SciTegic.value.DoubleValue
0.000

@<SCITEGIC>MOL_PROPERTY
U+W
SciTegic.value.DoubleValue
-51.745

@<SCITEGIC>MOL_PROPERTY
Grad RMS
SciTegic.value.DoubleValue
0.000000

@<SCITEGIC>MOL_PROPERTY
U
SciTegic.value.DoubleValue
7.593

@<SCITEGIC>MOL_PROPERTY
W
SciTegic.value.DoubleValue
-59.338

@<SCITEGIC>MOL_PROPERTY
W(PB)
SciTegic.value.DoubleValue
-61.574

@<SCITEGIC>MOL_PROPERTY
W(SA)
SciTegic.value.DoubleValue
2.236

@<SCITEGIC>MOL_PROPERTY
Valence
SciTegic.value.DoubleValue
9.570

@<SCITEGIC>MOL_PROPERTY
Coulomb
SciTegic.value.DoubleValue
-3.091

@<SCITEGIC>MOL_PROPERTY
VdW
SciTegic.value.DoubleValue
1.114

@<SCITEGIC>MOL_PROPERTY
VdW6
SciTegic.value.DoubleValue
-6.064

@<SCITEGIC>MOL_PROPERTY
VdW12
SciTegic.value.DoubleValue
7.178

@<SCITEGIC>MOL_PROPERTY
Bond
SciTegic.value.DoubleValue
0.117

@<SCITEGIC>MOL_PROPERTY
Angle
SciTegic.value.DoubleValue
2.692

@<SCITEGIC>MOL_PROPERTY
Pdih
SciTegic.value.DoubleValue
6.761

@<SCITEGIC>MOL_PROPERTY
Idih
SciTegic.value.DoubleValue
0.000

@<SCITEGIC>MOL_PROPERTY
Tether
SciTegic.value.DoubleValue
0.000

@<TRIPOS>MOLECULE
guest-s22_confgen4.mol2 : confsearch ligand conformer 442
          20          19           1
SMALL
USER_CHARGES
 
@<TRIPOS>ATOM
       1    C1      21.803549   16.333828   23.104499 C.2        1 MOL1        -0.2535
       2    H1      21.331569   16.413713   24.082472 H          1 MOL1         0.0845
       3    H2      22.686787   15.702347   23.024613 H          1 MOL1         0.0845
       4    C2      21.322585   16.985264   22.042436 C.2        1 MOL1        -0.1324
       5    H3      21.810491   16.892465   21.072402 H          1 MOL1         0.0833
       6    C3      20.102111   17.878016   22.076505 C.3        1 MOL1        -0.1813
       7    H4      19.536161   17.712111   23.003205 H          1 MOL1         0.0753
       8    H5      19.436928   17.610008   21.245991 H          1 MOL1         0.0753
       9    C4      20.501357   19.367491   21.977117 C.3        1 MOL1        -0.1855
      10    H6      21.232108   19.590980   22.766671 H          1 MOL1         0.0755
      11    H7      21.011696   19.550396   21.021558 H          1 MOL1         0.0755
      12    C5      19.305245   20.338200   22.122782 C.3        1 MOL1        -0.1855
      13    H8      19.688811   21.367458   22.154410 H          1 MOL1         0.0755
      14    H9      18.801751   20.165475   23.084058 H          1 MOL1         0.0755
      15    C6      18.273547   20.226495   20.970352 C.3        1 MOL1        -0.1958
      16    H10     18.772069   20.354790   20.002158 H          1 MOL1         0.0753
      17    H11     17.803956   19.236438   20.966362 H          1 MOL1         0.0753
      18    C7      17.162743   21.265654   21.071502 C.2        1 MOL1         0.6174
      19    O1      16.169691   20.983533   21.712568 O.co2      1 MOL1        -0.6695
      20    O2      17.328211   22.337388   20.523104 O.co2      1 MOL1        -0.6695
@<TRIPOS>BOND
    1     1     2    1
    2     1     3    1
    3     1     4    2
    4     4     5    1
    5     4     6    1
    6     6     7    1
    7     6     8    1
    8     6     9    1
    9     9    10    1
   10     9    11    1
   11     9    12    1
   12    12    13    1
   13    12    14    1
   14    12    15    1
   15    15    16    1
   16    15    17    1
   17    15    18    1
   18    18    19    1
   19    18    20    2
@<TRIPOS>SUBSTRUCTURE
       1 MOL1            1 RESIDUE      1      MOL     
@<SCITEGIC>MOL_PROPERTY
VConf Rank
SciTegic.value.IntegerValue
442

@<SCITEGIC>MOL_PROPERTY
Conf_Id
SciTegic.value.IntegerValue
37

@<SCITEGIC>MOL_PROPERTY
Delta U+W
SciTegic.value.DoubleValue
-0.384

@<SCITEGIC>MOL_PROPERTY
U+W
SciTegic.value.DoubleValue
-52.130

@<SCITEGIC>MOL_PROPERTY
Grad RMS
SciTegic.value.DoubleValue
0.000000

@<SCITEGIC>MOL_PROPERTY
U
SciTegic.value.DoubleValue
7.491

@<SCITEGIC>MOL_PROPERTY
W
SciTegic.value.DoubleValue
-59.621

@<SCITEGIC>MOL_PROPERTY
W(PB)
SciTegic.value.DoubleValue
-61.853

@<SCITEGIC>MOL_PROPERTY
W(SA)
SciTegic.value.DoubleValue
2.232

@<SCITEGIC>MOL_PROPERTY
Valence
SciTegic.value.DoubleValue
9.604

@<SCITEGIC>MOL_PROPERTY
Coulomb
SciTegic.value.DoubleValue
-2.799

@<SCITEGIC>MOL_PROPERTY
VdW
SciTegic.value.DoubleValue
0.686

@<SCITEGIC>MOL_PROPERTY
VdW6
SciTegic.value.DoubleValue
-6.435

@<SCITEGIC>MOL_PROPERTY
VdW12
SciTegic.value.DoubleValue
7.121

@<SCITEGIC>MOL_PROPERTY
Bond
SciTegic.value.DoubleValue
0.124

@<SCITEGIC>MOL_PROPERTY
Angle
SciTegic.value.DoubleValue
2.493

@<SCITEGIC>MOL_PROPERTY
Pdih
SciTegic.value.DoubleValue
6.986

@<SCITEGIC>MOL_PROPERTY
Idih
SciTegic.value.DoubleValue
0.001

@<SCITEGIC>MOL_PROPERTY
Tether
SciTegic.value.DoubleValue
0.000

@<TRIPOS>MOLECULE
guest-s22_confgen4.mol2 : confsearch ligand conformer 443
          20          19           1
SMALL
USER_CHARGES
 
@<TRIPOS>ATOM
       1    C1      18.058726   16.484387   23.253452 C.2        1 MOL1        -0.2535
       2    H1      17.512105   15.656914   23.702544 H          1 MOL1         0.0845
       3    H2      17.509048   17.116500   22.559309 H          1 MOL1         0.0845
       4    C2      19.344993   16.696686   23.554051 C.2        1 MOL1        -0.1324
       5    H3      19.842098   16.028660   24.257085 H          1 MOL1         0.0833
       6    C3      20.234242   17.802791   23.011113 C.3        1 MOL1        -0.1813
       7    H4      21.110026   17.347196   22.529897 H          1 MOL1         0.0753
       8    H5      20.629173   18.384202   23.854989 H          1 MOL1         0.0753
       9    C4      19.548080   18.762501   22.011052 C.3        1 MOL1        -0.1855
      10    H6      19.168858   18.189458   21.153789 H          1 MOL1         0.0755
      11    H7      18.682771   19.237697   22.493250 H          1 MOL1         0.0755
      12    C5      20.517777   19.854352   21.508488 C.3        1 MOL1        -0.1855
      13    H8      21.385962   19.385253   21.024953 H          1 MOL1         0.0755
      14    H9      20.900869   20.431338   22.361677 H          1 MOL1         0.0755
      15    C6      19.833031   20.816671   20.506914 C.3        1 MOL1        -0.1958
      16    H10     19.456355   20.257815   19.641815 H          1 MOL1         0.0753
      17    H11     18.971179   21.303858   20.978572 H          1 MOL1         0.0753
      18    C7      20.770787   21.904575   19.995967 C.2        1 MOL1         0.6174
      19    O1      21.425558   21.675310   18.998288 O.co2      1 MOL1        -0.6695
      20    O2      20.836422   22.944977   20.620389 O.co2      1 MOL1        -0.6695
@<TRIPOS>BOND
    1     1     2    1
    2     1     3    1
    3     1     4    2
    4     4     5    1
    5     4     6    1
    6     6     7    1
    7     6     8    1
    8     6     9    1
    9     9    10    1
   10     9    11    1
   11     9    12    1
   12    12    13    1
   13    12    14    1
   14    12    15    1
   15    15    16    1
   16    15    17    1
   17    15    18    1
   18    18    19    1
   19    18    20    2
@<TRIPOS>SUBSTRUCTURE
       1 MOL1            1 RESIDUE      1      MOL     
@<SCITEGIC>MOL_PROPERTY
VConf Rank
SciTegic.value.IntegerValue
443

@<SCITEGIC>MOL_PROPERTY
Conf_Id
SciTegic.value.IntegerValue
44

@<SCITEGIC>MOL_PROPERTY
Delta U+W
SciTegic.value.DoubleValue
-1.440

@<SCITEGIC>MOL_PROPERTY
U+W
SciTegic.value.DoubleValue
-53.185

@<SCITEGIC>MOL_PROPERTY
Grad RMS
SciTegic.value.DoubleValue
0.000000

@<SCITEGIC>MOL_PROPERTY
U
SciTegic.value.DoubleValue
6.572

@<SCITEGIC>MOL_PROPERTY
W
SciTegic.value.DoubleValue
-59.757

@<SCITEGIC>MOL_PROPERTY
W(PB)
SciTegic.value.DoubleValue
-62.007

@<SCITEGIC>MOL_PROPERTY
W(SA)
SciTegic.value.DoubleValue
2.249

@<SCITEGIC>MOL_PROPERTY
Valence
SciTegic.value.DoubleValue
7.989

@<SCITEGIC>MOL_PROPERTY
Coulomb
SciTegic.value.DoubleValue
-2.697

@<SCITEGIC>MOL_PROPERTY
VdW
SciTegic.value.DoubleValue
1.281

@<SCITEGIC>MOL_PROPERTY
VdW6
SciTegic.value.DoubleValue
-6.467

@<SCITEGIC>MOL_PROPERTY
VdW12
SciTegic.value.DoubleValue
7.748

@<SCITEGIC>MOL_PROPERTY
Bond
SciTegic.value.DoubleValue
0.136

@<SCITEGIC>MOL_PROPERTY
Angle
SciTegic.value.DoubleValue
2.854

@<SCITEGIC>MOL_PROPERTY
Pdih
SciTegic.value.DoubleValue
4.997

@<SCITEGIC>MOL_PROPERTY
Idih
SciTegic.value.DoubleValue
0.001

@<SCITEGIC>MOL_PROPERTY
Tether
SciTegic.value.DoubleValue
0.000

@<TRIPOS>MOLECULE
guest-s22_confgen4.mol2 : confsearch ligand conformer 444
          20          19           1
SMALL
USER_CHARGES
 
@<TRIPOS>ATOM
       1    C1      20.617098   22.059145   23.449920 C.2        1 MOL1        -0.2535
       2    H1      19.763771   21.780167   24.066022 H          1 MOL1         0.0845
       3    H2      20.979027   23.082832   23.529464 H          1 MOL1         0.0845
       4    C2      21.198355   21.183753   22.625574 C.2        1 MOL1        -0.1324
       5    H3      22.051216   21.483573   22.016992 H          1 MOL1         0.0833
       6    C3      20.752824   19.747449   22.462997 C.3        1 MOL1        -0.1813
       7    H4      20.088423   19.467396   23.290488 H          1 MOL1         0.0753
       8    H5      21.626225   19.084135   22.518822 H          1 MOL1         0.0753
       9    C4      20.029822   19.539984   21.113113 C.3        1 MOL1        -0.1855
      10    H6      19.125872   20.163693   21.080636 H          1 MOL1         0.0755
      11    H7      20.680896   19.895681   20.302764 H          1 MOL1         0.0755
      12    C5      19.655626   18.064891   20.833114 C.3        1 MOL1        -0.1855
      13    H8      20.560101   17.441361   20.855688 H          1 MOL1         0.0755
      14    H9      19.253810   17.991232   19.813006 H          1 MOL1         0.0755
      15    C6      18.607611   17.493357   21.823099 C.3        1 MOL1        -0.1958
      16    H10     19.011430   17.467120   22.841404 H          1 MOL1         0.0753
      17    H11     17.716845   18.132553   21.842082 H          1 MOL1         0.0753
      18    C7      18.167093   16.079071   21.463001 C.2        1 MOL1         0.6174
      19    O1      17.212941   15.946587   20.722207 O.co2      1 MOL1        -0.6695
      20    O2      18.801799   15.147367   21.916642 O.co2      1 MOL1        -0.6695
@<TRIPOS>BOND
    1     1     2    1
    2     1     3    1
    3     1     4    2
    4     4     5    1
    5     4     6    1
    6     6     7    1
    7     6     8    1
    8     6     9    1
    9     9    10    1
   10     9    11    1
   11     9    12    1
   12    12    13    1
   13    12    14    1
   14    12    15    1
   15    15    16    1
   16    15    17    1
   17    15    18    1
   18    18    19    1
   19    18    20    2
@<TRIPOS>SUBSTRUCTURE
       1 MOL1            1 RESIDUE      1      MOL     
@<SCITEGIC>MOL_PROPERTY
VConf Rank
SciTegic.value.IntegerValue
444

@<SCITEGIC>MOL_PROPERTY
Conf_Id
SciTegic.value.IntegerValue
38

@<SCITEGIC>MOL_PROPERTY
Delta U+W
SciTegic.value.DoubleValue
-0.381

@<SCITEGIC>MOL_PROPERTY
U+W
SciTegic.value.DoubleValue
-52.126

@<SCITEGIC>MOL_PROPERTY
Grad RMS
SciTegic.value.DoubleValue
0.000000

@<SCITEGIC>MOL_PROPERTY
U
SciTegic.value.DoubleValue
7.601

@<SCITEGIC>MOL_PROPERTY
W
SciTegic.value.DoubleValue
-59.727

@<SCITEGIC>MOL_PROPERTY
W(PB)
SciTegic.value.DoubleValue
-61.964

@<SCITEGIC>MOL_PROPERTY
W(SA)
SciTegic.value.DoubleValue
2.236

@<SCITEGIC>MOL_PROPERTY
Valence
SciTegic.value.DoubleValue
9.602

@<SCITEGIC>MOL_PROPERTY
Coulomb
SciTegic.value.DoubleValue
-2.686

@<SCITEGIC>MOL_PROPERTY
VdW
SciTegic.value.DoubleValue
0.685

@<SCITEGIC>MOL_PROPERTY
VdW6
SciTegic.value.DoubleValue
-6.453

@<SCITEGIC>MOL_PROPERTY
VdW12
SciTegic.value.DoubleValue
7.139

@<SCITEGIC>MOL_PROPERTY
Bond
SciTegic.value.DoubleValue
0.125

@<SCITEGIC>MOL_PROPERTY
Angle
SciTegic.value.DoubleValue
2.485

@<SCITEGIC>MOL_PROPERTY
Pdih
SciTegic.value.DoubleValue
6.991

@<SCITEGIC>MOL_PROPERTY
Idih
SciTegic.value.DoubleValue
0.001

@<SCITEGIC>MOL_PROPERTY
Tether
SciTegic.value.DoubleValue
0.000

@<TRIPOS>MOLECULE
guest-s22_confgen4.mol2 : confsearch ligand conformer 445
          20          19           1
SMALL
USER_CHARGES
 
@<TRIPOS>ATOM
       1    C1      18.453831   22.434023   21.110065 C.2        1 MOL1        -0.2535
       2    H1      17.525446   22.018346   20.721618 H          1 MOL1         0.0845
       3    H2      18.452420   23.485479   21.392391 H          1 MOL1         0.0845
       4    C2      19.552924   21.686339   21.239013 C.2        1 MOL1        -0.1324
       5    H3      20.471918   22.121660   21.630941 H          1 MOL1         0.0833
       6    C3      19.630632   20.222154   20.867836 C.3        1 MOL1        -0.1813
       7    H4      20.522926   20.046101   20.252254 H          1 MOL1         0.0753
       8    H5      18.763406   19.938398   20.256164 H          1 MOL1         0.0753
       9    C4      19.686583   19.330654   22.126052 C.3        1 MOL1        -0.1855
      10    H6      20.556073   19.614898   22.734842 H          1 MOL1         0.0755
      11    H7      18.794887   19.513067   22.741579 H          1 MOL1         0.0755
      12    C5      19.769302   17.830455   21.764262 C.3        1 MOL1        -0.1855
      13    H8      20.665987   17.642662   21.157314 H          1 MOL1         0.0755
      14    H9      18.904751   17.559461   21.143218 H          1 MOL1         0.0755
      15    C6      19.795853   16.915754   23.016265 C.3        1 MOL1        -0.1958
      16    H10     18.920346   17.111434   23.647182 H          1 MOL1         0.0753
      17    H11     19.734639   15.866344   22.704866 H          1 MOL1         0.0753
      18    C7      21.053352   17.066404   23.867657 C.2        1 MOL1         0.6174
      19    O1      20.969395   17.674743   24.916393 O.co2      1 MOL1        -0.6695
      20    O2      22.082040   16.560856   23.463528 O.co2      1 MOL1        -0.6695
@<TRIPOS>BOND
    1     1     2    1
    2     1     3    1
    3     1     4    2
    4     4     5    1
    5     4     6    1
    6     6     7    1
    7     6     8    1
    8     6     9    1
    9     9    10    1
   10     9    11    1
   11     9    12    1
   12    12    13    1
   13    12    14    1
   14    12    15    1
   15    15    16    1
   16    15    17    1
   17    15    18    1
   18    18    19    1
   19    18    20    2
@<TRIPOS>SUBSTRUCTURE
       1 MOL1            1 RESIDUE      1      MOL     
@<SCITEGIC>MOL_PROPERTY
VConf Rank
SciTegic.value.IntegerValue
445

@<SCITEGIC>MOL_PROPERTY
Conf_Id
SciTegic.value.IntegerValue
58

@<SCITEGIC>MOL_PROPERTY
Delta U+W
SciTegic.value.DoubleValue
0.019

@<SCITEGIC>MOL_PROPERTY
U+W
SciTegic.value.DoubleValue
-51.727

@<SCITEGIC>MOL_PROPERTY
Grad RMS
SciTegic.value.DoubleValue
0.000000

@<SCITEGIC>MOL_PROPERTY
U
SciTegic.value.DoubleValue
8.963

@<SCITEGIC>MOL_PROPERTY
W
SciTegic.value.DoubleValue
-60.690

@<SCITEGIC>MOL_PROPERTY
W(PB)
SciTegic.value.DoubleValue
-62.934

@<SCITEGIC>MOL_PROPERTY
W(SA)
SciTegic.value.DoubleValue
2.244

@<SCITEGIC>MOL_PROPERTY
Valence
SciTegic.value.DoubleValue
9.327

@<SCITEGIC>MOL_PROPERTY
Coulomb
SciTegic.value.DoubleValue
-0.780

@<SCITEGIC>MOL_PROPERTY
VdW
SciTegic.value.DoubleValue
0.417

@<SCITEGIC>MOL_PROPERTY
VdW6
SciTegic.value.DoubleValue
-6.635

@<SCITEGIC>MOL_PROPERTY
VdW12
SciTegic.value.DoubleValue
7.052

@<SCITEGIC>MOL_PROPERTY
Bond
SciTegic.value.DoubleValue
0.105

@<SCITEGIC>MOL_PROPERTY
Angle
SciTegic.value.DoubleValue
2.399

@<SCITEGIC>MOL_PROPERTY
Pdih
SciTegic.value.DoubleValue
6.822

@<SCITEGIC>MOL_PROPERTY
Idih
SciTegic.value.DoubleValue
0.000

@<SCITEGIC>MOL_PROPERTY
Tether
SciTegic.value.DoubleValue
0.000

@<TRIPOS>MOLECULE
guest-s22_confgen4.mol2 : confsearch ligand conformer 446
          20          19           1
SMALL
USER_CHARGES
 
@<TRIPOS>ATOM
       1    C1      16.223047   18.725329   21.895197 C.2        1 MOL1        -0.2535
       2    H1      16.153102   19.110477   20.879153 H          1 MOL1         0.0845
       3    H2      15.315556   18.730947   22.496608 H          1 MOL1         0.0845
       4    C2      17.375500   18.265495   22.389233 C.2        1 MOL1        -0.1324
       5    H3      17.424300   17.885088   23.409316 H          1 MOL1         0.0833
       6    C3      18.674085   18.225653   21.614809 C.3        1 MOL1        -0.1813
       7    H4      18.483100   18.379496   20.544016 H          1 MOL1         0.0753
       8    H5      19.131146   17.232072   21.714902 H          1 MOL1         0.0753
       9    C4      19.658176   19.300732   22.121543 C.3        1 MOL1        -0.1855
      10    H6      19.195678   20.292651   22.024265 H          1 MOL1         0.0755
      11    H7      19.849283   19.143240   23.192107 H          1 MOL1         0.0755
      12    C5      20.992397   19.271646   21.342224 C.3        1 MOL1        -0.1855
      13    H8      20.789927   19.414169   20.272048 H          1 MOL1         0.0755
      14    H9      21.462966   18.284007   21.446285 H          1 MOL1         0.0755
      15    C6      21.984020   20.365481   21.816674 C.3        1 MOL1        -0.1958
      16    H10     22.859466   20.377689   21.156809 H          1 MOL1         0.0753
      17    H11     21.518427   21.355909   21.745017 H          1 MOL1         0.0753
      18    C7      22.490220   20.167133   23.242608 C.2        1 MOL1         0.6174
      19    O1      23.327565   19.308278   23.438355 O.co2      1 MOL1        -0.6695
      20    O2      22.043126   20.882706   24.117268 O.co2      1 MOL1        -0.6695
@<TRIPOS>BOND
    1     1     2    1
    2     1     3    1
    3     1     4    2
    4     4     5    1
    5     4     6    1
    6     6     7    1
    7     6     8    1
    8     6     9    1
    9     9    10    1
   10     9    11    1
   11     9    12    1
   12    12    13    1
   13    12    14    1
   14    12    15    1
   15    15    16    1
   16    15    17    1
   17    15    18    1
   18    18    19    1
   19    18    20    2
@<TRIPOS>SUBSTRUCTURE
       1 MOL1            1 RESIDUE      1      MOL     
@<SCITEGIC>MOL_PROPERTY
VConf Rank
SciTegic.value.IntegerValue
446

@<SCITEGIC>MOL_PROPERTY
Conf_Id
SciTegic.value.IntegerValue
54

@<SCITEGIC>MOL_PROPERTY
Delta U+W
SciTegic.value.DoubleValue
-0.048

@<SCITEGIC>MOL_PROPERTY
U+W
SciTegic.value.DoubleValue
-51.793

@<SCITEGIC>MOL_PROPERTY
Grad RMS
SciTegic.value.DoubleValue
0.000000

@<SCITEGIC>MOL_PROPERTY
U
SciTegic.value.DoubleValue
8.964

@<SCITEGIC>MOL_PROPERTY
W
SciTegic.value.DoubleValue
-60.756

@<SCITEGIC>MOL_PROPERTY
W(PB)
SciTegic.value.DoubleValue
-63.007

@<SCITEGIC>MOL_PROPERTY
W(SA)
SciTegic.value.DoubleValue
2.251

@<SCITEGIC>MOL_PROPERTY
Valence
SciTegic.value.DoubleValue
9.327

@<SCITEGIC>MOL_PROPERTY
Coulomb
SciTegic.value.DoubleValue
-0.780

@<SCITEGIC>MOL_PROPERTY
VdW
SciTegic.value.DoubleValue
0.417

@<SCITEGIC>MOL_PROPERTY
VdW6
SciTegic.value.DoubleValue
-6.635

@<SCITEGIC>MOL_PROPERTY
VdW12
SciTegic.value.DoubleValue
7.052

@<SCITEGIC>MOL_PROPERTY
Bond
SciTegic.value.DoubleValue
0.105

@<SCITEGIC>MOL_PROPERTY
Angle
SciTegic.value.DoubleValue
2.399

@<SCITEGIC>MOL_PROPERTY
Pdih
SciTegic.value.DoubleValue
6.822

@<SCITEGIC>MOL_PROPERTY
Idih
SciTegic.value.DoubleValue
0.000

@<SCITEGIC>MOL_PROPERTY
Tether
SciTegic.value.DoubleValue
0.000

@<TRIPOS>MOLECULE
guest-s22_confgen4.mol2 : confsearch ligand conformer 447
          20          19           1
SMALL
USER_CHARGES
 
@<TRIPOS>ATOM
       1    C1      19.879009   22.383110   21.260990 C.2        1 MOL1        -0.2535
       2    H1      20.479697   22.975793   20.573175 H          1 MOL1         0.0845
       3    H2      18.834333   22.664159   21.384161 H          1 MOL1         0.0845
       4    C2      20.406057   21.350318   21.923736 C.2        1 MOL1        -0.1324
       5    H3      21.454983   21.088237   21.788388 H          1 MOL1         0.0833
       6    C3      19.634952   20.487169   22.899553 C.3        1 MOL1        -0.1813
       7    H4      18.739692   21.024236   23.241018 H          1 MOL1         0.0753
       8    H5      20.241931   20.301246   23.795686 H          1 MOL1         0.0753
       9    C4      19.197432   19.141717   22.277833 C.3        1 MOL1        -0.1855
      10    H6      18.530634   18.628683   22.984345 H          1 MOL1         0.0755
      11    H7      18.605670   19.333013   21.372095 H          1 MOL1         0.0755
      12    C5      20.392074   18.218907   21.938194 C.3        1 MOL1        -0.1855
      13    H8      20.992371   18.039275   22.840863 H          1 MOL1         0.0755
      14    H9      21.049236   18.720810   21.215887 H          1 MOL1         0.0755
      15    C6      19.943712   16.859863   21.340574 C.3        1 MOL1        -0.1958
      16    H10     19.314812   17.023746   20.457138 H          1 MOL1         0.0753
      17    H11     20.823919   16.299511   21.004126 H          1 MOL1         0.0753
      18    C7      19.184632   15.970477   22.321199 C.2        1 MOL1         0.6174
      19    O1      17.979831   15.871899   22.195559 O.co2      1 MOL1        -0.6695
      20    O2      19.821223   15.390796   23.179010 O.co2      1 MOL1        -0.6695
@<TRIPOS>BOND
    1     1     2    1
    2     1     3    1
    3     1     4    2
    4     4     5    1
    5     4     6    1
    6     6     7    1
    7     6     8    1
    8     6     9    1
    9     9    10    1
   10     9    11    1
   11     9    12    1
   12    12    13    1
   13    12    14    1
   14    12    15    1
   15    15    16    1
   16    15    17    1
   17    15    18    1
   18    18    19    1
   19    18    20    2
@<TRIPOS>SUBSTRUCTURE
       1 MOL1            1 RESIDUE      1      MOL     
@<SCITEGIC>MOL_PROPERTY
VConf Rank
SciTegic.value.IntegerValue
447

@<SCITEGIC>MOL_PROPERTY
Conf_Id
SciTegic.value.IntegerValue
27

@<SCITEGIC>MOL_PROPERTY
Delta U+W
SciTegic.value.DoubleValue
0.478

@<SCITEGIC>MOL_PROPERTY
U+W
SciTegic.value.DoubleValue
-51.267

@<SCITEGIC>MOL_PROPERTY
Grad RMS
SciTegic.value.DoubleValue
0.000000

@<SCITEGIC>MOL_PROPERTY
U
SciTegic.value.DoubleValue
9.192

@<SCITEGIC>MOL_PROPERTY
W
SciTegic.value.DoubleValue
-60.459

@<SCITEGIC>MOL_PROPERTY
W(PB)
SciTegic.value.DoubleValue
-62.649

@<SCITEGIC>MOL_PROPERTY
W(SA)
SciTegic.value.DoubleValue
2.190

@<SCITEGIC>MOL_PROPERTY
Valence
SciTegic.value.DoubleValue
9.572

@<SCITEGIC>MOL_PROPERTY
Coulomb
SciTegic.value.DoubleValue
-0.884

@<SCITEGIC>MOL_PROPERTY
VdW
SciTegic.value.DoubleValue
0.504

@<SCITEGIC>MOL_PROPERTY
VdW6
SciTegic.value.DoubleValue
-7.168

@<SCITEGIC>MOL_PROPERTY
VdW12
SciTegic.value.DoubleValue
7.672

@<SCITEGIC>MOL_PROPERTY
Bond
SciTegic.value.DoubleValue
0.127

@<SCITEGIC>MOL_PROPERTY
Angle
SciTegic.value.DoubleValue
2.504

@<SCITEGIC>MOL_PROPERTY
Pdih
SciTegic.value.DoubleValue
6.941

@<SCITEGIC>MOL_PROPERTY
Idih
SciTegic.value.DoubleValue
0.001

@<SCITEGIC>MOL_PROPERTY
Tether
SciTegic.value.DoubleValue
0.000

@<TRIPOS>MOLECULE
guest-s22_confgen4.mol2 : confsearch ligand conformer 448
          20          19           1
SMALL
USER_CHARGES
 
@<TRIPOS>ATOM
       1    C1      22.549237   20.058436   20.730138 C.2        1 MOL1        -0.2535
       2    H1      22.402533   20.215374   19.662732 H          1 MOL1         0.0845
       3    H2      23.560642   19.843298   21.070684 H          1 MOL1         0.0845
       4    C2      21.530277   20.123225   21.591068 C.2        1 MOL1        -0.1324
       5    H3      21.699789   19.965969   22.655883 H          1 MOL1         0.0833
       6    C3      20.101213   20.423481   21.191797 C.3        1 MOL1        -0.1813
       7    H4      20.086086   20.906830   20.205542 H          1 MOL1         0.0753
       8    H5      19.660100   21.143773   21.893694 H          1 MOL1         0.0753
       9    C4      19.227171   19.150445   21.132732 C.3        1 MOL1        -0.1855
      10    H6      18.246838   19.413796   20.712646 H          1 MOL1         0.0755
      11    H7      19.681772   18.427633   20.441220 H          1 MOL1         0.0755
      12    C5      19.025790   18.494731   22.518201 C.3        1 MOL1        -0.1855
      13    H8      18.595164   19.226555   23.215592 H          1 MOL1         0.0755
      14    H9      19.996031   18.190220   22.933639 H          1 MOL1         0.0755
      15    C6      18.099028   17.256600   22.439429 C.3        1 MOL1        -0.1958
      16    H10     17.117681   17.542194   22.042027 H          1 MOL1         0.0753
      17    H11     18.521562   16.510704   21.755534 H          1 MOL1         0.0753
      18    C7      17.885366   16.590319   23.793854 C.2        1 MOL1         0.6174
      19    O1      18.656604   15.713481   24.130022 O.co2      1 MOL1        -0.6695
      20    O2      16.963785   16.977921   24.484615 O.co2      1 MOL1        -0.6695
@<TRIPOS>BOND
    1     1     2    1
    2     1     3    1
    3     1     4    2
    4     4     5    1
    5     4     6    1
    6     6     7    1
    7     6     8    1
    8     6     9    1
    9     9    10    1
   10     9    11    1
   11     9    12    1
   12    12    13    1
   13    12    14    1
   14    12    15    1
   15    15    16    1
   16    15    17    1
   17    15    18    1
   18    18    19    1
   19    18    20    2
@<TRIPOS>SUBSTRUCTURE
       1 MOL1            1 RESIDUE      1      MOL     
@<SCITEGIC>MOL_PROPERTY
VConf Rank
SciTegic.value.IntegerValue
448

@<SCITEGIC>MOL_PROPERTY
Conf_Id
SciTegic.value.IntegerValue
41

@<SCITEGIC>MOL_PROPERTY
Delta U+W
SciTegic.value.DoubleValue
-0.634

@<SCITEGIC>MOL_PROPERTY
U+W
SciTegic.value.DoubleValue
-52.379

@<SCITEGIC>MOL_PROPERTY
Grad RMS
SciTegic.value.DoubleValue
0.000000

@<SCITEGIC>MOL_PROPERTY
U
SciTegic.value.DoubleValue
7.828

@<SCITEGIC>MOL_PROPERTY
W
SciTegic.value.DoubleValue
-60.207

@<SCITEGIC>MOL_PROPERTY
W(PB)
SciTegic.value.DoubleValue
-62.449

@<SCITEGIC>MOL_PROPERTY
W(SA)
SciTegic.value.DoubleValue
2.242

@<SCITEGIC>MOL_PROPERTY
Valence
SciTegic.value.DoubleValue
9.300

@<SCITEGIC>MOL_PROPERTY
Coulomb
SciTegic.value.DoubleValue
-2.080

@<SCITEGIC>MOL_PROPERTY
VdW
SciTegic.value.DoubleValue
0.608

@<SCITEGIC>MOL_PROPERTY
VdW6
SciTegic.value.DoubleValue
-6.341

@<SCITEGIC>MOL_PROPERTY
VdW12
SciTegic.value.DoubleValue
6.949

@<SCITEGIC>MOL_PROPERTY
Bond
SciTegic.value.DoubleValue
0.103

@<SCITEGIC>MOL_PROPERTY
Angle
SciTegic.value.DoubleValue
2.334

@<SCITEGIC>MOL_PROPERTY
Pdih
SciTegic.value.DoubleValue
6.862

@<SCITEGIC>MOL_PROPERTY
Idih
SciTegic.value.DoubleValue
0.001

@<SCITEGIC>MOL_PROPERTY
Tether
SciTegic.value.DoubleValue
0.000

@<TRIPOS>MOLECULE
guest-s22_confgen4.mol2 : confsearch ligand conformer 449
          20          19           1
SMALL
USER_CHARGES
 
@<TRIPOS>ATOM
       1    C1      16.957709   20.593248   22.375416 C.2        1 MOL1        -0.2535
       2    H1      15.874187   20.522583   22.454319 H          1 MOL1         0.0845
       3    H2      17.420910   21.534838   22.665941 H          1 MOL1         0.0845
       4    C2      17.686730   19.562030   21.940866 C.2        1 MOL1        -0.1324
       5    H3      17.203921   18.627630   21.655459 H          1 MOL1         0.0833
       6    C3      19.192795   19.586080   21.803796 C.3        1 MOL1        -0.1813
       7    H4      19.563299   20.618540   21.859717 H          1 MOL1         0.0753
       8    H5      19.469848   19.200524   20.814077 H          1 MOL1         0.0753
       9    C4      19.863792   18.736413   22.906068 C.3        1 MOL1        -0.1855
      10    H6      19.496737   19.072595   23.885563 H          1 MOL1         0.0755
      11    H7      19.551343   17.688076   22.803003 H          1 MOL1         0.0755
      12    C5      21.409775   18.826473   22.901727 C.3        1 MOL1        -0.1855
      13    H8      21.799371   18.259508   23.758554 H          1 MOL1         0.0755
      14    H9      21.711723   19.870433   23.061039 H          1 MOL1         0.0755
      15    C6      22.080498   18.294592   21.605713 C.3        1 MOL1        -0.1958
      16    H10     21.770826   18.887825   20.737852 H          1 MOL1         0.0753
      17    H11     23.167757   18.408527   21.686903 H          1 MOL1         0.0753
      18    C7      21.798805   16.822782   21.317332 C.2        1 MOL1         0.6174
      19    O1      22.336539   15.988877   22.019364 O.co2      1 MOL1        -0.6695
      20    O2      21.064637   16.548002   20.388652 O.co2      1 MOL1        -0.6695
@<TRIPOS>BOND
    1     1     2    1
    2     1     3    1
    3     1     4    2
    4     4     5    1
    5     4     6    1
    6     6     7    1
    7     6     8    1
    8     6     9    1
    9     9    10    1
   10     9    11    1
   11     9    12    1
   12    12    13    1
   13    12    14    1
   14    12    15    1
   15    15    16    1
   16    15    17    1
   17    15    18    1
   18    18    19    1
   19    18    20    2
@<TRIPOS>SUBSTRUCTURE
       1 MOL1            1 RESIDUE      1      MOL     
@<SCITEGIC>MOL_PROPERTY
VConf Rank
SciTegic.value.IntegerValue
449

@<SCITEGIC>MOL_PROPERTY
Conf_Id
SciTegic.value.IntegerValue
84

@<SCITEGIC>MOL_PROPERTY
Delta U+W
SciTegic.value.DoubleValue
0.942

@<SCITEGIC>MOL_PROPERTY
U+W
SciTegic.value.DoubleValue
-50.803

@<SCITEGIC>MOL_PROPERTY
Grad RMS
SciTegic.value.DoubleValue
0.000000

@<SCITEGIC>MOL_PROPERTY
U
SciTegic.value.DoubleValue
10.196

@<SCITEGIC>MOL_PROPERTY
W
SciTegic.value.DoubleValue
-60.999

@<SCITEGIC>MOL_PROPERTY
W(PB)
SciTegic.value.DoubleValue
-63.182

@<SCITEGIC>MOL_PROPERTY
W(SA)
SciTegic.value.DoubleValue
2.182

@<SCITEGIC>MOL_PROPERTY
Valence
SciTegic.value.DoubleValue
9.837

@<SCITEGIC>MOL_PROPERTY
Coulomb
SciTegic.value.DoubleValue
0.032

@<SCITEGIC>MOL_PROPERTY
VdW
SciTegic.value.DoubleValue
0.328

@<SCITEGIC>MOL_PROPERTY
VdW6
SciTegic.value.DoubleValue
-7.642

@<SCITEGIC>MOL_PROPERTY
VdW12
SciTegic.value.DoubleValue
7.969

@<SCITEGIC>MOL_PROPERTY
Bond
SciTegic.value.DoubleValue
0.151

@<SCITEGIC>MOL_PROPERTY
Angle
SciTegic.value.DoubleValue
2.748

@<SCITEGIC>MOL_PROPERTY
Pdih
SciTegic.value.DoubleValue
6.937

@<SCITEGIC>MOL_PROPERTY
Idih
SciTegic.value.DoubleValue
0.001

@<SCITEGIC>MOL_PROPERTY
Tether
SciTegic.value.DoubleValue
0.000

@<TRIPOS>MOLECULE
guest-s22_confgen4.mol2 : confsearch ligand conformer 450
          20          19           1
SMALL
USER_CHARGES
 
@<TRIPOS>ATOM
       1    C1      16.784375   17.263152   21.931123 C.2        1 MOL1        -0.2535
       2    H1      15.722974   17.231657   21.690917 H          1 MOL1         0.0845
       3    H2      17.409005   16.458096   21.547321 H          1 MOL1         0.0845
       4    C2      17.296536   18.253743   22.666027 C.2        1 MOL1        -0.1324
       5    H3      16.654019   19.050628   23.039903 H          1 MOL1         0.0833
       6    C3      18.757926   18.363627   23.040100 C.3        1 MOL1        -0.1813
       7    H4      19.271625   17.411242   22.850721 H          1 MOL1         0.0753
       8    H5      18.847493   18.562565   24.116428 H          1 MOL1         0.0753
       9    C4      19.453511   19.488888   22.245738 C.3        1 MOL1        -0.1855
      10    H6      19.354504   19.286785   21.170084 H          1 MOL1         0.0755
      11    H7      18.942790   20.442463   22.437849 H          1 MOL1         0.0755
      12    C5      20.947715   19.616643   22.619056 C.3        1 MOL1        -0.1855
      13    H8      21.464743   18.668649   22.414850 H          1 MOL1         0.0755
      14    H9      21.037131   19.799331   23.698501 H          1 MOL1         0.0755
      15    C6      21.657599   20.763771   21.854173 C.3        1 MOL1        -0.1958
      16    H10     21.136575   21.713360   22.026413 H          1 MOL1         0.0753
      17    H11     22.676425   20.886092   22.240186 H          1 MOL1         0.0753
      18    C7      21.764568   20.532725   20.349490 C.2        1 MOL1         0.6174
      19    O1      21.027371   21.162069   19.616389 O.co2      1 MOL1        -0.6695
      20    O2      22.592690   19.737925   19.949972 O.co2      1 MOL1        -0.6695
@<TRIPOS>BOND
    1     1     2    1
    2     1     3    1
    3     1     4    2
    4     4     5    1
    5     4     6    1
    6     6     7    1
    7     6     8    1
    8     6     9    1
    9     9    10    1
   10     9    11    1
   11     9    12    1
   12    12    13    1
   13    12    14    1
   14    12    15    1
   15    15    16    1
   16    15    17    1
   17    15    18    1
   18    18    19    1
   19    18    20    2
@<TRIPOS>SUBSTRUCTURE
       1 MOL1            1 RESIDUE      1      MOL     
@<SCITEGIC>MOL_PROPERTY
VConf Rank
SciTegic.value.IntegerValue
450

@<SCITEGIC>MOL_PROPERTY
Conf_Id
SciTegic.value.IntegerValue
81

@<SCITEGIC>MOL_PROPERTY
Delta U+W
SciTegic.value.DoubleValue
-0.051

@<SCITEGIC>MOL_PROPERTY
U+W
SciTegic.value.DoubleValue
-51.796

@<SCITEGIC>MOL_PROPERTY
Grad RMS
SciTegic.value.DoubleValue
0.000000

@<SCITEGIC>MOL_PROPERTY
U
SciTegic.value.DoubleValue
9.412

@<SCITEGIC>MOL_PROPERTY
W
SciTegic.value.DoubleValue
-61.209

@<SCITEGIC>MOL_PROPERTY
W(PB)
SciTegic.value.DoubleValue
-63.452

@<SCITEGIC>MOL_PROPERTY
W(SA)
SciTegic.value.DoubleValue
2.243

@<SCITEGIC>MOL_PROPERTY
Valence
SciTegic.value.DoubleValue
9.329

@<SCITEGIC>MOL_PROPERTY
Coulomb
SciTegic.value.DoubleValue
-0.323

@<SCITEGIC>MOL_PROPERTY
VdW
SciTegic.value.DoubleValue
0.406

@<SCITEGIC>MOL_PROPERTY
VdW6
SciTegic.value.DoubleValue
-6.640

@<SCITEGIC>MOL_PROPERTY
VdW12
SciTegic.value.DoubleValue
7.046

@<SCITEGIC>MOL_PROPERTY
Bond
SciTegic.value.DoubleValue
0.105

@<SCITEGIC>MOL_PROPERTY
Angle
SciTegic.value.DoubleValue
2.401

@<SCITEGIC>MOL_PROPERTY
Pdih
SciTegic.value.DoubleValue
6.823

@<SCITEGIC>MOL_PROPERTY
Idih
SciTegic.value.DoubleValue
0.000

@<SCITEGIC>MOL_PROPERTY
Tether
SciTegic.value.DoubleValue
0.000

@<TRIPOS>MOLECULE
guest-s22_confgen4.mol2 : confsearch ligand conformer 451
          20          19           1
SMALL
USER_CHARGES
 
@<TRIPOS>ATOM
       1    C1      18.849552   16.800290   19.878481 C.2        1 MOL1        -0.2535
       2    H1      17.956915   17.141866   19.356959 H          1 MOL1         0.0845
       3    H2      19.407613   15.979156   19.431883 H          1 MOL1         0.0845
       4    C2      19.249357   17.365920   21.020364 C.2        1 MOL1        -0.1324
       5    H3      20.144482   17.007396   21.527745 H          1 MOL1         0.0833
       6    C3      18.522944   18.505665   21.702149 C.3        1 MOL1        -0.1813
       7    H4      18.444389   18.311321   22.779643 H          1 MOL1         0.0753
       8    H5      17.490318   18.560508   21.332159 H          1 MOL1         0.0753
       9    C4      19.205522   19.872634   21.456813 C.3        1 MOL1        -0.1855
      10    H6      19.194533   20.084931   20.379017 H          1 MOL1         0.0755
      11    H7      18.602929   20.661058   21.928237 H          1 MOL1         0.0755
      12    C5      20.665471   19.969568   21.969886 C.3        1 MOL1        -0.1855
      13    H8      21.060154   20.964508   21.721890 H          1 MOL1         0.0755
      14    H9      21.293077   19.250371   21.427151 H          1 MOL1         0.0755
      15    C6      20.826912   19.736513   23.496913 C.3        1 MOL1        -0.1958
      16    H10     20.511982   18.722499   23.768271 H          1 MOL1         0.0753
      17    H11     21.886705   19.814493   23.765921 H          1 MOL1         0.0753
      18    C7      20.063496   20.734037   24.363334 C.2        1 MOL1         0.6174
      19    O1      19.081335   20.343178   24.963063 O.co2      1 MOL1        -0.6695
      20    O2      20.482542   21.873129   24.429139 O.co2      1 MOL1        -0.6695
@<TRIPOS>BOND
    1     1     2    1
    2     1     3    1
    3     1     4    2
    4     4     5    1
    5     4     6    1
    6     6     7    1
    7     6     8    1
    8     6     9    1
    9     9    10    1
   10     9    11    1
   11     9    12    1
   12    12    13    1
   13    12    14    1
   14    12    15    1
   15    15    16    1
   16    15    17    1
   17    15    18    1
   18    18    19    1
   19    18    20    2
@<TRIPOS>SUBSTRUCTURE
       1 MOL1            1 RESIDUE      1      MOL     
@<SCITEGIC>MOL_PROPERTY
VConf Rank
SciTegic.value.IntegerValue
451

@<SCITEGIC>MOL_PROPERTY
Conf_Id
SciTegic.value.IntegerValue
86

@<SCITEGIC>MOL_PROPERTY
Delta U+W
SciTegic.value.DoubleValue
1.248

@<SCITEGIC>MOL_PROPERTY
U+W
SciTegic.value.DoubleValue
-50.498

@<SCITEGIC>MOL_PROPERTY
Grad RMS
SciTegic.value.DoubleValue
0.000000

@<SCITEGIC>MOL_PROPERTY
U
SciTegic.value.DoubleValue
10.404

@<SCITEGIC>MOL_PROPERTY
W
SciTegic.value.DoubleValue
-60.901

@<SCITEGIC>MOL_PROPERTY
W(PB)
SciTegic.value.DoubleValue
-63.061

@<SCITEGIC>MOL_PROPERTY
W(SA)
SciTegic.value.DoubleValue
2.159

@<SCITEGIC>MOL_PROPERTY
Valence
SciTegic.value.DoubleValue
10.021

@<SCITEGIC>MOL_PROPERTY
Coulomb
SciTegic.value.DoubleValue
0.094

@<SCITEGIC>MOL_PROPERTY
VdW
SciTegic.value.DoubleValue
0.289

@<SCITEGIC>MOL_PROPERTY
VdW6
SciTegic.value.DoubleValue
-8.409

@<SCITEGIC>MOL_PROPERTY
VdW12
SciTegic.value.DoubleValue
8.698

@<SCITEGIC>MOL_PROPERTY
Bond
SciTegic.value.DoubleValue
0.179

@<SCITEGIC>MOL_PROPERTY
Angle
SciTegic.value.DoubleValue
2.939

@<SCITEGIC>MOL_PROPERTY
Pdih
SciTegic.value.DoubleValue
6.902

@<SCITEGIC>MOL_PROPERTY
Idih
SciTegic.value.DoubleValue
0.001

@<SCITEGIC>MOL_PROPERTY
Tether
SciTegic.value.DoubleValue
0.000

@<TRIPOS>MOLECULE
guest-s22_confgen4.mol2 : confsearch ligand conformer 452
          20          19           1
SMALL
USER_CHARGES
 
@<TRIPOS>ATOM
       1    C1      19.184690   19.463558   18.979523 C.2        1 MOL1        -0.2535
       2    H1      19.720173   19.694557   18.060283 H          1 MOL1         0.0845
       3    H2      18.614276   18.536604   19.007923 H          1 MOL1         0.0845
       4    C2      19.231110   20.286201   20.030774 C.2        1 MOL1        -0.1324
       5    H3      19.809847   21.208223   19.982524 H          1 MOL1         0.0833
       6    C3      18.514646   20.032617   21.340136 C.3        1 MOL1        -0.1813
       7    H4      17.803045   19.202122   21.237367 H          1 MOL1         0.0753
       8    H5      17.920792   20.918603   21.601266 H          1 MOL1         0.0753
       9    C4      19.494735   19.731576   22.496363 C.3        1 MOL1        -0.1855
      10    H6      20.209261   20.559940   22.597293 H          1 MOL1         0.0755
      11    H7      18.928354   19.690709   23.436870 H          1 MOL1         0.0755
      12    C5      20.259332   18.401054   22.299635 C.3        1 MOL1        -0.1855
      13    H8      20.831433   18.443116   21.363153 H          1 MOL1         0.0755
      14    H9      19.544292   17.573344   22.194914 H          1 MOL1         0.0755
      15    C6      21.233738   18.094785   23.466582 C.3        1 MOL1        -0.1958
      16    H10     21.834600   17.211654   23.219631 H          1 MOL1         0.0753
      17    H11     21.934270   18.927440   23.603394 H          1 MOL1         0.0753
      18    C7      20.540474   17.817294   24.797412 C.2        1 MOL1         0.6174
      19    O1      20.011904   16.733947   24.952657 O.co2      1 MOL1        -0.6695
      20    O2      20.556733   18.685813   25.647410 O.co2      1 MOL1        -0.6695
@<TRIPOS>BOND
    1     1     2    1
    2     1     3    1
    3     1     4    2
    4     4     5    1
    5     4     6    1
    6     6     7    1
    7     6     8    1
    8     6     9    1
    9     9    10    1
   10     9    11    1
   11     9    12    1
   12    12    13    1
   13    12    14    1
   14    12    15    1
   15    15    16    1
   16    15    17    1
   17    15    18    1
   18    18    19    1
   19    18    20    2
@<TRIPOS>SUBSTRUCTURE
       1 MOL1            1 RESIDUE      1      MOL     
@<SCITEGIC>MOL_PROPERTY
VConf Rank
SciTegic.value.IntegerValue
452

@<SCITEGIC>MOL_PROPERTY
Conf_Id
SciTegic.value.IntegerValue
28

@<SCITEGIC>MOL_PROPERTY
Delta U+W
SciTegic.value.DoubleValue
0.446

@<SCITEGIC>MOL_PROPERTY
U+W
SciTegic.value.DoubleValue
-51.299

@<SCITEGIC>MOL_PROPERTY
Grad RMS
SciTegic.value.DoubleValue
0.000000

@<SCITEGIC>MOL_PROPERTY
U
SciTegic.value.DoubleValue
9.295

@<SCITEGIC>MOL_PROPERTY
W
SciTegic.value.DoubleValue
-60.594

@<SCITEGIC>MOL_PROPERTY
W(PB)
SciTegic.value.DoubleValue
-62.806

@<SCITEGIC>MOL_PROPERTY
W(SA)
SciTegic.value.DoubleValue
2.212

@<SCITEGIC>MOL_PROPERTY
Valence
SciTegic.value.DoubleValue
9.495

@<SCITEGIC>MOL_PROPERTY
Coulomb
SciTegic.value.DoubleValue
-0.610

@<SCITEGIC>MOL_PROPERTY
VdW
SciTegic.value.DoubleValue
0.409

@<SCITEGIC>MOL_PROPERTY
VdW6
SciTegic.value.DoubleValue
-7.332

@<SCITEGIC>MOL_PROPERTY
VdW12
SciTegic.value.DoubleValue
7.741

@<SCITEGIC>MOL_PROPERTY
Bond
SciTegic.value.DoubleValue
0.126

@<SCITEGIC>MOL_PROPERTY
Angle
SciTegic.value.DoubleValue
2.497

@<SCITEGIC>MOL_PROPERTY
Pdih
SciTegic.value.DoubleValue
6.872

@<SCITEGIC>MOL_PROPERTY
Idih
SciTegic.value.DoubleValue
0.000

@<SCITEGIC>MOL_PROPERTY
Tether
SciTegic.value.DoubleValue
0.000

@<TRIPOS>MOLECULE
guest-s22_confgen4.mol2 : confsearch ligand conformer 453
          20          19           1
SMALL
USER_CHARGES
 
@<TRIPOS>ATOM
       1    C1      21.141663   19.955228   19.405378 C.2        1 MOL1        -0.2535
       2    H1      20.687874   18.971337   19.307765 H          1 MOL1         0.0845
       3    H2      21.530511   20.409345   18.495590 H          1 MOL1         0.0845
       4    C2      21.224167   20.594904   20.577548 C.2        1 MOL1        -0.1324
       5    H3      21.688107   21.580365   20.611713 H          1 MOL1         0.0833
       6    C3      20.731176   20.092134   21.924262 C.3        1 MOL1        -0.1813
       7    H4      19.959709   20.781895   22.289951 H          1 MOL1         0.0753
       8    H5      21.556238   20.155424   22.646079 H          1 MOL1         0.0753
       9    C4      20.176958   18.645963   21.918601 C.3        1 MOL1        -0.1855
      10    H6      19.294432   18.591445   21.266413 H          1 MOL1         0.0755
      11    H7      20.931028   17.975595   21.484229 H          1 MOL1         0.0755
      12    C5      19.815166   18.117765   23.328982 C.3        1 MOL1        -0.1855
      13    H8      20.713588   18.128099   23.960741 H          1 MOL1         0.0755
      14    H9      19.511455   17.065142   23.244406 H          1 MOL1         0.0755
      15    C6      18.682555   18.906386   24.041672 C.3        1 MOL1        -0.1958
      16    H10     18.504491   18.469931   25.031348 H          1 MOL1         0.0753
      17    H11     18.982304   19.946660   24.211608 H          1 MOL1         0.0753
      18    C7      17.350917   18.896465   23.296322 C.2        1 MOL1         0.6174
      19    O1      16.724991   17.855287   23.256112 O.co2      1 MOL1        -0.6695
      20    O2      16.964375   19.933375   22.794067 O.co2      1 MOL1        -0.6695
@<TRIPOS>BOND
    1     1     2    1
    2     1     3    1
    3     1     4    2
    4     4     5    1
    5     4     6    1
    6     6     7    1
    7     6     8    1
    8     6     9    1
    9     9    10    1
   10     9    11    1
   11     9    12    1
   12    12    13    1
   13    12    14    1
   14    12    15    1
   15    15    16    1
   16    15    17    1
   17    15    18    1
   18    18    19    1
   19    18    20    2
@<TRIPOS>SUBSTRUCTURE
       1 MOL1            1 RESIDUE      1      MOL     
@<SCITEGIC>MOL_PROPERTY
VConf Rank
SciTegic.value.IntegerValue
453

@<SCITEGIC>MOL_PROPERTY
Conf_Id
SciTegic.value.IntegerValue
53

@<SCITEGIC>MOL_PROPERTY
Delta U+W
SciTegic.value.DoubleValue
0.549

@<SCITEGIC>MOL_PROPERTY
U+W
SciTegic.value.DoubleValue
-51.197

@<SCITEGIC>MOL_PROPERTY
Grad RMS
SciTegic.value.DoubleValue
0.000000

@<SCITEGIC>MOL_PROPERTY
U
SciTegic.value.DoubleValue
10.870

@<SCITEGIC>MOL_PROPERTY
W
SciTegic.value.DoubleValue
-62.067

@<SCITEGIC>MOL_PROPERTY
W(PB)
SciTegic.value.DoubleValue
-64.228

@<SCITEGIC>MOL_PROPERTY
W(SA)
SciTegic.value.DoubleValue
2.161

@<SCITEGIC>MOL_PROPERTY
Valence
SciTegic.value.DoubleValue
8.803

@<SCITEGIC>MOL_PROPERTY
Coulomb
SciTegic.value.DoubleValue
1.020

@<SCITEGIC>MOL_PROPERTY
VdW
SciTegic.value.DoubleValue
1.048

@<SCITEGIC>MOL_PROPERTY
VdW6
SciTegic.value.DoubleValue
-8.312

@<SCITEGIC>MOL_PROPERTY
VdW12
SciTegic.value.DoubleValue
9.360

@<SCITEGIC>MOL_PROPERTY
Bond
SciTegic.value.DoubleValue
0.212

@<SCITEGIC>MOL_PROPERTY
Angle
SciTegic.value.DoubleValue
3.379

@<SCITEGIC>MOL_PROPERTY
Pdih
SciTegic.value.DoubleValue
5.211

@<SCITEGIC>MOL_PROPERTY
Idih
SciTegic.value.DoubleValue
0.001

@<SCITEGIC>MOL_PROPERTY
Tether
SciTegic.value.DoubleValue
0.000

@<TRIPOS>MOLECULE
guest-s22_confgen4.mol2 : confsearch ligand conformer 454
          20          19           1
SMALL
USER_CHARGES
 
@<TRIPOS>ATOM
       1    C1      22.486971   18.625478   22.237187 C.2        1 MOL1        -0.2535
       2    H1      22.410525   19.617249   21.796908 H          1 MOL1         0.0845
       3    H2      23.382836   18.050985   22.008479 H          1 MOL1         0.0845
       4    C2      21.534683   18.123401   23.030737 C.2        1 MOL1        -0.1324
       5    H3      21.662094   17.125179   23.448617 H          1 MOL1         0.0833
       6    C3      20.237136   18.808339   23.427123 C.3        1 MOL1        -0.1813
       7    H4      20.362606   19.249422   24.424672 H          1 MOL1         0.0753
       8    H5      19.456277   18.047681   23.554550 H          1 MOL1         0.0753
       9    C4      19.719648   19.896163   22.450077 C.3        1 MOL1        -0.1855
      10    H6      18.824179   20.359830   22.885950 H          1 MOL1         0.0755
      11    H7      20.461477   20.701993   22.374909 H          1 MOL1         0.0755
      12    C5      19.375649   19.381619   21.027486 C.3        1 MOL1        -0.1855
      13    H8      20.279593   18.981209   20.550925 H          1 MOL1         0.0755
      14    H9      19.059620   20.235000   20.411949 H          1 MOL1         0.0755
      15    C6      18.262464   18.299320   20.985438 C.3        1 MOL1        -0.1958
      16    H10     18.091941   17.994989   19.946270 H          1 MOL1         0.0753
      17    H11     18.579695   17.398734   21.523315 H          1 MOL1         0.0753
      18    C7      16.921759   18.760483   21.549587 C.2        1 MOL1         0.6174
      19    O1      16.559947   18.308722   22.618307 O.co2      1 MOL1        -0.6695
      20    O2      16.265469   19.546992   20.895221 O.co2      1 MOL1        -0.6695
@<TRIPOS>BOND
    1     1     2    1
    2     1     3    1
    3     1     4    2
    4     4     5    1
    5     4     6    1
    6     6     7    1
    7     6     8    1
    8     6     9    1
    9     9    10    1
   10     9    11    1
   11     9    12    1
   12    12    13    1
   13    12    14    1
   14    12    15    1
   15    15    16    1
   16    15    17    1
   17    15    18    1
   18    18    19    1
   19    18    20    2
@<TRIPOS>SUBSTRUCTURE
       1 MOL1            1 RESIDUE      1      MOL     
@<SCITEGIC>MOL_PROPERTY
VConf Rank
SciTegic.value.IntegerValue
454

@<SCITEGIC>MOL_PROPERTY
Conf_Id
SciTegic.value.IntegerValue
66

@<SCITEGIC>MOL_PROPERTY
Delta U+W
SciTegic.value.DoubleValue
1.737

@<SCITEGIC>MOL_PROPERTY
U+W
SciTegic.value.DoubleValue
-50.008

@<SCITEGIC>MOL_PROPERTY
Grad RMS
SciTegic.value.DoubleValue
0.000000

@<SCITEGIC>MOL_PROPERTY
U
SciTegic.value.DoubleValue
11.091

@<SCITEGIC>MOL_PROPERTY
W
SciTegic.value.DoubleValue
-61.099

@<SCITEGIC>MOL_PROPERTY
W(PB)
SciTegic.value.DoubleValue
-63.213

@<SCITEGIC>MOL_PROPERTY
W(SA)
SciTegic.value.DoubleValue
2.114

@<SCITEGIC>MOL_PROPERTY
Valence
SciTegic.value.DoubleValue
9.664

@<SCITEGIC>MOL_PROPERTY
Coulomb
SciTegic.value.DoubleValue
0.658

@<SCITEGIC>MOL_PROPERTY
VdW
SciTegic.value.DoubleValue
0.769

@<SCITEGIC>MOL_PROPERTY
VdW6
SciTegic.value.DoubleValue
-9.171

@<SCITEGIC>MOL_PROPERTY
VdW12
SciTegic.value.DoubleValue
9.940

@<SCITEGIC>MOL_PROPERTY
Bond
SciTegic.value.DoubleValue
0.244

@<SCITEGIC>MOL_PROPERTY
Angle
SciTegic.value.DoubleValue
3.658

@<SCITEGIC>MOL_PROPERTY
Pdih
SciTegic.value.DoubleValue
5.762

@<SCITEGIC>MOL_PROPERTY
Idih
SciTegic.value.DoubleValue
0.001

@<SCITEGIC>MOL_PROPERTY
Tether
SciTegic.value.DoubleValue
0.000

@<TRIPOS>MOLECULE
guest-s22_confgen4.mol2 : confsearch ligand conformer 455
          20          19           1
SMALL
USER_CHARGES
 
@<TRIPOS>ATOM
       1    C1      20.500999   21.454158   22.822996 C.2        1 MOL1        -0.2535
       2    H1      19.467180   21.691905   22.582417 H          1 MOL1         0.0845
       3    H2      20.944745   21.979373   23.666900 H          1 MOL1         0.0845
       4    C2      21.210174   20.563989   22.120466 C.2        1 MOL1        -0.1324
       5    H3      22.243509   20.365820   22.403816 H          1 MOL1         0.0833
       6    C3      20.721930   19.756254   20.928920 C.3        1 MOL1        -0.1813
       7    H4      21.201929   18.769902   20.947877 H          1 MOL1         0.0753
       8    H5      21.091266   20.230073   20.009861 H          1 MOL1         0.0753
       9    C4      19.186069   19.566867   20.821299 C.3        1 MOL1        -0.1855
      10    H6      18.702192   20.549349   20.743292 H          1 MOL1         0.0755
      11    H7      18.960633   19.050297   19.878450 H          1 MOL1         0.0755
      12    C5      18.548081   18.770697   21.988254 C.3        1 MOL1        -0.1855
      13    H8      17.457327   18.770407   21.856208 H          1 MOL1         0.0755
      14    H9      18.741479   19.276345   22.943511 H          1 MOL1         0.0755
      15    C6      19.037898   17.302001   22.077295 C.3        1 MOL1        -0.1958
      16    H10     18.898186   16.796557   21.114405 H          1 MOL1         0.0753
      17    H11     20.107560   17.266913   22.312741 H          1 MOL1         0.0753
      18    C7      18.301352   16.498418   23.143127 C.2        1 MOL1         0.6174
      19    O1      18.770724   16.463039   24.263480 O.co2      1 MOL1        -0.6695
      20    O2      17.268866   15.940014   22.828340 O.co2      1 MOL1        -0.6695
@<TRIPOS>BOND
    1     1     2    1
    2     1     3    1
    3     1     4    2
    4     4     5    1
    5     4     6    1
    6     6     7    1
    7     6     8    1
    8     6     9    1
    9     9    10    1
   10     9    11    1
   11     9    12    1
   12    12    13    1
   13    12    14    1
   14    12    15    1
   15    15    16    1
   16    15    17    1
   17    15    18    1
   18    18    19    1
   19    18    20    2
@<TRIPOS>SUBSTRUCTURE
       1 MOL1            1 RESIDUE      1      MOL     
@<SCITEGIC>MOL_PROPERTY
VConf Rank
SciTegic.value.IntegerValue
455

@<SCITEGIC>MOL_PROPERTY
Conf_Id
SciTegic.value.IntegerValue
64

@<SCITEGIC>MOL_PROPERTY
Delta U+W
SciTegic.value.DoubleValue
0.366

@<SCITEGIC>MOL_PROPERTY
U+W
SciTegic.value.DoubleValue
-51.379

@<SCITEGIC>MOL_PROPERTY
Grad RMS
SciTegic.value.DoubleValue
0.000000

@<SCITEGIC>MOL_PROPERTY
U
SciTegic.value.DoubleValue
10.000

@<SCITEGIC>MOL_PROPERTY
W
SciTegic.value.DoubleValue
-61.379

@<SCITEGIC>MOL_PROPERTY
W(PB)
SciTegic.value.DoubleValue
-63.541

@<SCITEGIC>MOL_PROPERTY
W(SA)
SciTegic.value.DoubleValue
2.162

@<SCITEGIC>MOL_PROPERTY
Valence
SciTegic.value.DoubleValue
9.398

@<SCITEGIC>MOL_PROPERTY
Coulomb
SciTegic.value.DoubleValue
-0.504

@<SCITEGIC>MOL_PROPERTY
VdW
SciTegic.value.DoubleValue
1.105

@<SCITEGIC>MOL_PROPERTY
VdW6
SciTegic.value.DoubleValue
-7.975

@<SCITEGIC>MOL_PROPERTY
VdW12
SciTegic.value.DoubleValue
9.080

@<SCITEGIC>MOL_PROPERTY
Bond
SciTegic.value.DoubleValue
0.216

@<SCITEGIC>MOL_PROPERTY
Angle
SciTegic.value.DoubleValue
3.417

@<SCITEGIC>MOL_PROPERTY
Pdih
SciTegic.value.DoubleValue
5.765

@<SCITEGIC>MOL_PROPERTY
Idih
SciTegic.value.DoubleValue
0.001

@<SCITEGIC>MOL_PROPERTY
Tether
SciTegic.value.DoubleValue
0.000

@<TRIPOS>MOLECULE
guest-s22_confgen4.mol2 : confsearch ligand conformer 456
          20          19           1
SMALL
USER_CHARGES
 
@<TRIPOS>ATOM
       1    C1      20.870128   16.364186   22.763443 C.2        1 MOL1        -0.2535
       2    H1      21.537683   16.837416   23.481663 H          1 MOL1         0.0845
       3    H2      21.256256   15.512620   22.205910 H          1 MOL1         0.0845
       4    C2      19.626515   16.810606   22.568124 C.2        1 MOL1        -0.1324
       5    H3      18.975145   16.324153   21.842539 H          1 MOL1         0.0833
       6    C3      19.021047   17.987146   23.303747 C.3        1 MOL1        -0.1813
       7    H4      19.658503   18.285369   24.147185 H          1 MOL1         0.0753
       8    H5      18.058284   17.683212   23.735668 H          1 MOL1         0.0753
       9    C4      18.790302   19.201816   22.376777 C.3        1 MOL1        -0.1855
      10    H6      18.153292   18.903260   21.532878 H          1 MOL1         0.0755
      11    H7      18.236790   19.971477   22.931871 H          1 MOL1         0.0755
      12    C5      20.110449   19.807605   21.847801 C.3        1 MOL1        -0.1855
      13    H8      20.661428   19.054682   21.267491 H          1 MOL1         0.0755
      14    H9      20.753029   20.089726   22.693250 H          1 MOL1         0.0755
      15    C6      19.858803   21.050145   20.958537 C.3        1 MOL1        -0.1958
      16    H10     19.228354   20.781218   20.102500 H          1 MOL1         0.0753
      17    H11     19.323643   21.820563   21.526468 H          1 MOL1         0.0753
      18    C7      21.146841   21.665944   20.423892 C.2        1 MOL1         0.6174
      19    O1      21.705279   22.505937   21.101614 O.co2      1 MOL1        -0.6695
      20    O2      21.565356   21.279534   19.350475 O.co2      1 MOL1        -0.6695
@<TRIPOS>BOND
    1     1     2    1
    2     1     3    1
    3     1     4    2
    4     4     5    1
    5     4     6    1
    6     6     7    1
    7     6     8    1
    8     6     9    1
    9     9    10    1
   10     9    11    1
   11     9    12    1
   12    12    13    1
   13    12    14    1
   14    12    15    1
   15    15    16    1
   16    15    17    1
   17    15    18    1
   18    18    19    1
   19    18    20    2
@<TRIPOS>SUBSTRUCTURE
       1 MOL1            1 RESIDUE      1      MOL     
@<SCITEGIC>MOL_PROPERTY
VConf Rank
SciTegic.value.IntegerValue
456

@<SCITEGIC>MOL_PROPERTY
Conf_Id
SciTegic.value.IntegerValue
42

@<SCITEGIC>MOL_PROPERTY
Delta U+W
SciTegic.value.DoubleValue
-0.601

@<SCITEGIC>MOL_PROPERTY
U+W
SciTegic.value.DoubleValue
-52.347

@<SCITEGIC>MOL_PROPERTY
Grad RMS
SciTegic.value.DoubleValue
0.000000

@<SCITEGIC>MOL_PROPERTY
U
SciTegic.value.DoubleValue
8.428

@<SCITEGIC>MOL_PROPERTY
W
SciTegic.value.DoubleValue
-60.774

@<SCITEGIC>MOL_PROPERTY
W(PB)
SciTegic.value.DoubleValue
-62.982

@<SCITEGIC>MOL_PROPERTY
W(SA)
SciTegic.value.DoubleValue
2.208

@<SCITEGIC>MOL_PROPERTY
Valence
SciTegic.value.DoubleValue
9.231

@<SCITEGIC>MOL_PROPERTY
Coulomb
SciTegic.value.DoubleValue
-1.304

@<SCITEGIC>MOL_PROPERTY
VdW
SciTegic.value.DoubleValue
0.501

@<SCITEGIC>MOL_PROPERTY
VdW6
SciTegic.value.DoubleValue
-6.515

@<SCITEGIC>MOL_PROPERTY
VdW12
SciTegic.value.DoubleValue
7.016

@<SCITEGIC>MOL_PROPERTY
Bond
SciTegic.value.DoubleValue
0.103

@<SCITEGIC>MOL_PROPERTY
Angle
SciTegic.value.DoubleValue
2.328

@<SCITEGIC>MOL_PROPERTY
Pdih
SciTegic.value.DoubleValue
6.799

@<SCITEGIC>MOL_PROPERTY
Idih
SciTegic.value.DoubleValue
0.000

@<SCITEGIC>MOL_PROPERTY
Tether
SciTegic.value.DoubleValue
0.000

@<TRIPOS>MOLECULE
guest-s22_confgen4.mol2 : confsearch ligand conformer 457
          20          19           1
SMALL
USER_CHARGES
 
@<TRIPOS>ATOM
       1    C1      18.573294   19.577090   24.856221 C.2        1 MOL1        -0.2535
       2    H1      19.556199   19.606473   25.323586 H          1 MOL1         0.0845
       3    H2      17.776316   19.069352   25.396706 H          1 MOL1         0.0845
       4    C2      18.350808   20.137466   23.664373 C.2        1 MOL1        -0.1324
       5    H3      17.360126   20.094353   23.212602 H          1 MOL1         0.0833
       6    C3      19.407265   20.857937   22.853988 C.3        1 MOL1        -0.1813
       7    H4      20.309717   21.025930   23.457287 H          1 MOL1         0.0753
       8    H5      19.030968   21.851472   22.576321 H          1 MOL1         0.0753
       9    C4      19.782375   20.089783   21.566668 C.3        1 MOL1        -0.1855
      10    H6      18.879429   19.928807   20.961595 H          1 MOL1         0.0755
      11    H7      20.455754   20.714040   20.963671 H          1 MOL1         0.0755
      12    C5      20.470289   18.735312   21.858989 C.3        1 MOL1        -0.1855
      13    H8      19.791126   18.084101   22.426453 H          1 MOL1         0.0755
      14    H9      21.348655   18.905743   22.495902 H          1 MOL1         0.0755
      15    C6      20.918189   18.003378   20.567292 C.3        1 MOL1        -0.1958
      16    H10     21.578875   18.648362   19.975501 H          1 MOL1         0.0753
      17    H11     21.499416   17.112805   20.833834 H          1 MOL1         0.0753
      18    C7      19.762498   17.546826   19.681431 C.2        1 MOL1         0.6174
      19    O1      19.513964   18.191450   18.681503 O.co2      1 MOL1        -0.6695
      20    O2      19.152706   16.546871   20.005991 O.co2      1 MOL1        -0.6695
@<TRIPOS>BOND
    1     1     2    1
    2     1     3    1
    3     1     4    2
    4     4     5    1
    5     4     6    1
    6     6     7    1
    7     6     8    1
    8     6     9    1
    9     9    10    1
   10     9    11    1
   11     9    12    1
   12    12    13    1
   13    12    14    1
   14    12    15    1
   15    15    16    1
   16    15    17    1
   17    15    18    1
   18    18    19    1
   19    18    20    2
@<TRIPOS>SUBSTRUCTURE
       1 MOL1            1 RESIDUE      1      MOL     
@<SCITEGIC>MOL_PROPERTY
VConf Rank
SciTegic.value.IntegerValue
457

@<SCITEGIC>MOL_PROPERTY
Conf_Id
SciTegic.value.IntegerValue
68

@<SCITEGIC>MOL_PROPERTY
Delta U+W
SciTegic.value.DoubleValue
0.492

@<SCITEGIC>MOL_PROPERTY
U+W
SciTegic.value.DoubleValue
-51.253

@<SCITEGIC>MOL_PROPERTY
Grad RMS
SciTegic.value.DoubleValue
0.000000

@<SCITEGIC>MOL_PROPERTY
U
SciTegic.value.DoubleValue
10.179

@<SCITEGIC>MOL_PROPERTY
W
SciTegic.value.DoubleValue
-61.432

@<SCITEGIC>MOL_PROPERTY
W(PB)
SciTegic.value.DoubleValue
-63.627

@<SCITEGIC>MOL_PROPERTY
W(SA)
SciTegic.value.DoubleValue
2.195

@<SCITEGIC>MOL_PROPERTY
Valence
SciTegic.value.DoubleValue
9.483

@<SCITEGIC>MOL_PROPERTY
Coulomb
SciTegic.value.DoubleValue
0.361

@<SCITEGIC>MOL_PROPERTY
VdW
SciTegic.value.DoubleValue
0.335

@<SCITEGIC>MOL_PROPERTY
VdW6
SciTegic.value.DoubleValue
-7.385

@<SCITEGIC>MOL_PROPERTY
VdW12
SciTegic.value.DoubleValue
7.720

@<SCITEGIC>MOL_PROPERTY
Bond
SciTegic.value.DoubleValue
0.125

@<SCITEGIC>MOL_PROPERTY
Angle
SciTegic.value.DoubleValue
2.487

@<SCITEGIC>MOL_PROPERTY
Pdih
SciTegic.value.DoubleValue
6.870

@<SCITEGIC>MOL_PROPERTY
Idih
SciTegic.value.DoubleValue
0.001

@<SCITEGIC>MOL_PROPERTY
Tether
SciTegic.value.DoubleValue
0.000

@<TRIPOS>MOLECULE
guest-s22_confgen4.mol2 : confsearch ligand conformer 458
          20          19           1
SMALL
USER_CHARGES
 
@<TRIPOS>ATOM
       1    C1      18.171514   16.447882   21.694847 C.2        1 MOL1        -0.2535
       2    H1      17.159395   16.665663   22.032007 H          1 MOL1         0.0845
       3    H2      18.545412   15.437523   21.851541 H          1 MOL1         0.0845
       4    C2      18.929380   17.381933   21.114431 C.2        1 MOL1        -0.1324
       5    H3      19.938860   17.141821   20.781952 H          1 MOL1         0.0833
       6    C3      18.475427   18.803339   20.858869 C.3        1 MOL1        -0.1813
       7    H4      17.378878   18.854641   20.897182 H          1 MOL1         0.0753
       8    H5      18.762136   19.110898   19.844372 H          1 MOL1         0.0753
       9    C4      19.053790   19.799515   21.889068 C.3        1 MOL1        -0.1855
      10    H6      18.588364   20.782036   21.731665 H          1 MOL1         0.0755
      11    H7      18.772661   19.478930   22.901881 H          1 MOL1         0.0755
      12    C5      20.590906   19.944097   21.788574 C.3        1 MOL1        -0.1855
      13    H8      20.862827   20.216431   20.759884 H          1 MOL1         0.0755
      14    H9      21.074211   18.980400   21.999577 H          1 MOL1         0.0755
      15    C6      21.152103   21.016471   22.758071 C.3        1 MOL1        -0.1958
      16    H10     22.221683   21.160762   22.565240 H          1 MOL1         0.0753
      17    H11     20.664221   21.982249   22.579162 H          1 MOL1         0.0753
      18    C7      20.997921   20.659209   24.233683 C.2        1 MOL1         0.6174
      19    O1      21.771252   19.852174   24.710924 O.co2      1 MOL1        -0.6695
      20    O2      20.122530   21.210817   24.871291 O.co2      1 MOL1        -0.6695
@<TRIPOS>BOND
    1     1     2    1
    2     1     3    1
    3     1     4    2
    4     4     5    1
    5     4     6    1
    6     6     7    1
    7     6     8    1
    8     6     9    1
    9     9    10    1
   10     9    11    1
   11     9    12    1
   12    12    13    1
   13    12    14    1
   14    12    15    1
   15    15    16    1
   16    15    17    1
   17    15    18    1
   18    18    19    1
   19    18    20    2
@<TRIPOS>SUBSTRUCTURE
       1 MOL1            1 RESIDUE      1      MOL     
@<SCITEGIC>MOL_PROPERTY
VConf Rank
SciTegic.value.IntegerValue
458

@<SCITEGIC>MOL_PROPERTY
Conf_Id
SciTegic.value.IntegerValue
87

@<SCITEGIC>MOL_PROPERTY
Delta U+W
SciTegic.value.DoubleValue
0.339

@<SCITEGIC>MOL_PROPERTY
U+W
SciTegic.value.DoubleValue
-51.407

@<SCITEGIC>MOL_PROPERTY
Grad RMS
SciTegic.value.DoubleValue
0.000000

@<SCITEGIC>MOL_PROPERTY
U
SciTegic.value.DoubleValue
10.461

@<SCITEGIC>MOL_PROPERTY
W
SciTegic.value.DoubleValue
-61.867

@<SCITEGIC>MOL_PROPERTY
W(PB)
SciTegic.value.DoubleValue
-64.045

@<SCITEGIC>MOL_PROPERTY
W(SA)
SciTegic.value.DoubleValue
2.178

@<SCITEGIC>MOL_PROPERTY
Valence
SciTegic.value.DoubleValue
9.555

@<SCITEGIC>MOL_PROPERTY
Coulomb
SciTegic.value.DoubleValue
0.483

@<SCITEGIC>MOL_PROPERTY
VdW
SciTegic.value.DoubleValue
0.423

@<SCITEGIC>MOL_PROPERTY
VdW6
SciTegic.value.DoubleValue
-7.223

@<SCITEGIC>MOL_PROPERTY
VdW12
SciTegic.value.DoubleValue
7.646

@<SCITEGIC>MOL_PROPERTY
Bond
SciTegic.value.DoubleValue
0.126

@<SCITEGIC>MOL_PROPERTY
Angle
SciTegic.value.DoubleValue
2.492

@<SCITEGIC>MOL_PROPERTY
Pdih
SciTegic.value.DoubleValue
6.936

@<SCITEGIC>MOL_PROPERTY
Idih
SciTegic.value.DoubleValue
0.001

@<SCITEGIC>MOL_PROPERTY
Tether
SciTegic.value.DoubleValue
0.000

@<TRIPOS>MOLECULE
guest-s22_confgen4.mol2 : confsearch ligand conformer 459
          20          19           1
SMALL
USER_CHARGES
 
@<TRIPOS>ATOM
       1    C1      22.140420   17.805858   22.433783 C.2        1 MOL1        -0.2535
       2    H1      22.026744   16.777124   22.095846 H          1 MOL1         0.0845
       3    H2      23.102213   18.286768   22.264373 H          1 MOL1         0.0845
       4    C2      21.138515   18.455913   23.031551 C.2        1 MOL1        -0.1324
       5    H3      21.274504   19.482154   23.370851 H          1 MOL1         0.0833
       6    C3      19.781374   17.845854   23.310124 C.3        1 MOL1        -0.1813
       7    H4      19.261353   18.415573   24.091747 H          1 MOL1         0.0753
       8    H5      19.930817   16.839722   23.724579 H          1 MOL1         0.0753
       9    C4      18.884308   17.730177   22.052723 C.3        1 MOL1        -0.1855
      10    H6      19.466125   17.328735   21.211730 H          1 MOL1         0.0755
      11    H7      18.104788   16.985078   22.262275 H          1 MOL1         0.0755
      12    C5      18.177752   19.043584   21.632202 C.3        1 MOL1        -0.1855
      13    H8      17.608318   19.449319   22.479648 H          1 MOL1         0.0755
      14    H9      17.440580   18.803916   20.853340 H          1 MOL1         0.0755
      15    C6      19.133269   20.132653   21.080678 C.3        1 MOL1        -0.1958
      16    H10     19.789340   20.506210   21.873209 H          1 MOL1         0.0753
      17    H11     19.773799   19.713606   20.295538 H          1 MOL1         0.0753
      18    C7      18.390118   21.329396   20.498304 C.2        1 MOL1         0.6174
      19    O1      18.097488   22.242435   21.245041 O.co2      1 MOL1        -0.6695
      20    O2      18.104529   21.308234   19.317256 O.co2      1 MOL1        -0.6695
@<TRIPOS>BOND
    1     1     2    1
    2     1     3    1
    3     1     4    2
    4     4     5    1
    5     4     6    1
    6     6     7    1
    7     6     8    1
    8     6     9    1
    9     9    10    1
   10     9    11    1
   11     9    12    1
   12    12    13    1
   13    12    14    1
   14    12    15    1
   15    15    16    1
   16    15    17    1
   17    15    18    1
   18    18    19    1
   19    18    20    2
@<TRIPOS>SUBSTRUCTURE
       1 MOL1            1 RESIDUE      1      MOL     
@<SCITEGIC>MOL_PROPERTY
VConf Rank
SciTegic.value.IntegerValue
459

@<SCITEGIC>MOL_PROPERTY
Conf_Id
SciTegic.value.IntegerValue
51

@<SCITEGIC>MOL_PROPERTY
Delta U+W
SciTegic.value.DoubleValue
1.709

@<SCITEGIC>MOL_PROPERTY
U+W
SciTegic.value.DoubleValue
-50.036

@<SCITEGIC>MOL_PROPERTY
Grad RMS
SciTegic.value.DoubleValue
0.000000

@<SCITEGIC>MOL_PROPERTY
U
SciTegic.value.DoubleValue
10.643

@<SCITEGIC>MOL_PROPERTY
W
SciTegic.value.DoubleValue
-60.679

@<SCITEGIC>MOL_PROPERTY
W(PB)
SciTegic.value.DoubleValue
-62.882

@<SCITEGIC>MOL_PROPERTY
W(SA)
SciTegic.value.DoubleValue
2.203

@<SCITEGIC>MOL_PROPERTY
Valence
SciTegic.value.DoubleValue
11.231

@<SCITEGIC>MOL_PROPERTY
Coulomb
SciTegic.value.DoubleValue
-1.077

@<SCITEGIC>MOL_PROPERTY
VdW
SciTegic.value.DoubleValue
0.489

@<SCITEGIC>MOL_PROPERTY
VdW6
SciTegic.value.DoubleValue
-7.546

@<SCITEGIC>MOL_PROPERTY
VdW12
SciTegic.value.DoubleValue
8.035

@<SCITEGIC>MOL_PROPERTY
Bond
SciTegic.value.DoubleValue
0.159

@<SCITEGIC>MOL_PROPERTY
Angle
SciTegic.value.DoubleValue
3.005

@<SCITEGIC>MOL_PROPERTY
Pdih
SciTegic.value.DoubleValue
8.065

@<SCITEGIC>MOL_PROPERTY
Idih
SciTegic.value.DoubleValue
0.002

@<SCITEGIC>MOL_PROPERTY
Tether
SciTegic.value.DoubleValue
0.000

@<TRIPOS>MOLECULE
guest-s22_confgen4.mol2 : confsearch ligand conformer 460
          20          19           1
SMALL
USER_CHARGES
 
@<TRIPOS>ATOM
       1    C1      16.909963   18.391401   21.500838 C.2        1 MOL1        -0.2535
       2    H1      16.994190   17.455169   20.951482 H          1 MOL1         0.0845
       3    H2      16.095752   19.061215   21.229857 H          1 MOL1         0.0845
       4    C2      17.773241   18.709365   22.469013 C.2        1 MOL1        -0.1324
       5    H3      17.667107   19.646918   23.013553 H          1 MOL1         0.0833
       6    C3      18.919071   17.821684   22.905702 C.3        1 MOL1        -0.1813
       7    H4      18.544837   16.793683   23.003527 H          1 MOL1         0.0753
       8    H5      19.262979   18.109931   23.907988 H          1 MOL1         0.0753
       9    C4      20.111312   17.817739   21.916906 C.3        1 MOL1        -0.1855
      10    H6      20.710399   16.918514   22.114960 H          1 MOL1         0.0755
      11    H7      19.744545   17.714161   20.886525 H          1 MOL1         0.0755
      12    C5      21.053401   19.043184   22.025799 C.3        1 MOL1        -0.1855
      13    H8      21.945688   18.846886   21.415242 H          1 MOL1         0.0755
      14    H9      21.406934   19.151864   23.060324 H          1 MOL1         0.0755
      15    C6      20.421432   20.376784   21.551039 C.3        1 MOL1        -0.1958
      16    H10     19.981089   20.254692   20.554287 H          1 MOL1         0.0753
      17    H11     19.618175   20.684493   22.227926 H          1 MOL1         0.0753
      18    C7      21.430136   21.517884   21.487585 C.2        1 MOL1         0.6174
      19    O1      21.606047   22.185055   22.487999 O.co2      1 MOL1        -0.6695
      20    O2      22.028945   21.697155   20.445390 O.co2      1 MOL1        -0.6695
@<TRIPOS>BOND
    1     1     2    1
    2     1     3    1
    3     1     4    2
    4     4     5    1
    5     4     6    1
    6     6     7    1
    7     6     8    1
    8     6     9    1
    9     9    10    1
   10     9    11    1
   11     9    12    1
   12    12    13    1
   13    12    14    1
   14    12    15    1
   15    15    16    1
   16    15    17    1
   17    15    18    1
   18    18    19    1
   19    18    20    2
@<TRIPOS>SUBSTRUCTURE
       1 MOL1            1 RESIDUE      1      MOL     
@<SCITEGIC>MOL_PROPERTY
VConf Rank
SciTegic.value.IntegerValue
460

@<SCITEGIC>MOL_PROPERTY
Conf_Id
SciTegic.value.IntegerValue
91

@<SCITEGIC>MOL_PROPERTY
Delta U+W
SciTegic.value.DoubleValue
1.604

@<SCITEGIC>MOL_PROPERTY
U+W
SciTegic.value.DoubleValue
-50.141

@<SCITEGIC>MOL_PROPERTY
Grad RMS
SciTegic.value.DoubleValue
0.000000

@<SCITEGIC>MOL_PROPERTY
U
SciTegic.value.DoubleValue
10.644

@<SCITEGIC>MOL_PROPERTY
W
SciTegic.value.DoubleValue
-60.786

@<SCITEGIC>MOL_PROPERTY
W(PB)
SciTegic.value.DoubleValue
-62.965

@<SCITEGIC>MOL_PROPERTY
W(SA)
SciTegic.value.DoubleValue
2.179

@<SCITEGIC>MOL_PROPERTY
Valence
SciTegic.value.DoubleValue
11.230

@<SCITEGIC>MOL_PROPERTY
Coulomb
SciTegic.value.DoubleValue
-1.075

@<SCITEGIC>MOL_PROPERTY
VdW
SciTegic.value.DoubleValue
0.489

@<SCITEGIC>MOL_PROPERTY
VdW6
SciTegic.value.DoubleValue
-7.547

@<SCITEGIC>MOL_PROPERTY
VdW12
SciTegic.value.DoubleValue
8.036

@<SCITEGIC>MOL_PROPERTY
Bond
SciTegic.value.DoubleValue
0.159

@<SCITEGIC>MOL_PROPERTY
Angle
SciTegic.value.DoubleValue
3.006

@<SCITEGIC>MOL_PROPERTY
Pdih
SciTegic.value.DoubleValue
8.064

@<SCITEGIC>MOL_PROPERTY
Idih
SciTegic.value.DoubleValue
0.002

@<SCITEGIC>MOL_PROPERTY
Tether
SciTegic.value.DoubleValue
0.000

@<TRIPOS>MOLECULE
guest-s22_confgen4.mol2 : confsearch ligand conformer 461
          20          19           1
SMALL
USER_CHARGES
 
@<TRIPOS>ATOM
       1    C1      20.451513   22.263579   20.258880 C.2        1 MOL1        -0.2535
       2    H1      19.375948   22.376751   20.132617 H          1 MOL1         0.0845
       3    H2      21.096815   22.862618   19.618555 H          1 MOL1         0.0845
       4    C2      20.963374   21.422153   21.160906 C.2        1 MOL1        -0.1324
       5    H3      22.043087   21.323218   21.270856 H          1 MOL1         0.0833
       6    C3      20.131312   20.560089   22.084032 C.3        1 MOL1        -0.1813
       7    H4      19.088966   20.906882   22.091508 H          1 MOL1         0.0753
       8    H5      20.503856   20.657150   23.112591 H          1 MOL1         0.0753
       9    C4      20.176938   19.078745   21.654604 C.3        1 MOL1        -0.1855
      10    H6      19.807290   18.987791   20.623841 H          1 MOL1         0.0755
      11    H7      21.219184   18.731075   21.651704 H          1 MOL1         0.0755
      12    C5      19.334249   18.183248   22.588989 C.3        1 MOL1        -0.1855
      13    H8      18.291539   18.530077   22.592035 H          1 MOL1         0.0755
      14    H9      19.702657   18.274731   23.620217 H          1 MOL1         0.0755
      15    C6      19.379825   16.693580   22.156310 C.3        1 MOL1        -0.1958
      16    H10     19.007372   16.594094   21.130009 H          1 MOL1         0.0753
      17    H11     20.417158   16.338830   22.157175 H          1 MOL1         0.0753
      18    C7      18.569401   15.735231   23.030435 C.2        1 MOL1         0.6174
      19    O1      18.581951   14.559750   22.723472 O.co2      1 MOL1        -0.6695
      20    O2      17.950640   16.166348   23.984333 O.co2      1 MOL1        -0.6695
@<TRIPOS>BOND
    1     1     2    1
    2     1     3    1
    3     1     4    2
    4     4     5    1
    5     4     6    1
    6     6     7    1
    7     6     8    1
    8     6     9    1
    9     9    10    1
   10     9    11    1
   11     9    12    1
   12    12    13    1
   13    12    14    1
   14    12    15    1
   15    15    16    1
   16    15    17    1
   17    15    18    1
   18    18    19    1
   19    18    20    2
@<TRIPOS>SUBSTRUCTURE
       1 MOL1            1 RESIDUE      1      MOL     
@<SCITEGIC>MOL_PROPERTY
VConf Rank
SciTegic.value.IntegerValue
461

@<SCITEGIC>MOL_PROPERTY
Conf_Id
SciTegic.value.IntegerValue
33

@<SCITEGIC>MOL_PROPERTY
Delta U+W
SciTegic.value.DoubleValue
0.000

@<SCITEGIC>MOL_PROPERTY
U+W
SciTegic.value.DoubleValue
-51.745

@<SCITEGIC>MOL_PROPERTY
Grad RMS
SciTegic.value.DoubleValue
0.000000

@<SCITEGIC>MOL_PROPERTY
U
SciTegic.value.DoubleValue
7.593

@<SCITEGIC>MOL_PROPERTY
W
SciTegic.value.DoubleValue
-59.338

@<SCITEGIC>MOL_PROPERTY
W(PB)
SciTegic.value.DoubleValue
-61.574

@<SCITEGIC>MOL_PROPERTY
W(SA)
SciTegic.value.DoubleValue
2.236

@<SCITEGIC>MOL_PROPERTY
Valence
SciTegic.value.DoubleValue
9.570

@<SCITEGIC>MOL_PROPERTY
Coulomb
SciTegic.value.DoubleValue
-3.091

@<SCITEGIC>MOL_PROPERTY
VdW
SciTegic.value.DoubleValue
1.114

@<SCITEGIC>MOL_PROPERTY
VdW6
SciTegic.value.DoubleValue
-6.064

@<SCITEGIC>MOL_PROPERTY
VdW12
SciTegic.value.DoubleValue
7.178

@<SCITEGIC>MOL_PROPERTY
Bond
SciTegic.value.DoubleValue
0.117

@<SCITEGIC>MOL_PROPERTY
Angle
SciTegic.value.DoubleValue
2.692

@<SCITEGIC>MOL_PROPERTY
Pdih
SciTegic.value.DoubleValue
6.761

@<SCITEGIC>MOL_PROPERTY
Idih
SciTegic.value.DoubleValue
0.000

@<SCITEGIC>MOL_PROPERTY
Tether
SciTegic.value.DoubleValue
0.000

@<TRIPOS>MOLECULE
guest-s22_confgen4.mol2 : confsearch ligand conformer 462
          20          19           1
SMALL
USER_CHARGES
 
@<TRIPOS>ATOM
       1    C1      21.928492   20.467947   19.453749 C.2        1 MOL1        -0.2535
       2    H1      21.233377   20.184142   18.665176 H          1 MOL1         0.0845
       3    H2      22.908494   20.832414   19.150403 H          1 MOL1         0.0845
       4    C2      21.596887   20.371926   20.743900 C.2        1 MOL1        -0.1324
       5    H3      22.307756   20.660457   21.517881 H          1 MOL1         0.0833
       6    C3      20.256852   19.876335   21.240309 C.3        1 MOL1        -0.1813
       7    H4      19.530540   19.856457   20.416494 H          1 MOL1         0.0753
       8    H5      19.868489   20.578184   21.989063 H          1 MOL1         0.0753
       9    C4      20.380076   18.462589   21.851821 C.3        1 MOL1        -0.1855
      10    H6      20.848985   17.797701   21.113317 H          1 MOL1         0.0755
      11    H7      21.056947   18.491679   22.716687 H          1 MOL1         0.0755
      12    C5      19.022323   17.851975   22.273529 C.3        1 MOL1        -0.1855
      13    H8      19.186549   16.812272   22.589034 H          1 MOL1         0.0755
      14    H9      18.348714   17.809942   21.406421 H          1 MOL1         0.0755
      15    C6      18.330743   18.619875   23.429825 C.3        1 MOL1        -0.1958
      16    H10     19.009615   18.705649   24.286656 H          1 MOL1         0.0753
      17    H11     18.070601   19.637366   23.117126 H          1 MOL1         0.0753
      18    C7      17.051894   17.940401   23.906093 C.2        1 MOL1         0.6174
      19    O1      16.007444   18.235744   23.359646 O.co2      1 MOL1        -0.6695
      20    O2      17.136587   17.118995   24.797638 O.co2      1 MOL1        -0.6695
@<TRIPOS>BOND
    1     1     2    1
    2     1     3    1
    3     1     4    2
    4     4     5    1
    5     4     6    1
    6     6     7    1
    7     6     8    1
    8     6     9    1
    9     9    10    1
   10     9    11    1
   11     9    12    1
   12    12    13    1
   13    12    14    1
   14    12    15    1
   15    15    16    1
   16    15    17    1
   17    15    18    1
   18    18    19    1
   19    18    20    2
@<TRIPOS>SUBSTRUCTURE
       1 MOL1            1 RESIDUE      1      MOL     
@<SCITEGIC>MOL_PROPERTY
VConf Rank
SciTegic.value.IntegerValue
462

@<SCITEGIC>MOL_PROPERTY
Conf_Id
SciTegic.value.IntegerValue
37

@<SCITEGIC>MOL_PROPERTY
Delta U+W
SciTegic.value.DoubleValue
-0.384

@<SCITEGIC>MOL_PROPERTY
U+W
SciTegic.value.DoubleValue
-52.130

@<SCITEGIC>MOL_PROPERTY
Grad RMS
SciTegic.value.DoubleValue
0.000000

@<SCITEGIC>MOL_PROPERTY
U
SciTegic.value.DoubleValue
7.491

@<SCITEGIC>MOL_PROPERTY
W
SciTegic.value.DoubleValue
-59.621

@<SCITEGIC>MOL_PROPERTY
W(PB)
SciTegic.value.DoubleValue
-61.853

@<SCITEGIC>MOL_PROPERTY
W(SA)
SciTegic.value.DoubleValue
2.232

@<SCITEGIC>MOL_PROPERTY
Valence
SciTegic.value.DoubleValue
9.604

@<SCITEGIC>MOL_PROPERTY
Coulomb
SciTegic.value.DoubleValue
-2.799

@<SCITEGIC>MOL_PROPERTY
VdW
SciTegic.value.DoubleValue
0.686

@<SCITEGIC>MOL_PROPERTY
VdW6
SciTegic.value.DoubleValue
-6.435

@<SCITEGIC>MOL_PROPERTY
VdW12
SciTegic.value.DoubleValue
7.121

@<SCITEGIC>MOL_PROPERTY
Bond
SciTegic.value.DoubleValue
0.124

@<SCITEGIC>MOL_PROPERTY
Angle
SciTegic.value.DoubleValue
2.493

@<SCITEGIC>MOL_PROPERTY
Pdih
SciTegic.value.DoubleValue
6.986

@<SCITEGIC>MOL_PROPERTY
Idih
SciTegic.value.DoubleValue
0.001

@<SCITEGIC>MOL_PROPERTY
Tether
SciTegic.value.DoubleValue
0.000

@<TRIPOS>MOLECULE
guest-s22_confgen4.mol2 : confsearch ligand conformer 463
          20          19           1
SMALL
USER_CHARGES
 
@<TRIPOS>ATOM
       1    C1      20.297653   21.650138   23.902251 C.2        1 MOL1        -0.2535
       2    H1      20.464000   22.495679   24.567517 H          1 MOL1         0.0845
       3    H2      20.202727   21.871586   22.841357 H          1 MOL1         0.0845
       4    C2      20.216761   20.405536   24.386333 C.2        1 MOL1        -0.1324
       5    H3      20.319760   20.246666   25.459543 H          1 MOL1         0.0833
       6    C3      19.988983   19.133100   23.587559 C.3        1 MOL1        -0.1813
       7    H4      19.092028   18.630231   23.973215 H          1 MOL1         0.0753
       8    H5      20.821075   18.442451   23.779292 H          1 MOL1         0.0753
       9    C4      19.839900   19.336250   22.061621 C.3        1 MOL1        -0.1855
      10    H6      18.995483   20.010161   21.861891 H          1 MOL1         0.0755
      11    H7      20.743280   19.820369   21.665868 H          1 MOL1         0.0755
      12    C5      19.612017   17.997795   21.325667 C.3        1 MOL1        -0.1855
      13    H8      18.709412   17.508300   21.717212 H          1 MOL1         0.0755
      14    H9      20.453633   17.318901   21.521598 H          1 MOL1         0.0755
      15    C6      19.462432   18.198552   19.797464 C.3        1 MOL1        -0.1958
      16    H10     18.617313   18.863911   19.583751 H          1 MOL1         0.0753
      17    H11     20.361569   18.674602   19.388157 H          1 MOL1         0.0753
      18    C7      19.236417   16.890425   19.047992 C.2        1 MOL1         0.6174
      19    O1      18.093373   16.508015   18.893522 O.co2      1 MOL1        -0.6695
      20    O2      20.210242   16.278474   18.655784 O.co2      1 MOL1        -0.6695
@<TRIPOS>BOND
    1     1     2    1
    2     1     3    1
    3     1     4    2
    4     4     5    1
    5     4     6    1
    6     6     7    1
    7     6     8    1
    8     6     9    1
    9     9    10    1
   10     9    11    1
   11     9    12    1
   12    12    13    1
   13    12    14    1
   14    12    15    1
   15    15    16    1
   16    15    17    1
   17    15    18    1
   18    18    19    1
   19    18    20    2
@<TRIPOS>SUBSTRUCTURE
       1 MOL1            1 RESIDUE      1      MOL     
@<SCITEGIC>MOL_PROPERTY
VConf Rank
SciTegic.value.IntegerValue
463

@<SCITEGIC>MOL_PROPERTY
Conf_Id
SciTegic.value.IntegerValue
44

@<SCITEGIC>MOL_PROPERTY
Delta U+W
SciTegic.value.DoubleValue
-1.440

@<SCITEGIC>MOL_PROPERTY
U+W
SciTegic.value.DoubleValue
-53.185

@<SCITEGIC>MOL_PROPERTY
Grad RMS
SciTegic.value.DoubleValue
0.000000

@<SCITEGIC>MOL_PROPERTY
U
SciTegic.value.DoubleValue
6.572

@<SCITEGIC>MOL_PROPERTY
W
SciTegic.value.DoubleValue
-59.757

@<SCITEGIC>MOL_PROPERTY
W(PB)
SciTegic.value.DoubleValue
-62.007

@<SCITEGIC>MOL_PROPERTY
W(SA)
SciTegic.value.DoubleValue
2.249

@<SCITEGIC>MOL_PROPERTY
Valence
SciTegic.value.DoubleValue
7.989

@<SCITEGIC>MOL_PROPERTY
Coulomb
SciTegic.value.DoubleValue
-2.697

@<SCITEGIC>MOL_PROPERTY
VdW
SciTegic.value.DoubleValue
1.281

@<SCITEGIC>MOL_PROPERTY
VdW6
SciTegic.value.DoubleValue
-6.467

@<SCITEGIC>MOL_PROPERTY
VdW12
SciTegic.value.DoubleValue
7.748

@<SCITEGIC>MOL_PROPERTY
Bond
SciTegic.value.DoubleValue
0.136

@<SCITEGIC>MOL_PROPERTY
Angle
SciTegic.value.DoubleValue
2.854

@<SCITEGIC>MOL_PROPERTY
Pdih
SciTegic.value.DoubleValue
4.997

@<SCITEGIC>MOL_PROPERTY
Idih
SciTegic.value.DoubleValue
0.001

@<SCITEGIC>MOL_PROPERTY
Tether
SciTegic.value.DoubleValue
0.000

@<TRIPOS>MOLECULE
guest-s22_confgen4.mol2 : confsearch ligand conformer 464
          20          19           1
SMALL
USER_CHARGES
 
@<TRIPOS>ATOM
       1    C1      21.339821   16.585459   20.071469 C.2        1 MOL1        -0.2535
       2    H1      20.578325   15.983245   20.564459 H          1 MOL1         0.0845
       3    H2      22.151328   16.057425   19.573583 H          1 MOL1         0.0845
       4    C2      21.285793   17.919913   20.077181 C.2        1 MOL1        -0.1324
       5    H3      22.058639   18.504091   19.578101 H          1 MOL1         0.0833
       6    C3      20.190775   18.721291   20.745480 C.3        1 MOL1        -0.1813
       7    H4      19.338409   18.068941   20.974637 H          1 MOL1         0.0753
       8    H5      19.824456   19.490503   20.052620 H          1 MOL1         0.0753
       9    C4      20.704446   19.391600   22.039617 C.3        1 MOL1        -0.1855
      10    H6      21.019968   18.618492   22.753720 H          1 MOL1         0.0755
      11    H7      21.601810   19.979786   21.803272 H          1 MOL1         0.0755
      12    C5      19.665399   20.324305   22.706524 C.3        1 MOL1        -0.1855
      13    H8      19.356137   21.103877   21.996598 H          1 MOL1         0.0755
      14    H9      20.146755   20.843657   23.546805 H          1 MOL1         0.0755
      15    C6      18.412642   19.578201   23.234716 C.3        1 MOL1        -0.1958
      16    H10     17.856047   19.123263   22.407712 H          1 MOL1         0.0753
      17    H11     18.711487   18.768374   23.910932 H          1 MOL1         0.0753
      18    C7      17.455495   20.494553   23.988440 C.2        1 MOL1         0.6174
      19    O1      17.610031   20.624601   25.186747 O.co2      1 MOL1        -0.6695
      20    O2      16.593021   21.069769   23.354423 O.co2      1 MOL1        -0.6695
@<TRIPOS>BOND
    1     1     2    1
    2     1     3    1
    3     1     4    2
    4     4     5    1
    5     4     6    1
    6     6     7    1
    7     6     8    1
    8     6     9    1
    9     9    10    1
   10     9    11    1
   11     9    12    1
   12    12    13    1
   13    12    14    1
   14    12    15    1
   15    15    16    1
   16    15    17    1
   17    15    18    1
   18    18    19    1
   19    18    20    2
@<TRIPOS>SUBSTRUCTURE
       1 MOL1            1 RESIDUE      1      MOL     
@<SCITEGIC>MOL_PROPERTY
VConf Rank
SciTegic.value.IntegerValue
464

@<SCITEGIC>MOL_PROPERTY
Conf_Id
SciTegic.value.IntegerValue
38

@<SCITEGIC>MOL_PROPERTY
Delta U+W
SciTegic.value.DoubleValue
-0.381

@<SCITEGIC>MOL_PROPERTY
U+W
SciTegic.value.DoubleValue
-52.126

@<SCITEGIC>MOL_PROPERTY
Grad RMS
SciTegic.value.DoubleValue
0.000000

@<SCITEGIC>MOL_PROPERTY
U
SciTegic.value.DoubleValue
7.601

@<SCITEGIC>MOL_PROPERTY
W
SciTegic.value.DoubleValue
-59.727

@<SCITEGIC>MOL_PROPERTY
W(PB)
SciTegic.value.DoubleValue
-61.964

@<SCITEGIC>MOL_PROPERTY
W(SA)
SciTegic.value.DoubleValue
2.236

@<SCITEGIC>MOL_PROPERTY
Valence
SciTegic.value.DoubleValue
9.602

@<SCITEGIC>MOL_PROPERTY
Coulomb
SciTegic.value.DoubleValue
-2.686

@<SCITEGIC>MOL_PROPERTY
VdW
SciTegic.value.DoubleValue
0.685

@<SCITEGIC>MOL_PROPERTY
VdW6
SciTegic.value.DoubleValue
-6.453

@<SCITEGIC>MOL_PROPERTY
VdW12
SciTegic.value.DoubleValue
7.139

@<SCITEGIC>MOL_PROPERTY
Bond
SciTegic.value.DoubleValue
0.125

@<SCITEGIC>MOL_PROPERTY
Angle
SciTegic.value.DoubleValue
2.485

@<SCITEGIC>MOL_PROPERTY
Pdih
SciTegic.value.DoubleValue
6.991

@<SCITEGIC>MOL_PROPERTY
Idih
SciTegic.value.DoubleValue
0.001

@<SCITEGIC>MOL_PROPERTY
Tether
SciTegic.value.DoubleValue
0.000

@<TRIPOS>MOLECULE
guest-s22_confgen4.mol2 : confsearch ligand conformer 465
          20          19           1
SMALL
USER_CHARGES
 
@<TRIPOS>ATOM
       1    C1      18.002543   21.340521   24.345348 C.2        1 MOL1        -0.2535
       2    H1      18.908898   21.554263   24.909628 H          1 MOL1         0.0845
       3    H2      17.178458   22.046283   24.435088 H          1 MOL1         0.0845
       4    C2      17.902248   20.257417   23.570434 C.2        1 MOL1        -0.1324
       5    H3      16.986343   20.062328   23.013014 H          1 MOL1         0.0833
       6    C3      19.002481   19.234144   23.397086 C.3        1 MOL1        -0.1813
       7    H4      18.589518   18.224969   23.528056 H          1 MOL1         0.0753
       8    H5      19.769289   19.365190   24.172697 H          1 MOL1         0.0753
       9    C4      19.655317   19.348654   22.003635 C.3        1 MOL1        -0.1855
      10    H6      18.886740   19.214888   21.229796 H          1 MOL1         0.0755
      11    H7      20.062932   20.360803   21.874499 H          1 MOL1         0.0755
      12    C5      20.780536   18.307380   21.808796 C.3        1 MOL1        -0.1855
      13    H8      20.373957   17.293255   21.926867 H          1 MOL1         0.0755
      14    H9      21.535767   18.438752   22.595530 H          1 MOL1         0.0755
      15    C6      21.469881   18.426331   20.424762 C.3        1 MOL1        -0.1958
      16    H10     21.856913   19.442292   20.280238 H          1 MOL1         0.0753
      17    H11     22.331586   17.749671   20.385114 H          1 MOL1         0.0753
      18    C7      20.562343   18.078762   19.248141 C.2        1 MOL1         0.6174
      19    O1      20.130348   18.987085   18.566011 O.co2      1 MOL1        -0.6695
      20    O2      20.320615   16.906243   19.038701 O.co2      1 MOL1        -0.6695
@<TRIPOS>BOND
    1     1     2    1
    2     1     3    1
    3     1     4    2
    4     4     5    1
    5     4     6    1
    6     6     7    1
    7     6     8    1
    8     6     9    1
    9     9    10    1
   10     9    11    1
   11     9    12    1
   12    12    13    1
   13    12    14    1
   14    12    15    1
   15    15    16    1
   16    15    17    1
   17    15    18    1
   18    18    19    1
   19    18    20    2
@<TRIPOS>SUBSTRUCTURE
       1 MOL1            1 RESIDUE      1      MOL     
@<SCITEGIC>MOL_PROPERTY
VConf Rank
SciTegic.value.IntegerValue
465

@<SCITEGIC>MOL_PROPERTY
Conf_Id
SciTegic.value.IntegerValue
58

@<SCITEGIC>MOL_PROPERTY
Delta U+W
SciTegic.value.DoubleValue
0.019

@<SCITEGIC>MOL_PROPERTY
U+W
SciTegic.value.DoubleValue
-51.727

@<SCITEGIC>MOL_PROPERTY
Grad RMS
SciTegic.value.DoubleValue
0.000000

@<SCITEGIC>MOL_PROPERTY
U
SciTegic.value.DoubleValue
8.963

@<SCITEGIC>MOL_PROPERTY
W
SciTegic.value.DoubleValue
-60.690

@<SCITEGIC>MOL_PROPERTY
W(PB)
SciTegic.value.DoubleValue
-62.934

@<SCITEGIC>MOL_PROPERTY
W(SA)
SciTegic.value.DoubleValue
2.244

@<SCITEGIC>MOL_PROPERTY
Valence
SciTegic.value.DoubleValue
9.327

@<SCITEGIC>MOL_PROPERTY
Coulomb
SciTegic.value.DoubleValue
-0.780

@<SCITEGIC>MOL_PROPERTY
VdW
SciTegic.value.DoubleValue
0.417

@<SCITEGIC>MOL_PROPERTY
VdW6
SciTegic.value.DoubleValue
-6.635

@<SCITEGIC>MOL_PROPERTY
VdW12
SciTegic.value.DoubleValue
7.052

@<SCITEGIC>MOL_PROPERTY
Bond
SciTegic.value.DoubleValue
0.105

@<SCITEGIC>MOL_PROPERTY
Angle
SciTegic.value.DoubleValue
2.399

@<SCITEGIC>MOL_PROPERTY
Pdih
SciTegic.value.DoubleValue
6.822

@<SCITEGIC>MOL_PROPERTY
Idih
SciTegic.value.DoubleValue
0.000

@<SCITEGIC>MOL_PROPERTY
Tether
SciTegic.value.DoubleValue
0.000

@<TRIPOS>MOLECULE
guest-s22_confgen4.mol2 : confsearch ligand conformer 466
          20          19           1
SMALL
USER_CHARGES
 
@<TRIPOS>ATOM
       1    C1      19.041561   16.677796   19.663364 C.2        1 MOL1        -0.2535
       2    H1      19.491759   15.901624   20.280174 H          1 MOL1         0.0845
       3    H2      18.951747   16.480555   18.596454 H          1 MOL1         0.0845
       4    C2      18.617189   17.829229   20.190409 C.2        1 MOL1        -0.1324
       5    H3      18.170185   18.593671   19.555213 H          1 MOL1         0.0833
       6    C3      18.708037   18.173190   21.660471 C.3        1 MOL1        -0.1813
       7    H4      18.924571   17.271446   22.249292 H          1 MOL1         0.0753
       8    H5      17.738583   18.553393   22.009369 H          1 MOL1         0.0753
       9    C4      19.801359   19.231029   21.918612 C.3        1 MOL1        -0.1855
      10    H6      20.768642   18.849062   21.564019 H          1 MOL1         0.0755
      11    H7      19.581214   20.132660   21.330369 H          1 MOL1         0.0755
      12    C5      19.905360   19.596310   23.416638 C.3        1 MOL1        -0.1855
      13    H8      20.109901   18.686931   23.997823 H          1 MOL1         0.0755
      14    H9      18.942343   19.988801   23.771945 H          1 MOL1         0.0755
      15    C6      21.020052   20.636319   23.700782 C.3        1 MOL1        -0.1958
      16    H10     21.129801   20.769410   24.783473 H          1 MOL1         0.0753
      17    H11     21.983883   20.270627   23.326404 H          1 MOL1         0.0753
      18    C7      20.753047   22.012075   23.096739 C.2        1 MOL1         0.6174
      19    O1      19.933517   22.726390   23.640081 O.co2      1 MOL1        -0.6695
      20    O2      21.378337   22.337678   22.106807 O.co2      1 MOL1        -0.6695
@<TRIPOS>BOND
    1     1     2    1
    2     1     3    1
    3     1     4    2
    4     4     5    1
    5     4     6    1
    6     6     7    1
    7     6     8    1
    8     6     9    1
    9     9    10    1
   10     9    11    1
   11     9    12    1
   12    12    13    1
   13    12    14    1
   14    12    15    1
   15    15    16    1
   16    15    17    1
   17    15    18    1
   18    18    19    1
   19    18    20    2
@<TRIPOS>SUBSTRUCTURE
       1 MOL1            1 RESIDUE      1      MOL     
@<SCITEGIC>MOL_PROPERTY
VConf Rank
SciTegic.value.IntegerValue
466

@<SCITEGIC>MOL_PROPERTY
Conf_Id
SciTegic.value.IntegerValue
54

@<SCITEGIC>MOL_PROPERTY
Delta U+W
SciTegic.value.DoubleValue
-0.048

@<SCITEGIC>MOL_PROPERTY
U+W
SciTegic.value.DoubleValue
-51.793

@<SCITEGIC>MOL_PROPERTY
Grad RMS
SciTegic.value.DoubleValue
0.000000

@<SCITEGIC>MOL_PROPERTY
U
SciTegic.value.DoubleValue
8.964

@<SCITEGIC>MOL_PROPERTY
W
SciTegic.value.DoubleValue
-60.756

@<SCITEGIC>MOL_PROPERTY
W(PB)
SciTegic.value.DoubleValue
-63.007

@<SCITEGIC>MOL_PROPERTY
W(SA)
SciTegic.value.DoubleValue
2.251

@<SCITEGIC>MOL_PROPERTY
Valence
SciTegic.value.DoubleValue
9.327

@<SCITEGIC>MOL_PROPERTY
Coulomb
SciTegic.value.DoubleValue
-0.780

@<SCITEGIC>MOL_PROPERTY
VdW
SciTegic.value.DoubleValue
0.417

@<SCITEGIC>MOL_PROPERTY
VdW6
SciTegic.value.DoubleValue
-6.635

@<SCITEGIC>MOL_PROPERTY
VdW12
SciTegic.value.DoubleValue
7.052

@<SCITEGIC>MOL_PROPERTY
Bond
SciTegic.value.DoubleValue
0.105

@<SCITEGIC>MOL_PROPERTY
Angle
SciTegic.value.DoubleValue
2.399

@<SCITEGIC>MOL_PROPERTY
Pdih
SciTegic.value.DoubleValue
6.822

@<SCITEGIC>MOL_PROPERTY
Idih
SciTegic.value.DoubleValue
0.000

@<SCITEGIC>MOL_PROPERTY
Tether
SciTegic.value.DoubleValue
0.000

@<TRIPOS>MOLECULE
guest-s22_confgen4.mol2 : confsearch ligand conformer 467
          20          19           1
SMALL
USER_CHARGES
 
@<TRIPOS>ATOM
       1    C1      18.670918   22.235806   21.465254 C.2        1 MOL1        -0.2535
       2    H1      18.995984   23.039774   20.807108 H          1 MOL1         0.0845
       3    H2      17.599761   22.117121   21.620319 H          1 MOL1         0.0845
       4    C2      19.554751   21.426816   22.055209 C.2        1 MOL1        -0.1324
       5    H3      20.622680   21.565347   21.889107 H          1 MOL1         0.0833
       6    C3      19.177241   20.294472   22.986408 C.3        1 MOL1        -0.1813
       7    H4      18.161967   20.456417   23.373090 H          1 MOL1         0.0753
       8    H5      19.841872   20.291198   23.860650 H          1 MOL1         0.0753
       9    C4      19.226729   18.916445   22.288703 C.3        1 MOL1        -0.1855
      10    H6      18.812196   18.162058   22.971377 H          1 MOL1         0.0755
      11    H7      18.574048   18.930686   21.404993 H          1 MOL1         0.0755
      12    C5      20.659147   18.502055   21.875711 C.3        1 MOL1        -0.1855
      13    H8      21.315528   18.501905   22.756960 H          1 MOL1         0.0755
      14    H9      21.068096   19.243450   21.176720 H          1 MOL1         0.0755
      15    C6      20.704215   17.106200   21.201367 C.3        1 MOL1        -0.1958
      16    H10     20.027429   17.080409   20.338738 H          1 MOL1         0.0753
      17    H11     21.713918   16.916894   20.818460 H          1 MOL1         0.0753
      18    C7      20.347459   15.953453   22.135569 C.2        1 MOL1         0.6174
      19    O1      19.253432   15.436693   22.021048 O.co2      1 MOL1        -0.6695
      20    O2      21.178829   15.595763   22.946739 O.co2      1 MOL1        -0.6695
@<TRIPOS>BOND
    1     1     2    1
    2     1     3    1
    3     1     4    2
    4     4     5    1
    5     4     6    1
    6     6     7    1
    7     6     8    1
    8     6     9    1
    9     9    10    1
   10     9    11    1
   11     9    12    1
   12    12    13    1
   13    12    14    1
   14    12    15    1
   15    15    16    1
   16    15    17    1
   17    15    18    1
   18    18    19    1
   19    18    20    2
@<TRIPOS>SUBSTRUCTURE
       1 MOL1            1 RESIDUE      1      MOL     
@<SCITEGIC>MOL_PROPERTY
VConf Rank
SciTegic.value.IntegerValue
467

@<SCITEGIC>MOL_PROPERTY
Conf_Id
SciTegic.value.IntegerValue
27

@<SCITEGIC>MOL_PROPERTY
Delta U+W
SciTegic.value.DoubleValue
0.478

@<SCITEGIC>MOL_PROPERTY
U+W
SciTegic.value.DoubleValue
-51.267

@<SCITEGIC>MOL_PROPERTY
Grad RMS
SciTegic.value.DoubleValue
0.000000

@<SCITEGIC>MOL_PROPERTY
U
SciTegic.value.DoubleValue
9.192

@<SCITEGIC>MOL_PROPERTY
W
SciTegic.value.DoubleValue
-60.459

@<SCITEGIC>MOL_PROPERTY
W(PB)
SciTegic.value.DoubleValue
-62.649

@<SCITEGIC>MOL_PROPERTY
W(SA)
SciTegic.value.DoubleValue
2.190

@<SCITEGIC>MOL_PROPERTY
Valence
SciTegic.value.DoubleValue
9.572

@<SCITEGIC>MOL_PROPERTY
Coulomb
SciTegic.value.DoubleValue
-0.884

@<SCITEGIC>MOL_PROPERTY
VdW
SciTegic.value.DoubleValue
0.504

@<SCITEGIC>MOL_PROPERTY
VdW6
SciTegic.value.DoubleValue
-7.168

@<SCITEGIC>MOL_PROPERTY
VdW12
SciTegic.value.DoubleValue
7.672

@<SCITEGIC>MOL_PROPERTY
Bond
SciTegic.value.DoubleValue
0.127

@<SCITEGIC>MOL_PROPERTY
Angle
SciTegic.value.DoubleValue
2.504

@<SCITEGIC>MOL_PROPERTY
Pdih
SciTegic.value.DoubleValue
6.941

@<SCITEGIC>MOL_PROPERTY
Idih
SciTegic.value.DoubleValue
0.001

@<SCITEGIC>MOL_PROPERTY
Tether
SciTegic.value.DoubleValue
0.000

@<TRIPOS>MOLECULE
guest-s22_confgen4.mol2 : confsearch ligand conformer 468
          20          19           1
SMALL
USER_CHARGES
 
@<TRIPOS>ATOM
       1    C1      19.740557   18.293202   18.619055 C.2        1 MOL1        -0.2535
       2    H1      18.958004   17.568954   18.398643 H          1 MOL1         0.0845
       3    H2      20.607160   18.310689   17.960351 H          1 MOL1         0.0845
       4    C2      19.646397   19.127187   19.657940 C.2        1 MOL1        -0.1324
       5    H3      20.439815   19.846537   19.858731 H          1 MOL1         0.0833
       6    C3      18.470762   19.164438   20.610984 C.3        1 MOL1        -0.1813
       7    H4      17.599215   18.687313   20.142675 H          1 MOL1         0.0753
       8    H5      18.181967   20.205448   20.808358 H          1 MOL1         0.0753
       9    C4      18.771961   18.444783   21.944938 C.3        1 MOL1        -0.1855
      10    H6      17.846452   18.390659   22.534329 H          1 MOL1         0.0755
      11    H7      19.075412   17.408802   21.740075 H          1 MOL1         0.0755
      12    C5      19.863209   19.155304   22.778233 C.3        1 MOL1        -0.1855
      13    H8      19.570190   20.198578   22.960105 H          1 MOL1         0.0755
      14    H9      20.806568   19.181885   22.216051 H          1 MOL1         0.0755
      15    C6      20.103242   18.447640   24.134572 C.3        1 MOL1        -0.1958
      16    H10     19.176095   18.424977   24.719739 H          1 MOL1         0.0753
      17    H11     20.408456   17.407322   23.969675 H          1 MOL1         0.0753
      18    C7      21.176971   19.128815   24.975497 C.2        1 MOL1         0.6174
      19    O1      22.329011   18.767798   24.837182 O.co2      1 MOL1        -0.6695
      20    O2      20.835223   20.014651   25.733917 O.co2      1 MOL1        -0.6695
@<TRIPOS>BOND
    1     1     2    1
    2     1     3    1
    3     1     4    2
    4     4     5    1
    5     4     6    1
    6     6     7    1
    7     6     8    1
    8     6     9    1
    9     9    10    1
   10     9    11    1
   11     9    12    1
   12    12    13    1
   13    12    14    1
   14    12    15    1
   15    15    16    1
   16    15    17    1
   17    15    18    1
   18    18    19    1
   19    18    20    2
@<TRIPOS>SUBSTRUCTURE
       1 MOL1            1 RESIDUE      1      MOL     
@<SCITEGIC>MOL_PROPERTY
VConf Rank
SciTegic.value.IntegerValue
468

@<SCITEGIC>MOL_PROPERTY
Conf_Id
SciTegic.value.IntegerValue
41

@<SCITEGIC>MOL_PROPERTY
Delta U+W
SciTegic.value.DoubleValue
-0.634

@<SCITEGIC>MOL_PROPERTY
U+W
SciTegic.value.DoubleValue
-52.379

@<SCITEGIC>MOL_PROPERTY
Grad RMS
SciTegic.value.DoubleValue
0.000000

@<SCITEGIC>MOL_PROPERTY
U
SciTegic.value.DoubleValue
7.828

@<SCITEGIC>MOL_PROPERTY
W
SciTegic.value.DoubleValue
-60.207

@<SCITEGIC>MOL_PROPERTY
W(PB)
SciTegic.value.DoubleValue
-62.449

@<SCITEGIC>MOL_PROPERTY
W(SA)
SciTegic.value.DoubleValue
2.242

@<SCITEGIC>MOL_PROPERTY
Valence
SciTegic.value.DoubleValue
9.300

@<SCITEGIC>MOL_PROPERTY
Coulomb
SciTegic.value.DoubleValue
-2.080

@<SCITEGIC>MOL_PROPERTY
VdW
SciTegic.value.DoubleValue
0.608

@<SCITEGIC>MOL_PROPERTY
VdW6
SciTegic.value.DoubleValue
-6.341

@<SCITEGIC>MOL_PROPERTY
VdW12
SciTegic.value.DoubleValue
6.949

@<SCITEGIC>MOL_PROPERTY
Bond
SciTegic.value.DoubleValue
0.103

@<SCITEGIC>MOL_PROPERTY
Angle
SciTegic.value.DoubleValue
2.334

@<SCITEGIC>MOL_PROPERTY
Pdih
SciTegic.value.DoubleValue
6.862

@<SCITEGIC>MOL_PROPERTY
Idih
SciTegic.value.DoubleValue
0.001

@<SCITEGIC>MOL_PROPERTY
Tether
SciTegic.value.DoubleValue
0.000

@<TRIPOS>MOLECULE
guest-s22_confgen4.mol2 : confsearch ligand conformer 469
          20          19           1
SMALL
USER_CHARGES
 
@<TRIPOS>ATOM
       1    C1      16.576148   18.185102   21.898681 C.2        1 MOL1        -0.2535
       2    H1      15.593295   18.537043   21.589852 H          1 MOL1         0.0845
       3    H2      16.702343   17.113118   22.041788 H          1 MOL1         0.0845
       4    C2      17.585563   19.038177   22.091191 C.2        1 MOL1        -0.1324
       5    H3      17.438897   20.107704   21.941976 H          1 MOL1         0.0833
       6    C3      18.975554   18.624375   22.520480 C.3        1 MOL1        -0.1813
       7    H4      18.966888   17.590842   22.892111 H          1 MOL1         0.0753
       8    H5      19.298618   19.260906   23.354394 H          1 MOL1         0.0753
       9    C4      19.976329   18.743497   21.349397 C.3        1 MOL1        -0.1855
      10    H6      19.585565   18.180689   20.490497 H          1 MOL1         0.0755
      11    H7      20.041457   19.791903   21.027121 H          1 MOL1         0.0755
      12    C5      21.390078   18.209025   21.686804 C.3        1 MOL1        -0.1855
      13    H8      22.012094   18.258954   20.782377 H          1 MOL1         0.0755
      14    H9      21.320634   17.145868   21.953791 H          1 MOL1         0.0755
      15    C6      22.110402   18.975037   22.829948 C.3        1 MOL1        -0.1958
      16    H10     21.553194   18.882756   23.769101 H          1 MOL1         0.0753
      17    H11     23.093030   18.522456   23.006915 H          1 MOL1         0.0753
      18    C7      22.338426   20.455888   22.540426 C.2        1 MOL1         0.6174
      19    O1      23.180810   20.754959   21.716805 O.co2      1 MOL1        -0.6695
      20    O2      21.681877   21.271280   23.157704 O.co2      1 MOL1        -0.6695
@<TRIPOS>BOND
    1     1     2    1
    2     1     3    1
    3     1     4    2
    4     4     5    1
    5     4     6    1
    6     6     7    1
    7     6     8    1
    8     6     9    1
    9     9    10    1
   10     9    11    1
   11     9    12    1
   12    12    13    1
   13    12    14    1
   14    12    15    1
   15    15    16    1
   16    15    17    1
   17    15    18    1
   18    18    19    1
   19    18    20    2
@<TRIPOS>SUBSTRUCTURE
       1 MOL1            1 RESIDUE      1      MOL     
@<SCITEGIC>MOL_PROPERTY
VConf Rank
SciTegic.value.IntegerValue
469

@<SCITEGIC>MOL_PROPERTY
Conf_Id
SciTegic.value.IntegerValue
84

@<SCITEGIC>MOL_PROPERTY
Delta U+W
SciTegic.value.DoubleValue
0.942

@<SCITEGIC>MOL_PROPERTY
U+W
SciTegic.value.DoubleValue
-50.803

@<SCITEGIC>MOL_PROPERTY
Grad RMS
SciTegic.value.DoubleValue
0.000000

@<SCITEGIC>MOL_PROPERTY
U
SciTegic.value.DoubleValue
10.196

@<SCITEGIC>MOL_PROPERTY
W
SciTegic.value.DoubleValue
-60.999

@<SCITEGIC>MOL_PROPERTY
W(PB)
SciTegic.value.DoubleValue
-63.182

@<SCITEGIC>MOL_PROPERTY
W(SA)
SciTegic.value.DoubleValue
2.182

@<SCITEGIC>MOL_PROPERTY
Valence
SciTegic.value.DoubleValue
9.837

@<SCITEGIC>MOL_PROPERTY
Coulomb
SciTegic.value.DoubleValue
0.032

@<SCITEGIC>MOL_PROPERTY
VdW
SciTegic.value.DoubleValue
0.328

@<SCITEGIC>MOL_PROPERTY
VdW6
SciTegic.value.DoubleValue
-7.642

@<SCITEGIC>MOL_PROPERTY
VdW12
SciTegic.value.DoubleValue
7.969

@<SCITEGIC>MOL_PROPERTY
Bond
SciTegic.value.DoubleValue
0.151

@<SCITEGIC>MOL_PROPERTY
Angle
SciTegic.value.DoubleValue
2.748

@<SCITEGIC>MOL_PROPERTY
Pdih
SciTegic.value.DoubleValue
6.937

@<SCITEGIC>MOL_PROPERTY
Idih
SciTegic.value.DoubleValue
0.001

@<SCITEGIC>MOL_PROPERTY
Tether
SciTegic.value.DoubleValue
0.000

@<TRIPOS>MOLECULE
guest-s22_confgen4.mol2 : confsearch ligand conformer 470
          20          19           1
SMALL
USER_CHARGES
 
@<TRIPOS>ATOM
       1    C1      18.786710   22.346094   23.360996 C.2        1 MOL1        -0.2535
       2    H1      18.935114   23.056759   24.172287 H          1 MOL1         0.0845
       3    H2      18.825932   22.731909   22.343553 H          1 MOL1         0.0845
       4    C2      18.567895   21.052053   23.608463 C.2        1 MOL1        -0.1324
       5    H3      18.533258   20.686051   24.634368 H          1 MOL1         0.0833
       6    C3      18.352503   20.008282   22.535237 C.3        1 MOL1        -0.1813
       7    H4      18.147713   20.491660   21.570252 H          1 MOL1         0.0753
       8    H5      17.467764   19.405915   22.781151 H          1 MOL1         0.0753
       9    C4      19.583580   19.088210   22.397484 C.3        1 MOL1        -0.1855
      10    H6      20.465876   19.697961   22.157822 H          1 MOL1         0.0755
      11    H7      19.786557   18.601251   23.361186 H          1 MOL1         0.0755
      12    C5      19.378149   18.013114   21.306475 C.3        1 MOL1        -0.1855
      13    H8      19.188804   18.496976   20.338106 H          1 MOL1         0.0755
      14    H9      18.483709   17.421618   21.544547 H          1 MOL1         0.0755
      15    C6      20.592562   17.057798   21.174358 C.3        1 MOL1        -0.1958
      16    H10     20.811289   16.587056   22.140491 H          1 MOL1         0.0753
      17    H11     20.348470   16.249289   20.475281 H          1 MOL1         0.0753
      18    C7      21.861472   17.734666   20.663857 C.2        1 MOL1         0.6174
      19    O1      22.752315   17.962348   21.458547 O.co2      1 MOL1        -0.6695
      20    O2      21.929901   18.004403   19.480782 O.co2      1 MOL1        -0.6695
@<TRIPOS>BOND
    1     1     2    1
    2     1     3    1
    3     1     4    2
    4     4     5    1
    5     4     6    1
    6     6     7    1
    7     6     8    1
    8     6     9    1
    9     9    10    1
   10     9    11    1
   11     9    12    1
   12    12    13    1
   13    12    14    1
   14    12    15    1
   15    15    16    1
   16    15    17    1
   17    15    18    1
   18    18    19    1
   19    18    20    2
@<TRIPOS>SUBSTRUCTURE
       1 MOL1            1 RESIDUE      1      MOL     
@<SCITEGIC>MOL_PROPERTY
VConf Rank
SciTegic.value.IntegerValue
470

@<SCITEGIC>MOL_PROPERTY
Conf_Id
SciTegic.value.IntegerValue
81

@<SCITEGIC>MOL_PROPERTY
Delta U+W
SciTegic.value.DoubleValue
-0.051

@<SCITEGIC>MOL_PROPERTY
U+W
SciTegic.value.DoubleValue
-51.796

@<SCITEGIC>MOL_PROPERTY
Grad RMS
SciTegic.value.DoubleValue
0.000000

@<SCITEGIC>MOL_PROPERTY
U
SciTegic.value.DoubleValue
9.412

@<SCITEGIC>MOL_PROPERTY
W
SciTegic.value.DoubleValue
-61.209

@<SCITEGIC>MOL_PROPERTY
W(PB)
SciTegic.value.DoubleValue
-63.452

@<SCITEGIC>MOL_PROPERTY
W(SA)
SciTegic.value.DoubleValue
2.243

@<SCITEGIC>MOL_PROPERTY
Valence
SciTegic.value.DoubleValue
9.329

@<SCITEGIC>MOL_PROPERTY
Coulomb
SciTegic.value.DoubleValue
-0.323

@<SCITEGIC>MOL_PROPERTY
VdW
SciTegic.value.DoubleValue
0.406

@<SCITEGIC>MOL_PROPERTY
VdW6
SciTegic.value.DoubleValue
-6.640

@<SCITEGIC>MOL_PROPERTY
VdW12
SciTegic.value.DoubleValue
7.046

@<SCITEGIC>MOL_PROPERTY
Bond
SciTegic.value.DoubleValue
0.105

@<SCITEGIC>MOL_PROPERTY
Angle
SciTegic.value.DoubleValue
2.401

@<SCITEGIC>MOL_PROPERTY
Pdih
SciTegic.value.DoubleValue
6.823

@<SCITEGIC>MOL_PROPERTY
Idih
SciTegic.value.DoubleValue
0.000

@<SCITEGIC>MOL_PROPERTY
Tether
SciTegic.value.DoubleValue
0.000

@<TRIPOS>MOLECULE
guest-s22_confgen4.mol2 : confsearch ligand conformer 471
          20          19           1
SMALL
USER_CHARGES
 
@<TRIPOS>ATOM
       1    C1      21.578695   20.254070   19.709495 C.2        1 MOL1        -0.2535
       2    H1      21.429755   19.639929   18.822868 H          1 MOL1         0.0845
       3    H2      22.079920   21.211429   19.577657 H          1 MOL1         0.0845
       4    C2      21.161589   19.853458   20.913326 C.2        1 MOL1        -0.1324
       5    H3      21.322651   20.482256   21.788481 H          1 MOL1         0.0833
       6    C3      20.463626   18.535712   21.173943 C.3        1 MOL1        -0.1813
       7    H4      20.887060   18.055037   22.065339 H          1 MOL1         0.0753
       8    H5      20.655039   17.844571   20.342138 H          1 MOL1         0.0753
       9    C4      18.933147   18.698944   21.334241 C.3        1 MOL1        -0.1855
      10    H6      18.520490   19.100435   20.398638 H          1 MOL1         0.0755
      11    H7      18.481059   17.706188   21.464715 H          1 MOL1         0.0755
      12    C5      18.498283   19.616526   22.506003 C.3        1 MOL1        -0.1855
      13    H8      17.401645   19.683853   22.511768 H          1 MOL1         0.0755
      14    H9      18.863854   20.636475   22.327795 H          1 MOL1         0.0755
      15    C6      18.975126   19.141275   23.905627 C.3        1 MOL1        -0.1958
      16    H10     20.069718   19.135141   23.959202 H          1 MOL1         0.0753
      17    H11     18.631389   19.851434   24.666629 H          1 MOL1         0.0753
      18    C7      18.458220   17.762066   24.304544 C.2        1 MOL1         0.6174
      19    O1      19.245222   16.836238   24.328161 O.co2      1 MOL1        -0.6695
      20    O2      17.283740   17.654003   24.598446 O.co2      1 MOL1        -0.6695
@<TRIPOS>BOND
    1     1     2    1
    2     1     3    1
    3     1     4    2
    4     4     5    1
    5     4     6    1
    6     6     7    1
    7     6     8    1
    8     6     9    1
    9     9    10    1
   10     9    11    1
   11     9    12    1
   12    12    13    1
   13    12    14    1
   14    12    15    1
   15    15    16    1
   16    15    17    1
   17    15    18    1
   18    18    19    1
   19    18    20    2
@<TRIPOS>SUBSTRUCTURE
       1 MOL1            1 RESIDUE      1      MOL     
@<SCITEGIC>MOL_PROPERTY
VConf Rank
SciTegic.value.IntegerValue
471

@<SCITEGIC>MOL_PROPERTY
Conf_Id
SciTegic.value.IntegerValue
86

@<SCITEGIC>MOL_PROPERTY
Delta U+W
SciTegic.value.DoubleValue
1.248

@<SCITEGIC>MOL_PROPERTY
U+W
SciTegic.value.DoubleValue
-50.498

@<SCITEGIC>MOL_PROPERTY
Grad RMS
SciTegic.value.DoubleValue
0.000000

@<SCITEGIC>MOL_PROPERTY
U
SciTegic.value.DoubleValue
10.404

@<SCITEGIC>MOL_PROPERTY
W
SciTegic.value.DoubleValue
-60.901

@<SCITEGIC>MOL_PROPERTY
W(PB)
SciTegic.value.DoubleValue
-63.061

@<SCITEGIC>MOL_PROPERTY
W(SA)
SciTegic.value.DoubleValue
2.159

@<SCITEGIC>MOL_PROPERTY
Valence
SciTegic.value.DoubleValue
10.021

@<SCITEGIC>MOL_PROPERTY
Coulomb
SciTegic.value.DoubleValue
0.094

@<SCITEGIC>MOL_PROPERTY
VdW
SciTegic.value.DoubleValue
0.289

@<SCITEGIC>MOL_PROPERTY
VdW6
SciTegic.value.DoubleValue
-8.409

@<SCITEGIC>MOL_PROPERTY
VdW12
SciTegic.value.DoubleValue
8.698

@<SCITEGIC>MOL_PROPERTY
Bond
SciTegic.value.DoubleValue
0.179

@<SCITEGIC>MOL_PROPERTY
Angle
SciTegic.value.DoubleValue
2.939

@<SCITEGIC>MOL_PROPERTY
Pdih
SciTegic.value.DoubleValue
6.902

@<SCITEGIC>MOL_PROPERTY
Idih
SciTegic.value.DoubleValue
0.001

@<SCITEGIC>MOL_PROPERTY
Tether
SciTegic.value.DoubleValue
0.000

@<TRIPOS>MOLECULE
guest-s22_confgen4.mol2 : confsearch ligand conformer 472
          20          19           1
SMALL
USER_CHARGES
 
@<TRIPOS>ATOM
       1    C1      18.399775   20.568269   19.667955 C.2        1 MOL1        -0.2535
       2    H1      17.389029   20.763151   19.313670 H          1 MOL1         0.0845
       3    H2      19.028696   21.429445   19.887627 H          1 MOL1         0.0845
       4    C2      18.846056   19.319704   19.829026 C.2        1 MOL1        -0.1324
       5    H3      18.199624   18.471431   19.605537 H          1 MOL1         0.0833
       6    C3      20.236074   18.970777   20.317035 C.3        1 MOL1        -0.1813
       7    H4      20.878830   19.861552   20.323691 H          1 MOL1         0.0753
       8    H5      20.695446   18.262806   19.614485 H          1 MOL1         0.0753
       9    C4      20.220944   18.335494   21.725668 C.3        1 MOL1        -0.1855
      10    H6      19.575190   17.446730   21.720868 H          1 MOL1         0.0755
      11    H7      21.234180   17.984637   21.964961 H          1 MOL1         0.0755
      12    C5      19.747513   19.321307   22.820033 C.3        1 MOL1        -0.1855
      13    H8      18.732019   19.667607   22.585689 H          1 MOL1         0.0755
      14    H9      20.391272   20.211768   22.821969 H          1 MOL1         0.0755
      15    C6      19.744189   18.685638   24.234581 C.3        1 MOL1        -0.1958
      16    H10     19.287352   19.381804   24.947738 H          1 MOL1         0.0753
      17    H11     19.130103   17.776986   24.239951 H          1 MOL1         0.0753
      18    C7      21.133339   18.338321   24.762179 C.2        1 MOL1         0.6174
      19    O1      21.834058   19.244037   25.169363 O.co2      1 MOL1        -0.6695
      20    O2      21.474019   17.171691   24.763089 O.co2      1 MOL1        -0.6695
@<TRIPOS>BOND
    1     1     2    1
    2     1     3    1
    3     1     4    2
    4     4     5    1
    5     4     6    1
    6     6     7    1
    7     6     8    1
    8     6     9    1
    9     9    10    1
   10     9    11    1
   11     9    12    1
   12    12    13    1
   13    12    14    1
   14    12    15    1
   15    15    16    1
   16    15    17    1
   17    15    18    1
   18    18    19    1
   19    18    20    2
@<TRIPOS>SUBSTRUCTURE
       1 MOL1            1 RESIDUE      1      MOL     
@<SCITEGIC>MOL_PROPERTY
VConf Rank
SciTegic.value.IntegerValue
472

@<SCITEGIC>MOL_PROPERTY
Conf_Id
SciTegic.value.IntegerValue
28

@<SCITEGIC>MOL_PROPERTY
Delta U+W
SciTegic.value.DoubleValue
0.446

@<SCITEGIC>MOL_PROPERTY
U+W
SciTegic.value.DoubleValue
-51.299

@<SCITEGIC>MOL_PROPERTY
Grad RMS
SciTegic.value.DoubleValue
0.000000

@<SCITEGIC>MOL_PROPERTY
U
SciTegic.value.DoubleValue
9.295

@<SCITEGIC>MOL_PROPERTY
W
SciTegic.value.DoubleValue
-60.594

@<SCITEGIC>MOL_PROPERTY
W(PB)
SciTegic.value.DoubleValue
-62.806

@<SCITEGIC>MOL_PROPERTY
W(SA)
SciTegic.value.DoubleValue
2.212

@<SCITEGIC>MOL_PROPERTY
Valence
SciTegic.value.DoubleValue
9.495

@<SCITEGIC>MOL_PROPERTY
Coulomb
SciTegic.value.DoubleValue
-0.610

@<SCITEGIC>MOL_PROPERTY
VdW
SciTegic.value.DoubleValue
0.409

@<SCITEGIC>MOL_PROPERTY
VdW6
SciTegic.value.DoubleValue
-7.332

@<SCITEGIC>MOL_PROPERTY
VdW12
SciTegic.value.DoubleValue
7.741

@<SCITEGIC>MOL_PROPERTY
Bond
SciTegic.value.DoubleValue
0.126

@<SCITEGIC>MOL_PROPERTY
Angle
SciTegic.value.DoubleValue
2.497

@<SCITEGIC>MOL_PROPERTY
Pdih
SciTegic.value.DoubleValue
6.872

@<SCITEGIC>MOL_PROPERTY
Idih
SciTegic.value.DoubleValue
0.000

@<SCITEGIC>MOL_PROPERTY
Tether
SciTegic.value.DoubleValue
0.000

@<TRIPOS>MOLECULE
guest-s22_confgen4.mol2 : confsearch ligand conformer 473
          20          19           1
SMALL
USER_CHARGES
 
@<TRIPOS>ATOM
       1    C1      21.786924   17.965892   20.091716 C.2        1 MOL1        -0.2535
       2    H1      20.786320   17.902463   19.669504 H          1 MOL1         0.0845
       3    H2      22.613462   17.686221   19.440748 H          1 MOL1         0.0845
       4    C2      22.012337   18.369563   21.347190 C.2        1 MOL1        -0.1324
       5    H3      23.037842   18.414728   21.713032 H          1 MOL1         0.0833
       6    C3      20.968100   18.787896   22.368964 C.3        1 MOL1        -0.1813
       7    H4      21.150713   19.835269   22.641584 H          1 MOL1         0.0753
       8    H5      21.123930   18.207497   23.287989 H          1 MOL1         0.0753
       9    C4      19.499099   18.617618   21.908919 C.3        1 MOL1        -0.1855
      10    H6      19.306874   19.263450   21.041092 H          1 MOL1         0.0755
      11    H7      19.347646   17.583391   21.571090 H          1 MOL1         0.0755
      12    C5      18.464636   18.919455   23.021503 C.3        1 MOL1        -0.1855
      13    H8      18.631095   18.236410   23.865381 H          1 MOL1         0.0755
      14    H9      17.459286   18.695304   22.638835 H          1 MOL1         0.0755
      15    C6      18.484358   20.383496   23.540013 C.3        1 MOL1        -0.1958
      16    H10     17.731148   20.498974   24.328047 H          1 MOL1         0.0753
      17    H11     19.451136   20.619077   23.999076 H          1 MOL1         0.0753
      18    C7      18.183414   21.428679   22.469531 C.2        1 MOL1         0.6174
      19    O1      17.047968   21.499381   22.041496 O.co2      1 MOL1        -0.6695
      20    O2      19.085414   22.157980   22.107077 O.co2      1 MOL1        -0.6695
@<TRIPOS>BOND
    1     1     2    1
    2     1     3    1
    3     1     4    2
    4     4     5    1
    5     4     6    1
    6     6     7    1
    7     6     8    1
    8     6     9    1
    9     9    10    1
   10     9    11    1
   11     9    12    1
   12    12    13    1
   13    12    14    1
   14    12    15    1
   15    15    16    1
   16    15    17    1
   17    15    18    1
   18    18    19    1
   19    18    20    2
@<TRIPOS>SUBSTRUCTURE
       1 MOL1            1 RESIDUE      1      MOL     
@<SCITEGIC>MOL_PROPERTY
VConf Rank
SciTegic.value.IntegerValue
473

@<SCITEGIC>MOL_PROPERTY
Conf_Id
SciTegic.value.IntegerValue
53

@<SCITEGIC>MOL_PROPERTY
Delta U+W
SciTegic.value.DoubleValue
0.549

@<SCITEGIC>MOL_PROPERTY
U+W
SciTegic.value.DoubleValue
-51.197

@<SCITEGIC>MOL_PROPERTY
Grad RMS
SciTegic.value.DoubleValue
0.000000

@<SCITEGIC>MOL_PROPERTY
U
SciTegic.value.DoubleValue
10.870

@<SCITEGIC>MOL_PROPERTY
W
SciTegic.value.DoubleValue
-62.067

@<SCITEGIC>MOL_PROPERTY
W(PB)
SciTegic.value.DoubleValue
-64.228

@<SCITEGIC>MOL_PROPERTY
W(SA)
SciTegic.value.DoubleValue
2.161

@<SCITEGIC>MOL_PROPERTY
Valence
SciTegic.value.DoubleValue
8.803

@<SCITEGIC>MOL_PROPERTY
Coulomb
SciTegic.value.DoubleValue
1.020

@<SCITEGIC>MOL_PROPERTY
VdW
SciTegic.value.DoubleValue
1.048

@<SCITEGIC>MOL_PROPERTY
VdW6
SciTegic.value.DoubleValue
-8.312

@<SCITEGIC>MOL_PROPERTY
VdW12
SciTegic.value.DoubleValue
9.360

@<SCITEGIC>MOL_PROPERTY
Bond
SciTegic.value.DoubleValue
0.212

@<SCITEGIC>MOL_PROPERTY
Angle
SciTegic.value.DoubleValue
3.379

@<SCITEGIC>MOL_PROPERTY
Pdih
SciTegic.value.DoubleValue
5.211

@<SCITEGIC>MOL_PROPERTY
Idih
SciTegic.value.DoubleValue
0.001

@<SCITEGIC>MOL_PROPERTY
Tether
SciTegic.value.DoubleValue
0.000

@<TRIPOS>MOLECULE
guest-s22_confgen4.mol2 : confsearch ligand conformer 474
          20          19           1
SMALL
USER_CHARGES
 
@<TRIPOS>ATOM
       1    C1      19.985813   21.247260   20.583544 C.2        1 MOL1        -0.2535
       2    H1      19.089874   21.482862   21.153704 H          1 MOL1         0.0845
       3    H2      20.094667   21.728146   19.613068 H          1 MOL1         0.0845
       4    C2      20.923217   20.411549   21.043454 C.2        1 MOL1        -0.1324
       5    H3      21.803575   20.211876   20.433206 H          1 MOL1         0.0833
       6    C3      20.898301   19.670166   22.369960 C.3        1 MOL1        -0.1813
       7    H4      21.515353   20.220547   23.092268 H          1 MOL1         0.0753
       8    H5      21.405190   18.704269   22.248768 H          1 MOL1         0.0753
       9    C4      19.494492   19.423911   22.981885 C.3        1 MOL1        -0.1855
      10    H6      19.620130   18.950201   23.965069 H          1 MOL1         0.0755
      11    H7      19.008256   20.388163   23.179664 H          1 MOL1         0.0755
      12    C5      18.554081   18.543194   22.117696 C.3        1 MOL1        -0.1855
      13    H8      18.360595   19.040319   21.158538 H          1 MOL1         0.0755
      14    H9      17.581376   18.467132   22.622749 H          1 MOL1         0.0755
      15    C6      19.085281   17.109601   21.843915 C.3        1 MOL1        -0.1958
      16    H10     18.360875   16.566553   21.225934 H          1 MOL1         0.0753
      17    H11     20.016728   17.146982   21.267710 H          1 MOL1         0.0753
      18    C7      19.320627   16.280031   23.102824 C.2        1 MOL1         0.6174
      19    O1      20.466669   16.050393   23.436007 O.co2      1 MOL1        -0.6695
      20    O2      18.349468   15.869632   23.707747 O.co2      1 MOL1        -0.6695
@<TRIPOS>BOND
    1     1     2    1
    2     1     3    1
    3     1     4    2
    4     4     5    1
    5     4     6    1
    6     6     7    1
    7     6     8    1
    8     6     9    1
    9     9    10    1
   10     9    11    1
   11     9    12    1
   12    12    13    1
   13    12    14    1
   14    12    15    1
   15    15    16    1
   16    15    17    1
   17    15    18    1
   18    18    19    1
   19    18    20    2
@<TRIPOS>SUBSTRUCTURE
       1 MOL1            1 RESIDUE      1      MOL     
@<SCITEGIC>MOL_PROPERTY
VConf Rank
SciTegic.value.IntegerValue
474

@<SCITEGIC>MOL_PROPERTY
Conf_Id
SciTegic.value.IntegerValue
66

@<SCITEGIC>MOL_PROPERTY
Delta U+W
SciTegic.value.DoubleValue
1.737

@<SCITEGIC>MOL_PROPERTY
U+W
SciTegic.value.DoubleValue
-50.008

@<SCITEGIC>MOL_PROPERTY
Grad RMS
SciTegic.value.DoubleValue
0.000000

@<SCITEGIC>MOL_PROPERTY
U
SciTegic.value.DoubleValue
11.091

@<SCITEGIC>MOL_PROPERTY
W
SciTegic.value.DoubleValue
-61.099

@<SCITEGIC>MOL_PROPERTY
W(PB)
SciTegic.value.DoubleValue
-63.213

@<SCITEGIC>MOL_PROPERTY
W(SA)
SciTegic.value.DoubleValue
2.114

@<SCITEGIC>MOL_PROPERTY
Valence
SciTegic.value.DoubleValue
9.664

@<SCITEGIC>MOL_PROPERTY
Coulomb
SciTegic.value.DoubleValue
0.658

@<SCITEGIC>MOL_PROPERTY
VdW
SciTegic.value.DoubleValue
0.769

@<SCITEGIC>MOL_PROPERTY
VdW6
SciTegic.value.DoubleValue
-9.171

@<SCITEGIC>MOL_PROPERTY
VdW12
SciTegic.value.DoubleValue
9.940

@<SCITEGIC>MOL_PROPERTY
Bond
SciTegic.value.DoubleValue
0.244

@<SCITEGIC>MOL_PROPERTY
Angle
SciTegic.value.DoubleValue
3.658

@<SCITEGIC>MOL_PROPERTY
Pdih
SciTegic.value.DoubleValue
5.762

@<SCITEGIC>MOL_PROPERTY
Idih
SciTegic.value.DoubleValue
0.001

@<SCITEGIC>MOL_PROPERTY
Tether
SciTegic.value.DoubleValue
0.000

@<TRIPOS>MOLECULE
guest-s22_confgen4.mol2 : confsearch ligand conformer 475
          20          19           1
SMALL
USER_CHARGES
 
@<TRIPOS>ATOM
       1    C1      17.337570   19.606371   23.413842 C.2        1 MOL1        -0.2535
       2    H1      17.302104   20.377758   22.647757 H          1 MOL1         0.0845
       3    H2      16.384888   19.204265   23.753909 H          1 MOL1         0.0845
       4    C2      18.490374   19.165223   23.928926 C.2        1 MOL1        -0.1324
       5    H3      18.467609   18.392069   24.696425 H          1 MOL1         0.0833
       6    C3      19.887210   19.628393   23.548241 C.3        1 MOL1        -0.1813
       7    H4      20.575216   18.776723   23.618633 H          1 MOL1         0.0753
       8    H5      20.240223   20.337464   24.308625 H          1 MOL1         0.0753
       9    C4      20.028553   20.275296   22.145437 C.3        1 MOL1        -0.1855
      10    H6      19.385703   21.163461   22.087126 H          1 MOL1         0.0755
      11    H7      21.056278   20.645847   22.030974 H          1 MOL1         0.0755
      12    C5      19.707204   19.329268   20.960335 C.3        1 MOL1        -0.1855
      13    H8      19.755132   19.908258   20.027783 H          1 MOL1         0.0755
      14    H9      18.676654   18.958596   21.038859 H          1 MOL1         0.0755
      15    C6      20.677903   18.125121   20.847673 C.3        1 MOL1        -0.1958
      16    H10     21.716172   18.476311   20.819164 H          1 MOL1         0.0753
      17    H11     20.578778   17.468348   21.719261 H          1 MOL1         0.0753
      18    C7      20.430410   17.282898   19.601217 C.2        1 MOL1         0.6174
      19    O1      19.666048   16.341928   19.685342 O.co2      1 MOL1        -0.6695
      20    O2      20.998067   17.598782   18.574126 O.co2      1 MOL1        -0.6695
@<TRIPOS>BOND
    1     1     2    1
    2     1     3    1
    3     1     4    2
    4     4     5    1
    5     4     6    1
    6     6     7    1
    7     6     8    1
    8     6     9    1
    9     9    10    1
   10     9    11    1
   11     9    12    1
   12    12    13    1
   13    12    14    1
   14    12    15    1
   15    15    16    1
   16    15    17    1
   17    15    18    1
   18    18    19    1
   19    18    20    2
@<TRIPOS>SUBSTRUCTURE
       1 MOL1            1 RESIDUE      1      MOL     
@<SCITEGIC>MOL_PROPERTY
VConf Rank
SciTegic.value.IntegerValue
475

@<SCITEGIC>MOL_PROPERTY
Conf_Id
SciTegic.value.IntegerValue
64

@<SCITEGIC>MOL_PROPERTY
Delta U+W
SciTegic.value.DoubleValue
0.366

@<SCITEGIC>MOL_PROPERTY
U+W
SciTegic.value.DoubleValue
-51.379

@<SCITEGIC>MOL_PROPERTY
Grad RMS
SciTegic.value.DoubleValue
0.000000

@<SCITEGIC>MOL_PROPERTY
U
SciTegic.value.DoubleValue
10.000

@<SCITEGIC>MOL_PROPERTY
W
SciTegic.value.DoubleValue
-61.379

@<SCITEGIC>MOL_PROPERTY
W(PB)
SciTegic.value.DoubleValue
-63.541

@<SCITEGIC>MOL_PROPERTY
W(SA)
SciTegic.value.DoubleValue
2.162

@<SCITEGIC>MOL_PROPERTY
Valence
SciTegic.value.DoubleValue
9.398

@<SCITEGIC>MOL_PROPERTY
Coulomb
SciTegic.value.DoubleValue
-0.504

@<SCITEGIC>MOL_PROPERTY
VdW
SciTegic.value.DoubleValue
1.105

@<SCITEGIC>MOL_PROPERTY
VdW6
SciTegic.value.DoubleValue
-7.975

@<SCITEGIC>MOL_PROPERTY
VdW12
SciTegic.value.DoubleValue
9.080

@<SCITEGIC>MOL_PROPERTY
Bond
SciTegic.value.DoubleValue
0.216

@<SCITEGIC>MOL_PROPERTY
Angle
SciTegic.value.DoubleValue
3.417

@<SCITEGIC>MOL_PROPERTY
Pdih
SciTegic.value.DoubleValue
5.765

@<SCITEGIC>MOL_PROPERTY
Idih
SciTegic.value.DoubleValue
0.001

@<SCITEGIC>MOL_PROPERTY
Tether
SciTegic.value.DoubleValue
0.000

@<TRIPOS>MOLECULE
guest-s22_confgen4.mol2 : confsearch ligand conformer 476
          20          19           1
SMALL
USER_CHARGES
 
@<TRIPOS>ATOM
       1    C1      21.750409   17.839236   20.002905 C.2        1 MOL1        -0.2535
       2    H1      21.266703   16.888233   20.219787 H          1 MOL1         0.0845
       3    H2      22.829177   17.831035   19.856976 H          1 MOL1         0.0845
       4    C2      21.051543   18.974618   19.922232 C.2        1 MOL1        -0.1324
       5    H3      21.555380   19.916438   19.706558 H          1 MOL1         0.0833
       6    C3      19.552453   19.064707   20.113519 C.3        1 MOL1        -0.1813
       7    H4      19.102826   18.062490   20.122006 H          1 MOL1         0.0753
       8    H5      19.112800   19.594011   19.257724 H          1 MOL1         0.0753
       9    C4      19.171324   19.812118   21.411232 C.3        1 MOL1        -0.1855
      10    H6      19.621637   20.814232   21.402945 H          1 MOL1         0.0755
      11    H7      18.082463   19.956663   21.430510 H          1 MOL1         0.0755
      12    C5      19.605709   19.053271   22.686005 C.3        1 MOL1        -0.1855
      13    H8      20.697002   18.925698   22.691795 H          1 MOL1         0.0755
      14    H9      19.168105   18.045409   22.683855 H          1 MOL1         0.0755
      15    C6      19.174301   19.796426   23.974270 C.3        1 MOL1        -0.1958
      16    H10     19.614035   20.800773   23.996827 H          1 MOL1         0.0753
      17    H11     18.084736   19.918595   23.994506 H          1 MOL1         0.0753
      18    C7      19.592063   19.067228   25.246213 C.2        1 MOL1         0.6174
      19    O1      18.834418   18.235526   25.705553 O.co2      1 MOL1        -0.6695
      20    O2      20.670043   19.339907   25.736414 O.co2      1 MOL1        -0.6695
@<TRIPOS>BOND
    1     1     2    1
    2     1     3    1
    3     1     4    2
    4     4     5    1
    5     4     6    1
    6     6     7    1
    7     6     8    1
    8     6     9    1
    9     9    10    1
   10     9    11    1
   11     9    12    1
   12    12    13    1
   13    12    14    1
   14    12    15    1
   15    15    16    1
   16    15    17    1
   17    15    18    1
   18    18    19    1
   19    18    20    2
@<TRIPOS>SUBSTRUCTURE
       1 MOL1            1 RESIDUE      1      MOL     
@<SCITEGIC>MOL_PROPERTY
VConf Rank
SciTegic.value.IntegerValue
476

@<SCITEGIC>MOL_PROPERTY
Conf_Id
SciTegic.value.IntegerValue
42

@<SCITEGIC>MOL_PROPERTY
Delta U+W
SciTegic.value.DoubleValue
-0.601

@<SCITEGIC>MOL_PROPERTY
U+W
SciTegic.value.DoubleValue
-52.347

@<SCITEGIC>MOL_PROPERTY
Grad RMS
SciTegic.value.DoubleValue
0.000000

@<SCITEGIC>MOL_PROPERTY
U
SciTegic.value.DoubleValue
8.428

@<SCITEGIC>MOL_PROPERTY
W
SciTegic.value.DoubleValue
-60.774

@<SCITEGIC>MOL_PROPERTY
W(PB)
SciTegic.value.DoubleValue
-62.982

@<SCITEGIC>MOL_PROPERTY
W(SA)
SciTegic.value.DoubleValue
2.208

@<SCITEGIC>MOL_PROPERTY
Valence
SciTegic.value.DoubleValue
9.231

@<SCITEGIC>MOL_PROPERTY
Coulomb
SciTegic.value.DoubleValue
-1.304

@<SCITEGIC>MOL_PROPERTY
VdW
SciTegic.value.DoubleValue
0.501

@<SCITEGIC>MOL_PROPERTY
VdW6
SciTegic.value.DoubleValue
-6.515

@<SCITEGIC>MOL_PROPERTY
VdW12
SciTegic.value.DoubleValue
7.016

@<SCITEGIC>MOL_PROPERTY
Bond
SciTegic.value.DoubleValue
0.103

@<SCITEGIC>MOL_PROPERTY
Angle
SciTegic.value.DoubleValue
2.328

@<SCITEGIC>MOL_PROPERTY
Pdih
SciTegic.value.DoubleValue
6.799

@<SCITEGIC>MOL_PROPERTY
Idih
SciTegic.value.DoubleValue
0.000

@<SCITEGIC>MOL_PROPERTY
Tether
SciTegic.value.DoubleValue
0.000

@<TRIPOS>MOLECULE
guest-s22_confgen4.mol2 : confsearch ligand conformer 477
          20          19           1
SMALL
USER_CHARGES
 
@<TRIPOS>ATOM
       1    C1      22.458004   20.263548   22.625524 C.2        1 MOL1        -0.2535
       2    H1      22.907726   19.718278   21.797378 H          1 MOL1         0.0845
       3    H2      23.037864   20.349297   23.542860 H          1 MOL1         0.0845
       4    C2      21.240787   20.804254   22.525306 C.2        1 MOL1        -0.1324
       5    H3      20.807508   21.343676   23.367149 H          1 MOL1         0.0833
       6    C3      20.375756   20.725378   21.285385 C.3        1 MOL1        -0.1813
       7    H4      20.954830   20.344012   20.433421 H          1 MOL1         0.0753
       8    H5      20.049840   21.737246   21.010228 H          1 MOL1         0.0753
       9    C4      19.126880   19.840548   21.498325 C.3        1 MOL1        -0.1855
      10    H6      18.545657   20.227779   22.346599 H          1 MOL1         0.0755
      11    H7      18.480132   19.919732   20.613911 H          1 MOL1         0.0755
      12    C5      19.482402   18.353943   21.736822 C.3        1 MOL1        -0.1855
      13    H8      20.095244   18.255326   22.643493 H          1 MOL1         0.0755
      14    H9      20.095276   17.990045   20.901242 H          1 MOL1         0.0755
      15    C6      18.226036   17.454700   21.869977 C.3        1 MOL1        -0.1958
      16    H10     17.589535   17.558470   20.982946 H          1 MOL1         0.0753
      17    H11     18.532010   16.403091   21.919870 H          1 MOL1         0.0753
      18    C7      17.384636   17.745341   23.109487 C.2        1 MOL1         0.6174
      19    O1      16.354807   18.375878   22.971500 O.co2      1 MOL1        -0.6695
      20    O2      17.773040   17.317010   24.178492 O.co2      1 MOL1        -0.6695
@<TRIPOS>BOND
    1     1     2    1
    2     1     3    1
    3     1     4    2
    4     4     5    1
    5     4     6    1
    6     6     7    1
    7     6     8    1
    8     6     9    1
    9     9    10    1
   10     9    11    1
   11     9    12    1
   12    12    13    1
   13    12    14    1
   14    12    15    1
   15    15    16    1
   16    15    17    1
   17    15    18    1
   18    18    19    1
   19    18    20    2
@<TRIPOS>SUBSTRUCTURE
       1 MOL1            1 RESIDUE      1      MOL     
@<SCITEGIC>MOL_PROPERTY
VConf Rank
SciTegic.value.IntegerValue
477

@<SCITEGIC>MOL_PROPERTY
Conf_Id
SciTegic.value.IntegerValue
68

@<SCITEGIC>MOL_PROPERTY
Delta U+W
SciTegic.value.DoubleValue
0.492

@<SCITEGIC>MOL_PROPERTY
U+W
SciTegic.value.DoubleValue
-51.253

@<SCITEGIC>MOL_PROPERTY
Grad RMS
SciTegic.value.DoubleValue
0.000000

@<SCITEGIC>MOL_PROPERTY
U
SciTegic.value.DoubleValue
10.179

@<SCITEGIC>MOL_PROPERTY
W
SciTegic.value.DoubleValue
-61.432

@<SCITEGIC>MOL_PROPERTY
W(PB)
SciTegic.value.DoubleValue
-63.627

@<SCITEGIC>MOL_PROPERTY
W(SA)
SciTegic.value.DoubleValue
2.195

@<SCITEGIC>MOL_PROPERTY
Valence
SciTegic.value.DoubleValue
9.483

@<SCITEGIC>MOL_PROPERTY
Coulomb
SciTegic.value.DoubleValue
0.361

@<SCITEGIC>MOL_PROPERTY
VdW
SciTegic.value.DoubleValue
0.335

@<SCITEGIC>MOL_PROPERTY
VdW6
SciTegic.value.DoubleValue
-7.385

@<SCITEGIC>MOL_PROPERTY
VdW12
SciTegic.value.DoubleValue
7.720

@<SCITEGIC>MOL_PROPERTY
Bond
SciTegic.value.DoubleValue
0.125

@<SCITEGIC>MOL_PROPERTY
Angle
SciTegic.value.DoubleValue
2.487

@<SCITEGIC>MOL_PROPERTY
Pdih
SciTegic.value.DoubleValue
6.870

@<SCITEGIC>MOL_PROPERTY
Idih
SciTegic.value.DoubleValue
0.001

@<SCITEGIC>MOL_PROPERTY
Tether
SciTegic.value.DoubleValue
0.000

@<TRIPOS>MOLECULE
guest-s22_confgen4.mol2 : confsearch ligand conformer 478
          20          19           1
SMALL
USER_CHARGES
 
@<TRIPOS>ATOM
       1    C1      20.977500   18.193149   19.378432 C.2        1 MOL1        -0.2535
       2    H1      21.933361   18.714113   19.358032 H          1 MOL1         0.0845
       3    H2      20.506179   17.973118   18.422074 H          1 MOL1         0.0845
       4    C2      20.400580   17.839226   20.529778 C.2        1 MOL1        -0.1324
       5    H3      19.444819   17.316004   20.527321 H          1 MOL1         0.0833
       6    C3      20.998634   18.106100   21.894655 C.3        1 MOL1        -0.1813
       7    H4      22.074278   18.305224   21.795362 H          1 MOL1         0.0753
       8    H5      20.908747   17.210659   22.524021 H          1 MOL1         0.0753
       9    C4      20.335734   19.309614   22.601973 C.3        1 MOL1        -0.1855
      10    H6      20.895015   19.532509   23.520814 H          1 MOL1         0.0755
      11    H7      20.419411   20.198636   21.961476 H          1 MOL1         0.0755
      12    C5      18.852340   19.054475   22.959992 C.3        1 MOL1        -0.1855
      13    H8      18.776638   18.136617   23.558420 H          1 MOL1         0.0755
      14    H9      18.268037   18.885473   22.045201 H          1 MOL1         0.0755
      15    C6      18.222252   20.227156   23.755393 C.3        1 MOL1        -0.1958
      16    H10     17.213807   19.947814   24.082522 H          1 MOL1         0.0753
      17    H11     18.805890   20.427591   24.662010 H          1 MOL1         0.0753
      18    C7      18.101514   21.522645   22.957915 C.2        1 MOL1         0.6174
      19    O1      17.199953   21.614188   22.148029 O.co2      1 MOL1        -0.6695
      20    O2      18.898785   22.412479   23.180800 O.co2      1 MOL1        -0.6695
@<TRIPOS>BOND
    1     1     2    1
    2     1     3    1
    3     1     4    2
    4     4     5    1
    5     4     6    1
    6     6     7    1
    7     6     8    1
    8     6     9    1
    9     9    10    1
   10     9    11    1
   11     9    12    1
   12    12    13    1
   13    12    14    1
   14    12    15    1
   15    15    16    1
   16    15    17    1
   17    15    18    1
   18    18    19    1
   19    18    20    2
@<TRIPOS>SUBSTRUCTURE
       1 MOL1            1 RESIDUE      1      MOL     
@<SCITEGIC>MOL_PROPERTY
VConf Rank
SciTegic.value.IntegerValue
478

@<SCITEGIC>MOL_PROPERTY
Conf_Id
SciTegic.value.IntegerValue
87

@<SCITEGIC>MOL_PROPERTY
Delta U+W
SciTegic.value.DoubleValue
0.339

@<SCITEGIC>MOL_PROPERTY
U+W
SciTegic.value.DoubleValue
-51.407

@<SCITEGIC>MOL_PROPERTY
Grad RMS
SciTegic.value.DoubleValue
0.000000

@<SCITEGIC>MOL_PROPERTY
U
SciTegic.value.DoubleValue
10.461

@<SCITEGIC>MOL_PROPERTY
W
SciTegic.value.DoubleValue
-61.867

@<SCITEGIC>MOL_PROPERTY
W(PB)
SciTegic.value.DoubleValue
-64.045

@<SCITEGIC>MOL_PROPERTY
W(SA)
SciTegic.value.DoubleValue
2.178

@<SCITEGIC>MOL_PROPERTY
Valence
SciTegic.value.DoubleValue
9.555

@<SCITEGIC>MOL_PROPERTY
Coulomb
SciTegic.value.DoubleValue
0.483

@<SCITEGIC>MOL_PROPERTY
VdW
SciTegic.value.DoubleValue
0.423

@<SCITEGIC>MOL_PROPERTY
VdW6
SciTegic.value.DoubleValue
-7.223

@<SCITEGIC>MOL_PROPERTY
VdW12
SciTegic.value.DoubleValue
7.646

@<SCITEGIC>MOL_PROPERTY
Bond
SciTegic.value.DoubleValue
0.126

@<SCITEGIC>MOL_PROPERTY
Angle
SciTegic.value.DoubleValue
2.492

@<SCITEGIC>MOL_PROPERTY
Pdih
SciTegic.value.DoubleValue
6.936

@<SCITEGIC>MOL_PROPERTY
Idih
SciTegic.value.DoubleValue
0.001

@<SCITEGIC>MOL_PROPERTY
Tether
SciTegic.value.DoubleValue
0.000

@<TRIPOS>MOLECULE
guest-s22_confgen4.mol2 : confsearch ligand conformer 479
          20          19           1
SMALL
USER_CHARGES
 
@<TRIPOS>ATOM
       1    C1      20.536279   20.497306   24.110463 C.2        1 MOL1        -0.2535
       2    H1      19.623457   20.782623   24.630815 H          1 MOL1         0.0845
       3    H2      21.419794   20.303069   24.716014 H          1 MOL1         0.0845
       4    C2      20.572436   20.386824   22.779974 C.2        1 MOL1        -0.1324
       5    H3      21.497812   20.108906   22.276756 H          1 MOL1         0.0833
       6    C3      19.387471   20.653782   21.876536 C.3        1 MOL1        -0.1813
       7    H4      19.726964   20.840988   20.849095 H          1 MOL1         0.0753
       8    H5      18.902931   21.583484   22.204075 H          1 MOL1         0.0753
       9    C4      18.332042   19.520156   21.887914 C.3        1 MOL1        -0.1855
      10    H6      18.130842   19.204471   22.920772 H          1 MOL1         0.0755
      11    H7      17.387535   19.935273   21.510665 H          1 MOL1         0.0755
      12    C5      18.686364   18.289984   21.014855 C.3        1 MOL1        -0.1855
      13    H8      18.900445   18.611115   19.986223 H          1 MOL1         0.0755
      14    H9      17.800448   17.642502   20.956458 H          1 MOL1         0.0755
      15    C6      19.871537   17.447469   21.552253 C.3        1 MOL1        -0.1958
      16    H10     20.806613   18.012578   21.486196 H          1 MOL1         0.0753
      17    H11     19.712798   17.199099   22.608396 H          1 MOL1         0.0753
      18    C7      20.066779   16.146054   20.782948 C.2        1 MOL1         0.6174
      19    O1      20.779911   16.162112   19.799039 O.co2      1 MOL1        -0.6695
      20    O2      19.483896   15.154515   21.175351 O.co2      1 MOL1        -0.6695
@<TRIPOS>BOND
    1     1     2    1
    2     1     3    1
    3     1     4    2
    4     4     5    1
    5     4     6    1
    6     6     7    1
    7     6     8    1
    8     6     9    1
    9     9    10    1
   10     9    11    1
   11     9    12    1
   12    12    13    1
   13    12    14    1
   14    12    15    1
   15    15    16    1
   16    15    17    1
   17    15    18    1
   18    18    19    1
   19    18    20    2
@<TRIPOS>SUBSTRUCTURE
       1 MOL1            1 RESIDUE      1      MOL     
@<SCITEGIC>MOL_PROPERTY
VConf Rank
SciTegic.value.IntegerValue
479

@<SCITEGIC>MOL_PROPERTY
Conf_Id
SciTegic.value.IntegerValue
51

@<SCITEGIC>MOL_PROPERTY
Delta U+W
SciTegic.value.DoubleValue
1.709

@<SCITEGIC>MOL_PROPERTY
U+W
SciTegic.value.DoubleValue
-50.036

@<SCITEGIC>MOL_PROPERTY
Grad RMS
SciTegic.value.DoubleValue
0.000000

@<SCITEGIC>MOL_PROPERTY
U
SciTegic.value.DoubleValue
10.643

@<SCITEGIC>MOL_PROPERTY
W
SciTegic.value.DoubleValue
-60.679

@<SCITEGIC>MOL_PROPERTY
W(PB)
SciTegic.value.DoubleValue
-62.882

@<SCITEGIC>MOL_PROPERTY
W(SA)
SciTegic.value.DoubleValue
2.203

@<SCITEGIC>MOL_PROPERTY
Valence
SciTegic.value.DoubleValue
11.231

@<SCITEGIC>MOL_PROPERTY
Coulomb
SciTegic.value.DoubleValue
-1.077

@<SCITEGIC>MOL_PROPERTY
VdW
SciTegic.value.DoubleValue
0.489

@<SCITEGIC>MOL_PROPERTY
VdW6
SciTegic.value.DoubleValue
-7.546

@<SCITEGIC>MOL_PROPERTY
VdW12
SciTegic.value.DoubleValue
8.035

@<SCITEGIC>MOL_PROPERTY
Bond
SciTegic.value.DoubleValue
0.159

@<SCITEGIC>MOL_PROPERTY
Angle
SciTegic.value.DoubleValue
3.005

@<SCITEGIC>MOL_PROPERTY
Pdih
SciTegic.value.DoubleValue
8.065

@<SCITEGIC>MOL_PROPERTY
Idih
SciTegic.value.DoubleValue
0.002

@<SCITEGIC>MOL_PROPERTY
Tether
SciTegic.value.DoubleValue
0.000

@<TRIPOS>MOLECULE
guest-s22_confgen4.mol2 : confsearch ligand conformer 480
          20          19           1
SMALL
USER_CHARGES
 
@<TRIPOS>ATOM
       1    C1      18.081826   19.920744   19.716058 C.2        1 MOL1        -0.2535
       2    H1      17.552418   20.798090   20.084038 H          1 MOL1         0.0845
       3    H2      17.554502   19.271517   19.019312 H          1 MOL1         0.0845
       4    C2      19.329906   19.647912   20.105380 C.2        1 MOL1        -0.1324
       5    H3      19.846344   18.769933   19.719063 H          1 MOL1         0.0833
       6    C3      20.126201   20.511910   21.059855 C.3        1 MOL1        -0.1813
       7    H4      20.003558   21.562251   20.762955 H          1 MOL1         0.0753
       8    H5      21.198872   20.298142   20.961801 H          1 MOL1         0.0753
       9    C4      19.689574   20.365953   22.538782 C.3        1 MOL1        -0.1855
      10    H6      20.050756   21.247724   23.085375 H          1 MOL1         0.0755
      11    H7      18.593763   20.394674   22.611607 H          1 MOL1         0.0755
      12    C5      20.238103   19.108985   23.260068 C.3        1 MOL1        -0.1855
      13    H8      20.017845   19.203735   24.332447 H          1 MOL1         0.0755
      14    H9      21.332816   19.076236   23.173068 H          1 MOL1         0.0755
      15    C6      19.637630   17.771883   22.755228 C.3        1 MOL1        -0.1958
      16    H10     18.542469   17.825796   22.748983 H          1 MOL1         0.0753
      17    H11     19.960824   17.567775   21.729572 H          1 MOL1         0.0753
      18    C7      20.049107   16.579866   23.611617 C.2        1 MOL1         0.6174
      19    O1      21.077681   15.997593   23.328984 O.co2      1 MOL1        -0.6695
      20    O2      19.341049   16.277059   24.551746 O.co2      1 MOL1        -0.6695
@<TRIPOS>BOND
    1     1     2    1
    2     1     3    1
    3     1     4    2
    4     4     5    1
    5     4     6    1
    6     6     7    1
    7     6     8    1
    8     6     9    1
    9     9    10    1
   10     9    11    1
   11     9    12    1
   12    12    13    1
   13    12    14    1
   14    12    15    1
   15    15    16    1
   16    15    17    1
   17    15    18    1
   18    18    19    1
   19    18    20    2
@<TRIPOS>SUBSTRUCTURE
       1 MOL1            1 RESIDUE      1      MOL     
@<SCITEGIC>MOL_PROPERTY
VConf Rank
SciTegic.value.IntegerValue
480

@<SCITEGIC>MOL_PROPERTY
Conf_Id
SciTegic.value.IntegerValue
91

@<SCITEGIC>MOL_PROPERTY
Delta U+W
SciTegic.value.DoubleValue
1.604

@<SCITEGIC>MOL_PROPERTY
U+W
SciTegic.value.DoubleValue
-50.141

@<SCITEGIC>MOL_PROPERTY
Grad RMS
SciTegic.value.DoubleValue
0.000000

@<SCITEGIC>MOL_PROPERTY
U
SciTegic.value.DoubleValue
10.644

@<SCITEGIC>MOL_PROPERTY
W
SciTegic.value.DoubleValue
-60.786

@<SCITEGIC>MOL_PROPERTY
W(PB)
SciTegic.value.DoubleValue
-62.965

@<SCITEGIC>MOL_PROPERTY
W(SA)
SciTegic.value.DoubleValue
2.179

@<SCITEGIC>MOL_PROPERTY
Valence
SciTegic.value.DoubleValue
11.230

@<SCITEGIC>MOL_PROPERTY
Coulomb
SciTegic.value.DoubleValue
-1.075

@<SCITEGIC>MOL_PROPERTY
VdW
SciTegic.value.DoubleValue
0.489

@<SCITEGIC>MOL_PROPERTY
VdW6
SciTegic.value.DoubleValue
-7.547

@<SCITEGIC>MOL_PROPERTY
VdW12
SciTegic.value.DoubleValue
8.036

@<SCITEGIC>MOL_PROPERTY
Bond
SciTegic.value.DoubleValue
0.159

@<SCITEGIC>MOL_PROPERTY
Angle
SciTegic.value.DoubleValue
3.006

@<SCITEGIC>MOL_PROPERTY
Pdih
SciTegic.value.DoubleValue
8.064

@<SCITEGIC>MOL_PROPERTY
Idih
SciTegic.value.DoubleValue
0.002

@<SCITEGIC>MOL_PROPERTY
Tether
SciTegic.value.DoubleValue
0.000

@<TRIPOS>MOLECULE
guest-s22_confgen4.mol2 : confsearch ligand conformer 481
          20          19           1
SMALL
USER_CHARGES
 
@<TRIPOS>ATOM
       1    C1      18.569698   19.247257   25.352594 C.2        1 MOL1        -0.2535
       2    H1      19.602589   19.363764   25.676868 H          1 MOL1         0.0845
       3    H2      17.844288   18.924108   26.097330 H          1 MOL1         0.0845
       4    C2      18.203150   19.487794   24.091073 C.2        1 MOL1        -0.1324
       5    H3      17.164000   19.364387   23.786780 H          1 MOL1         0.0833
       6    C3      19.152659   19.939535   23.003873 C.3        1 MOL1        -0.1813
       7    H4      20.097998   20.285137   23.443984 H          1 MOL1         0.0753
       8    H5      18.720141   20.797034   22.471174 H          1 MOL1         0.0753
       9    C4      19.437818   18.799347   22.004109 C.3        1 MOL1        -0.1855
      10    H6      19.866335   17.942743   22.542614 H          1 MOL1         0.0755
      11    H7      18.492544   18.457143   21.560809 H          1 MOL1         0.0755
      12    C5      20.404164   19.244716   20.884762 C.3        1 MOL1        -0.1855
      13    H8      21.350059   19.586673   21.327358 H          1 MOL1         0.0755
      14    H9      19.976725   20.102174   20.346630 H          1 MOL1         0.0755
      15    C6      20.691263   18.097464   19.879881 C.3        1 MOL1        -0.1958
      16    H10     21.124094   17.240582   20.409337 H          1 MOL1         0.0753
      17    H11     19.752091   17.755475   19.429428 H          1 MOL1         0.0753
      18    C7      21.642059   18.454553   18.736294 C.2        1 MOL1         0.6174
      19    O1      21.889857   17.581757   17.928235 O.co2      1 MOL1        -0.6695
      20    O2      22.111544   19.574297   18.669933 O.co2      1 MOL1        -0.6695
@<TRIPOS>BOND
    1     1     2    1
    2     1     3    1
    3     1     4    2
    4     4     5    1
    5     4     6    1
    6     6     7    1
    7     6     8    1
    8     6     9    1
    9     9    10    1
   10     9    11    1
   11     9    12    1
   12    12    13    1
   13    12    14    1
   14    12    15    1
   15    15    16    1
   16    15    17    1
   17    15    18    1
   18    18    19    1
   19    18    20    2
@<TRIPOS>SUBSTRUCTURE
       1 MOL1            1 RESIDUE      1      MOL     
@<SCITEGIC>MOL_PROPERTY
VConf Rank
SciTegic.value.IntegerValue
481

@<SCITEGIC>MOL_PROPERTY
Conf_Id
SciTegic.value.IntegerValue
33

@<SCITEGIC>MOL_PROPERTY
Delta U+W
SciTegic.value.DoubleValue
0.000

@<SCITEGIC>MOL_PROPERTY
U+W
SciTegic.value.DoubleValue
-51.745

@<SCITEGIC>MOL_PROPERTY
Grad RMS
SciTegic.value.DoubleValue
0.000000

@<SCITEGIC>MOL_PROPERTY
U
SciTegic.value.DoubleValue
7.593

@<SCITEGIC>MOL_PROPERTY
W
SciTegic.value.DoubleValue
-59.338

@<SCITEGIC>MOL_PROPERTY
W(PB)
SciTegic.value.DoubleValue
-61.574

@<SCITEGIC>MOL_PROPERTY
W(SA)
SciTegic.value.DoubleValue
2.236

@<SCITEGIC>MOL_PROPERTY
Valence
SciTegic.value.DoubleValue
9.570

@<SCITEGIC>MOL_PROPERTY
Coulomb
SciTegic.value.DoubleValue
-3.091

@<SCITEGIC>MOL_PROPERTY
VdW
SciTegic.value.DoubleValue
1.114

@<SCITEGIC>MOL_PROPERTY
VdW6
SciTegic.value.DoubleValue
-6.064

@<SCITEGIC>MOL_PROPERTY
VdW12
SciTegic.value.DoubleValue
7.178

@<SCITEGIC>MOL_PROPERTY
Bond
SciTegic.value.DoubleValue
0.117

@<SCITEGIC>MOL_PROPERTY
Angle
SciTegic.value.DoubleValue
2.692

@<SCITEGIC>MOL_PROPERTY
Pdih
SciTegic.value.DoubleValue
6.761

@<SCITEGIC>MOL_PROPERTY
Idih
SciTegic.value.DoubleValue
0.000

@<SCITEGIC>MOL_PROPERTY
Tether
SciTegic.value.DoubleValue
0.000

@<TRIPOS>MOLECULE
guest-s22_confgen4.mol2 : confsearch ligand conformer 482
          20          19           1
SMALL
USER_CHARGES
 
@<TRIPOS>ATOM
       1    C1      16.549750   20.002185   20.443670 C.2        1 MOL1        -0.2535
       2    H1      16.109825   20.037451   21.439060 H          1 MOL1         0.0845
       3    H2      15.874022   20.085257   19.594111 H          1 MOL1         0.0845
       4    C2      17.865953   19.860171   20.267273 C.2        1 MOL1        -0.1324
       5    H3      18.286131   19.826312   19.262318 H          1 MOL1         0.0833
       6    C3      18.864666   19.739600   21.396768 C.3        1 MOL1        -0.1813
       7    H4      18.401126   20.038043   22.346851 H          1 MOL1         0.0753
       8    H5      19.696037   20.432965   21.217552 H          1 MOL1         0.0753
       9    C4      19.396034   18.293440   21.515429 C.3        1 MOL1        -0.1855
      10    H6      18.541256   17.609388   21.609063 H          1 MOL1         0.0755
      11    H7      19.916853   18.013874   20.589371 H          1 MOL1         0.0755
      12    C5      20.335072   18.078268   22.726250 C.3        1 MOL1        -0.1855
      13    H8      20.573407   17.008194   22.801301 H          1 MOL1         0.0755
      14    H9      19.811080   18.344870   23.654553 H          1 MOL1         0.0755
      15    C6      21.660313   18.878112   22.631583 C.3        1 MOL1        -0.1958
      16    H10     22.172148   18.652485   21.688450 H          1 MOL1         0.0753
      17    H11     21.463289   19.955947   22.645606 H          1 MOL1         0.0753
      18    C7      22.618730   18.567473   23.775659 C.2        1 MOL1         0.6174
      19    O1      22.532166   19.227851   24.792082 O.co2      1 MOL1        -0.6695
      20    O2      23.413506   17.660165   23.627816 O.co2      1 MOL1        -0.6695
@<TRIPOS>BOND
    1     1     2    1
    2     1     3    1
    3     1     4    2
    4     4     5    1
    5     4     6    1
    6     6     7    1
    7     6     8    1
    8     6     9    1
    9     9    10    1
   10     9    11    1
   11     9    12    1
   12    12    13    1
   13    12    14    1
   14    12    15    1
   15    15    16    1
   16    15    17    1
   17    15    18    1
   18    18    19    1
   19    18    20    2
@<TRIPOS>SUBSTRUCTURE
       1 MOL1            1 RESIDUE      1      MOL     
@<SCITEGIC>MOL_PROPERTY
VConf Rank
SciTegic.value.IntegerValue
482

@<SCITEGIC>MOL_PROPERTY
Conf_Id
SciTegic.value.IntegerValue
37

@<SCITEGIC>MOL_PROPERTY
Delta U+W
SciTegic.value.DoubleValue
-0.384

@<SCITEGIC>MOL_PROPERTY
U+W
SciTegic.value.DoubleValue
-52.130

@<SCITEGIC>MOL_PROPERTY
Grad RMS
SciTegic.value.DoubleValue
0.000000

@<SCITEGIC>MOL_PROPERTY
U
SciTegic.value.DoubleValue
7.491

@<SCITEGIC>MOL_PROPERTY
W
SciTegic.value.DoubleValue
-59.621

@<SCITEGIC>MOL_PROPERTY
W(PB)
SciTegic.value.DoubleValue
-61.853

@<SCITEGIC>MOL_PROPERTY
W(SA)
SciTegic.value.DoubleValue
2.232

@<SCITEGIC>MOL_PROPERTY
Valence
SciTegic.value.DoubleValue
9.604

@<SCITEGIC>MOL_PROPERTY
Coulomb
SciTegic.value.DoubleValue
-2.799

@<SCITEGIC>MOL_PROPERTY
VdW
SciTegic.value.DoubleValue
0.686

@<SCITEGIC>MOL_PROPERTY
VdW6
SciTegic.value.DoubleValue
-6.435

@<SCITEGIC>MOL_PROPERTY
VdW12
SciTegic.value.DoubleValue
7.121

@<SCITEGIC>MOL_PROPERTY
Bond
SciTegic.value.DoubleValue
0.124

@<SCITEGIC>MOL_PROPERTY
Angle
SciTegic.value.DoubleValue
2.493

@<SCITEGIC>MOL_PROPERTY
Pdih
SciTegic.value.DoubleValue
6.986

@<SCITEGIC>MOL_PROPERTY
Idih
SciTegic.value.DoubleValue
0.001

@<SCITEGIC>MOL_PROPERTY
Tether
SciTegic.value.DoubleValue
0.000

@<TRIPOS>MOLECULE
guest-s22_confgen4.mol2 : confsearch ligand conformer 483
          20          19           1
SMALL
USER_CHARGES
 
@<TRIPOS>ATOM
       1    C1      20.960572   17.867992   24.820522 C.2        1 MOL1        -0.2535
       2    H1      21.334464   17.510002   25.778248 H          1 MOL1         0.0845
       3    H2      21.198555   17.267387   23.945203 H          1 MOL1         0.0845
       4    C2      20.244370   18.995494   24.744970 C.2        1 MOL1        -0.1324
       5    H3      20.038322   19.554509   25.657480 H          1 MOL1         0.0833
       6    C3      19.658868   19.617346   23.488187 C.3        1 MOL1        -0.1813
       7    H4      20.044655   20.640729   23.388242 H          1 MOL1         0.0753
       8    H5      18.573427   19.721618   23.618876 H          1 MOL1         0.0753
       9    C4      19.939885   18.839575   22.181250 C.3        1 MOL1        -0.1855
      10    H6      21.024899   18.749828   22.033684 H          1 MOL1         0.0755
      11    H7      19.537731   17.820734   22.266830 H          1 MOL1         0.0755
      12    C5      19.312163   19.536465   20.954330 C.3        1 MOL1        -0.1855
      13    H8      19.710495   20.556577   20.863181 H          1 MOL1         0.0755
      14    H9      18.226373   19.629385   21.095860 H          1 MOL1         0.0755
      15    C6      19.592155   18.759543   19.644337 C.3        1 MOL1        -0.1958
      16    H10     20.672800   18.669448   19.480962 H          1 MOL1         0.0753
      17    H11     19.188706   17.742184   19.713703 H          1 MOL1         0.0753
      18    C7      18.982011   19.428201   18.417713 C.2        1 MOL1         0.6174
      19    O1      19.649302   20.249894   17.820896 O.co2      1 MOL1        -0.6695
      20    O2      17.848309   19.124231   18.103118 O.co2      1 MOL1        -0.6695
@<TRIPOS>BOND
    1     1     2    1
    2     1     3    1
    3     1     4    2
    4     4     5    1
    5     4     6    1
    6     6     7    1
    7     6     8    1
    8     6     9    1
    9     9    10    1
   10     9    11    1
   11     9    12    1
   12    12    13    1
   13    12    14    1
   14    12    15    1
   15    15    16    1
   16    15    17    1
   17    15    18    1
   18    18    19    1
   19    18    20    2
@<TRIPOS>SUBSTRUCTURE
       1 MOL1            1 RESIDUE      1      MOL     
@<SCITEGIC>MOL_PROPERTY
VConf Rank
SciTegic.value.IntegerValue
483

@<SCITEGIC>MOL_PROPERTY
Conf_Id
SciTegic.value.IntegerValue
44

@<SCITEGIC>MOL_PROPERTY
Delta U+W
SciTegic.value.DoubleValue
-1.440

@<SCITEGIC>MOL_PROPERTY
U+W
SciTegic.value.DoubleValue
-53.185

@<SCITEGIC>MOL_PROPERTY
Grad RMS
SciTegic.value.DoubleValue
0.000000

@<SCITEGIC>MOL_PROPERTY
U
SciTegic.value.DoubleValue
6.572

@<SCITEGIC>MOL_PROPERTY
W
SciTegic.value.DoubleValue
-59.757

@<SCITEGIC>MOL_PROPERTY
W(PB)
SciTegic.value.DoubleValue
-62.007

@<SCITEGIC>MOL_PROPERTY
W(SA)
SciTegic.value.DoubleValue
2.249

@<SCITEGIC>MOL_PROPERTY
Valence
SciTegic.value.DoubleValue
7.989

@<SCITEGIC>MOL_PROPERTY
Coulomb
SciTegic.value.DoubleValue
-2.697

@<SCITEGIC>MOL_PROPERTY
VdW
SciTegic.value.DoubleValue
1.281

@<SCITEGIC>MOL_PROPERTY
VdW6
SciTegic.value.DoubleValue
-6.467

@<SCITEGIC>MOL_PROPERTY
VdW12
SciTegic.value.DoubleValue
7.748

@<SCITEGIC>MOL_PROPERTY
Bond
SciTegic.value.DoubleValue
0.136

@<SCITEGIC>MOL_PROPERTY
Angle
SciTegic.value.DoubleValue
2.854

@<SCITEGIC>MOL_PROPERTY
Pdih
SciTegic.value.DoubleValue
4.997

@<SCITEGIC>MOL_PROPERTY
Idih
SciTegic.value.DoubleValue
0.001

@<SCITEGIC>MOL_PROPERTY
Tether
SciTegic.value.DoubleValue
0.000

@<TRIPOS>MOLECULE
guest-s22_confgen4.mol2 : confsearch ligand conformer 484
          20          19           1
SMALL
USER_CHARGES
 
@<TRIPOS>ATOM
       1    C1      23.208673   19.626055   21.932229 C.2        1 MOL1        -0.2535
       2    H1      23.109367   19.156096   22.909396 H          1 MOL1         0.0845
       3    H2      24.146207   20.134609   21.713924 H          1 MOL1         0.0845
       4    C2      22.220571   19.584966   21.034630 C.2        1 MOL1        -0.1324
       5    H3      22.340176   20.062382   20.062311 H          1 MOL1         0.0833
       6    C3      20.893203   18.897521   21.265737 C.3        1 MOL1        -0.1813
       7    H4      20.965424   18.229899   22.133876 H          1 MOL1         0.0753
       8    H5      20.651195   18.267053   20.399785 H          1 MOL1         0.0753
       9    C4      19.764653   19.929700   21.486968 C.3        1 MOL1        -0.1855
      10    H6      19.980904   20.523842   22.385536 H          1 MOL1         0.0755
      11    H7      19.757124   20.634357   20.644064 H          1 MOL1         0.0755
      12    C5      18.359917   19.292419   21.609082 C.3        1 MOL1        -0.1855
      13    H8      18.138305   18.705759   20.706813 H          1 MOL1         0.0755
      14    H9      17.611150   20.095742   21.648083 H          1 MOL1         0.0755
      15    C6      18.193645   18.396005   22.863615 C.3        1 MOL1        -0.1958
      16    H10     18.864571   17.531151   22.812744 H          1 MOL1         0.0753
      17    H11     18.454838   18.958393   23.767990 H          1 MOL1         0.0753
      18    C7      16.772137   17.870362   23.027772 C.2        1 MOL1         0.6174
      19    O1      15.985293   18.535799   23.671825 O.co2      1 MOL1        -0.6695
      20    O2      16.483432   16.819236   22.490654 O.co2      1 MOL1        -0.6695
@<TRIPOS>BOND
    1     1     2    1
    2     1     3    1
    3     1     4    2
    4     4     5    1
    5     4     6    1
    6     6     7    1
    7     6     8    1
    8     6     9    1
    9     9    10    1
   10     9    11    1
   11     9    12    1
   12    12    13    1
   13    12    14    1
   14    12    15    1
   15    15    16    1
   16    15    17    1
   17    15    18    1
   18    18    19    1
   19    18    20    2
@<TRIPOS>SUBSTRUCTURE
       1 MOL1            1 RESIDUE      1      MOL     
@<SCITEGIC>MOL_PROPERTY
VConf Rank
SciTegic.value.IntegerValue
484

@<SCITEGIC>MOL_PROPERTY
Conf_Id
SciTegic.value.IntegerValue
38

@<SCITEGIC>MOL_PROPERTY
Delta U+W
SciTegic.value.DoubleValue
-0.381

@<SCITEGIC>MOL_PROPERTY
U+W
SciTegic.value.DoubleValue
-52.126

@<SCITEGIC>MOL_PROPERTY
Grad RMS
SciTegic.value.DoubleValue
0.000000

@<SCITEGIC>MOL_PROPERTY
U
SciTegic.value.DoubleValue
7.601

@<SCITEGIC>MOL_PROPERTY
W
SciTegic.value.DoubleValue
-59.727

@<SCITEGIC>MOL_PROPERTY
W(PB)
SciTegic.value.DoubleValue
-61.964

@<SCITEGIC>MOL_PROPERTY
W(SA)
SciTegic.value.DoubleValue
2.236

@<SCITEGIC>MOL_PROPERTY
Valence
SciTegic.value.DoubleValue
9.602

@<SCITEGIC>MOL_PROPERTY
Coulomb
SciTegic.value.DoubleValue
-2.686

@<SCITEGIC>MOL_PROPERTY
VdW
SciTegic.value.DoubleValue
0.685

@<SCITEGIC>MOL_PROPERTY
VdW6
SciTegic.value.DoubleValue
-6.453

@<SCITEGIC>MOL_PROPERTY
VdW12
SciTegic.value.DoubleValue
7.139

@<SCITEGIC>MOL_PROPERTY
Bond
SciTegic.value.DoubleValue
0.125

@<SCITEGIC>MOL_PROPERTY
Angle
SciTegic.value.DoubleValue
2.485

@<SCITEGIC>MOL_PROPERTY
Pdih
SciTegic.value.DoubleValue
6.991

@<SCITEGIC>MOL_PROPERTY
Idih
SciTegic.value.DoubleValue
0.001

@<SCITEGIC>MOL_PROPERTY
Tether
SciTegic.value.DoubleValue
0.000

@<TRIPOS>MOLECULE
guest-s22_confgen4.mol2 : confsearch ligand conformer 485
          20          19           1
SMALL
USER_CHARGES
 
@<TRIPOS>ATOM
       1    C1      21.667692   16.471621   23.166332 C.2        1 MOL1        -0.2535
       2    H1      22.457615   17.114895   23.550777 H          1 MOL1         0.0845
       3    H2      21.599295   15.464302   23.573638 H          1 MOL1         0.0845
       4    C2      20.812566   16.898299   22.233396 C.2        1 MOL1        -0.1324
       5    H3      20.028260   16.238694   21.862660 H          1 MOL1         0.0833
       6    C3      20.846089   18.281033   21.621374 C.3        1 MOL1        -0.1813
       7    H4      20.791089   18.200018   20.527510 H          1 MOL1         0.0753
       8    H5      21.798207   18.776975   21.854296 H          1 MOL1         0.0753
       9    C4      19.676191   19.146174   22.135069 C.3        1 MOL1        -0.1855
      10    H6      18.725127   18.649103   21.898787 H          1 MOL1         0.0755
      11    H7      19.731831   19.220903   23.229871 H          1 MOL1         0.0755
      12    C5      19.693944   20.562404   21.516757 C.3        1 MOL1        -0.1855
      13    H8      19.627744   20.491662   20.422084 H          1 MOL1         0.0755
      14    H9      20.653883   21.045176   21.744860 H          1 MOL1         0.0755
      15    C6      18.542708   21.457687   22.044034 C.3        1 MOL1        -0.1958
      16    H10     18.578587   21.515551   23.138667 H          1 MOL1         0.0753
      17    H11     18.671154   22.479377   21.667698 H          1 MOL1         0.0753
      18    C7      17.151747   20.989102   21.626276 C.2        1 MOL1         0.6174
      19    O1      16.453608   20.443902   22.458339 O.co2      1 MOL1        -0.6695
      20    O2      16.799373   21.192355   20.481017 O.co2      1 MOL1        -0.6695
@<TRIPOS>BOND
    1     1     2    1
    2     1     3    1
    3     1     4    2
    4     4     5    1
    5     4     6    1
    6     6     7    1
    7     6     8    1
    8     6     9    1
    9     9    10    1
   10     9    11    1
   11     9    12    1
   12    12    13    1
   13    12    14    1
   14    12    15    1
   15    15    16    1
   16    15    17    1
   17    15    18    1
   18    18    19    1
   19    18    20    2
@<TRIPOS>SUBSTRUCTURE
       1 MOL1            1 RESIDUE      1      MOL     
@<SCITEGIC>MOL_PROPERTY
VConf Rank
SciTegic.value.IntegerValue
485

@<SCITEGIC>MOL_PROPERTY
Conf_Id
SciTegic.value.IntegerValue
58

@<SCITEGIC>MOL_PROPERTY
Delta U+W
SciTegic.value.DoubleValue
0.019

@<SCITEGIC>MOL_PROPERTY
U+W
SciTegic.value.DoubleValue
-51.727

@<SCITEGIC>MOL_PROPERTY
Grad RMS
SciTegic.value.DoubleValue
0.000000

@<SCITEGIC>MOL_PROPERTY
U
SciTegic.value.DoubleValue
8.963

@<SCITEGIC>MOL_PROPERTY
W
SciTegic.value.DoubleValue
-60.690

@<SCITEGIC>MOL_PROPERTY
W(PB)
SciTegic.value.DoubleValue
-62.934

@<SCITEGIC>MOL_PROPERTY
W(SA)
SciTegic.value.DoubleValue
2.244

@<SCITEGIC>MOL_PROPERTY
Valence
SciTegic.value.DoubleValue
9.327

@<SCITEGIC>MOL_PROPERTY
Coulomb
SciTegic.value.DoubleValue
-0.780

@<SCITEGIC>MOL_PROPERTY
VdW
SciTegic.value.DoubleValue
0.417

@<SCITEGIC>MOL_PROPERTY
VdW6
SciTegic.value.DoubleValue
-6.635

@<SCITEGIC>MOL_PROPERTY
VdW12
SciTegic.value.DoubleValue
7.052

@<SCITEGIC>MOL_PROPERTY
Bond
SciTegic.value.DoubleValue
0.105

@<SCITEGIC>MOL_PROPERTY
Angle
SciTegic.value.DoubleValue
2.399

@<SCITEGIC>MOL_PROPERTY
Pdih
SciTegic.value.DoubleValue
6.822

@<SCITEGIC>MOL_PROPERTY
Idih
SciTegic.value.DoubleValue
0.000

@<SCITEGIC>MOL_PROPERTY
Tether
SciTegic.value.DoubleValue
0.000

@<TRIPOS>MOLECULE
guest-s22_confgen4.mol2 : confsearch ligand conformer 486
          20          19           1
SMALL
USER_CHARGES
 
@<TRIPOS>ATOM
       1    C1      21.102400   22.520312   21.756980 C.2        1 MOL1        -0.2535
       2    H1      21.847849   22.341000   22.530109 H          1 MOL1         0.0845
       3    H2      20.841132   23.555411   21.543491 H          1 MOL1         0.0845
       4    C2      20.526680   21.512802   21.095818 C.2        1 MOL1        -0.1324
       5    H3      19.781927   21.713889   20.326035 H          1 MOL1         0.0833
       6    C3      20.838690   20.052576   21.336723 C.3        1 MOL1        -0.1813
       7    H4      21.760338   19.952892   21.926103 H          1 MOL1         0.0753
       8    H5      21.022057   19.552789   20.376142 H          1 MOL1         0.0753
       9    C4      19.678975   19.349060   22.072344 C.3        1 MOL1        -0.1855
      10    H6      19.495413   19.854677   23.030429 H          1 MOL1         0.0755
      11    H7      18.758969   19.448232   21.479734 H          1 MOL1         0.0755
      12    C5      19.980561   17.854367   22.323873 C.3        1 MOL1        -0.1855
      13    H8      20.909582   17.764812   22.903081 H          1 MOL1         0.0755
      14    H9      20.154171   17.343295   21.366606 H          1 MOL1         0.0755
      15    C6      18.839069   17.136414   23.089663 C.3        1 MOL1        -0.1958
      16    H10     19.153087   16.117412   23.344623 H          1 MOL1         0.0753
      17    H11     18.634785   17.651946   24.035894 H          1 MOL1         0.0753
      18    C7      17.536219   17.028800   22.302347 C.2        1 MOL1         0.6174
      19    O1      17.472010   16.203932   21.412085 O.co2      1 MOL1        -0.6695
      20    O2      16.617173   17.763581   22.606355 O.co2      1 MOL1        -0.6695
@<TRIPOS>BOND
    1     1     2    1
    2     1     3    1
    3     1     4    2
    4     4     5    1
    5     4     6    1
    6     6     7    1
    7     6     8    1
    8     6     9    1
    9     9    10    1
   10     9    11    1
   11     9    12    1
   12    12    13    1
   13    12    14    1
   14    12    15    1
   15    15    16    1
   16    15    17    1
   17    15    18    1
   18    18    19    1
   19    18    20    2
@<TRIPOS>SUBSTRUCTURE
       1 MOL1            1 RESIDUE      1      MOL     
@<SCITEGIC>MOL_PROPERTY
VConf Rank
SciTegic.value.IntegerValue
486

@<SCITEGIC>MOL_PROPERTY
Conf_Id
SciTegic.value.IntegerValue
54

@<SCITEGIC>MOL_PROPERTY
Delta U+W
SciTegic.value.DoubleValue
-0.048

@<SCITEGIC>MOL_PROPERTY
U+W
SciTegic.value.DoubleValue
-51.793

@<SCITEGIC>MOL_PROPERTY
Grad RMS
SciTegic.value.DoubleValue
0.000000

@<SCITEGIC>MOL_PROPERTY
U
SciTegic.value.DoubleValue
8.964

@<SCITEGIC>MOL_PROPERTY
W
SciTegic.value.DoubleValue
-60.756

@<SCITEGIC>MOL_PROPERTY
W(PB)
SciTegic.value.DoubleValue
-63.007

@<SCITEGIC>MOL_PROPERTY
W(SA)
SciTegic.value.DoubleValue
2.251

@<SCITEGIC>MOL_PROPERTY
Valence
SciTegic.value.DoubleValue
9.327

@<SCITEGIC>MOL_PROPERTY
Coulomb
SciTegic.value.DoubleValue
-0.780

@<SCITEGIC>MOL_PROPERTY
VdW
SciTegic.value.DoubleValue
0.417

@<SCITEGIC>MOL_PROPERTY
VdW6
SciTegic.value.DoubleValue
-6.635

@<SCITEGIC>MOL_PROPERTY
VdW12
SciTegic.value.DoubleValue
7.052

@<SCITEGIC>MOL_PROPERTY
Bond
SciTegic.value.DoubleValue
0.105

@<SCITEGIC>MOL_PROPERTY
Angle
SciTegic.value.DoubleValue
2.399

@<SCITEGIC>MOL_PROPERTY
Pdih
SciTegic.value.DoubleValue
6.822

@<SCITEGIC>MOL_PROPERTY
Idih
SciTegic.value.DoubleValue
0.000

@<SCITEGIC>MOL_PROPERTY
Tether
SciTegic.value.DoubleValue
0.000

@<TRIPOS>MOLECULE
guest-s22_confgen4.mol2 : confsearch ligand conformer 487
          20          19           1
SMALL
USER_CHARGES
 
@<TRIPOS>ATOM
       1    C1      17.246531   16.852037   22.112530 C.2        1 MOL1        -0.2535
       2    H1      16.878899   16.104319   21.411850 H          1 MOL1         0.0845
       3    H2      17.231873   16.597155   23.170986 H          1 MOL1         0.0845
       4    C2      17.699874   18.033676   21.686055 C.2        1 MOL1        -0.1324
       5    H3      17.702470   18.269772   20.622333 H          1 MOL1         0.0833
       6    C3      18.218794   19.122557   22.600881 C.3        1 MOL1        -0.1813
       7    H4      17.848689   18.955709   23.621525 H          1 MOL1         0.0753
       8    H5      17.822042   20.096925   22.285857 H          1 MOL1         0.0753
       9    C4      19.762843   19.175403   22.637210 C.3        1 MOL1        -0.1855
      10    H6      20.071713   19.885449   23.416579 H          1 MOL1         0.0755
      11    H7      20.155119   18.193467   22.935640 H          1 MOL1         0.0755
      12    C5      20.382577   19.598140   21.283945 C.3        1 MOL1        -0.1855
      13    H8      19.979355   20.573489   20.978093 H          1 MOL1         0.0755
      14    H9      20.092770   18.878299   20.507199 H          1 MOL1         0.0755
      15    C6      21.930617   19.675762   21.336191 C.3        1 MOL1        -0.1958
      16    H10     22.346580   18.718438   21.672847 H          1 MOL1         0.0753
      17    H11     22.322528   19.855244   20.328150 H          1 MOL1         0.0753
      18    C7      22.466697   20.784245   22.237699 C.2        1 MOL1         0.6174
      19    O1      22.929753   20.474772   23.317911 O.co2      1 MOL1        -0.6695
      20    O2      22.416475   21.928105   21.830050 O.co2      1 MOL1        -0.6695
@<TRIPOS>BOND
    1     1     2    1
    2     1     3    1
    3     1     4    2
    4     4     5    1
    5     4     6    1
    6     6     7    1
    7     6     8    1
    8     6     9    1
    9     9    10    1
   10     9    11    1
   11     9    12    1
   12    12    13    1
   13    12    14    1
   14    12    15    1
   15    15    16    1
   16    15    17    1
   17    15    18    1
   18    18    19    1
   19    18    20    2
@<TRIPOS>SUBSTRUCTURE
       1 MOL1            1 RESIDUE      1      MOL     
@<SCITEGIC>MOL_PROPERTY
VConf Rank
SciTegic.value.IntegerValue
487

@<SCITEGIC>MOL_PROPERTY
Conf_Id
SciTegic.value.IntegerValue
27

@<SCITEGIC>MOL_PROPERTY
Delta U+W
SciTegic.value.DoubleValue
0.478

@<SCITEGIC>MOL_PROPERTY
U+W
SciTegic.value.DoubleValue
-51.267

@<SCITEGIC>MOL_PROPERTY
Grad RMS
SciTegic.value.DoubleValue
0.000000

@<SCITEGIC>MOL_PROPERTY
U
SciTegic.value.DoubleValue
9.192

@<SCITEGIC>MOL_PROPERTY
W
SciTegic.value.DoubleValue
-60.459

@<SCITEGIC>MOL_PROPERTY
W(PB)
SciTegic.value.DoubleValue
-62.649

@<SCITEGIC>MOL_PROPERTY
W(SA)
SciTegic.value.DoubleValue
2.190

@<SCITEGIC>MOL_PROPERTY
Valence
SciTegic.value.DoubleValue
9.572

@<SCITEGIC>MOL_PROPERTY
Coulomb
SciTegic.value.DoubleValue
-0.884

@<SCITEGIC>MOL_PROPERTY
VdW
SciTegic.value.DoubleValue
0.504

@<SCITEGIC>MOL_PROPERTY
VdW6
SciTegic.value.DoubleValue
-7.168

@<SCITEGIC>MOL_PROPERTY
VdW12
SciTegic.value.DoubleValue
7.672

@<SCITEGIC>MOL_PROPERTY
Bond
SciTegic.value.DoubleValue
0.127

@<SCITEGIC>MOL_PROPERTY
Angle
SciTegic.value.DoubleValue
2.504

@<SCITEGIC>MOL_PROPERTY
Pdih
SciTegic.value.DoubleValue
6.941

@<SCITEGIC>MOL_PROPERTY
Idih
SciTegic.value.DoubleValue
0.001

@<SCITEGIC>MOL_PROPERTY
Tether
SciTegic.value.DoubleValue
0.000

@<TRIPOS>MOLECULE
guest-s22_confgen4.mol2 : confsearch ligand conformer 488
          20          19           1
SMALL
USER_CHARGES
 
@<TRIPOS>ATOM
       1    C1      16.722650   19.480035   20.504008 C.2        1 MOL1        -0.2535
       2    H1      16.184520   18.536009   20.435193 H          1 MOL1         0.0845
       3    H2      16.504800   20.236992   19.752505 H          1 MOL1         0.0845
       4    C2      17.618260   19.703476   21.469220 C.2        1 MOL1        -0.1324
       5    H3      18.143418   20.656769   21.521516 H          1 MOL1         0.0833
       6    C3      17.967383   18.702252   22.549711 C.3        1 MOL1        -0.1813
       7    H4      17.167361   17.954300   22.633901 H          1 MOL1         0.0753
       8    H5      18.020365   19.206372   23.523938 H          1 MOL1         0.0753
       9    C4      19.299802   17.972358   22.266917 C.3        1 MOL1        -0.1855
      10    H6      19.429641   17.173110   23.009361 H          1 MOL1         0.0755
      11    H7      19.246426   17.483323   21.284419 H          1 MOL1         0.0755
      12    C5      20.524049   18.915090   22.317079 C.3        1 MOL1        -0.1855
      13    H8      20.561232   19.422870   23.290802 H          1 MOL1         0.0755
      14    H9      20.426458   19.697600   21.552333 H          1 MOL1         0.0755
      15    C6      21.850124   18.148540   22.089078 C.3        1 MOL1        -0.1958
      16    H10     21.975458   17.372071   22.853226 H          1 MOL1         0.0753
      17    H11     21.833526   17.645406   21.114814 H          1 MOL1         0.0753
      18    C7      23.073642   19.056930   22.132431 C.2        1 MOL1         0.6174
      19    O1      23.448361   19.564747   21.093986 O.co2      1 MOL1        -0.6695
      20    O2      23.609191   19.246733   23.206610 O.co2      1 MOL1        -0.6695
@<TRIPOS>BOND
    1     1     2    1
    2     1     3    1
    3     1     4    2
    4     4     5    1
    5     4     6    1
    6     6     7    1
    7     6     8    1
    8     6     9    1
    9     9    10    1
   10     9    11    1
   11     9    12    1
   12    12    13    1
   13    12    14    1
   14    12    15    1
   15    15    16    1
   16    15    17    1
   17    15    18    1
   18    18    19    1
   19    18    20    2
@<TRIPOS>SUBSTRUCTURE
       1 MOL1            1 RESIDUE      1      MOL     
@<SCITEGIC>MOL_PROPERTY
VConf Rank
SciTegic.value.IntegerValue
488

@<SCITEGIC>MOL_PROPERTY
Conf_Id
SciTegic.value.IntegerValue
41

@<SCITEGIC>MOL_PROPERTY
Delta U+W
SciTegic.value.DoubleValue
-0.634

@<SCITEGIC>MOL_PROPERTY
U+W
SciTegic.value.DoubleValue
-52.379

@<SCITEGIC>MOL_PROPERTY
Grad RMS
SciTegic.value.DoubleValue
0.000000

@<SCITEGIC>MOL_PROPERTY
U
SciTegic.value.DoubleValue
7.828

@<SCITEGIC>MOL_PROPERTY
W
SciTegic.value.DoubleValue
-60.207

@<SCITEGIC>MOL_PROPERTY
W(PB)
SciTegic.value.DoubleValue
-62.449

@<SCITEGIC>MOL_PROPERTY
W(SA)
SciTegic.value.DoubleValue
2.242

@<SCITEGIC>MOL_PROPERTY
Valence
SciTegic.value.DoubleValue
9.300

@<SCITEGIC>MOL_PROPERTY
Coulomb
SciTegic.value.DoubleValue
-2.080

@<SCITEGIC>MOL_PROPERTY
VdW
SciTegic.value.DoubleValue
0.608

@<SCITEGIC>MOL_PROPERTY
VdW6
SciTegic.value.DoubleValue
-6.341

@<SCITEGIC>MOL_PROPERTY
VdW12
SciTegic.value.DoubleValue
6.949

@<SCITEGIC>MOL_PROPERTY
Bond
SciTegic.value.DoubleValue
0.103

@<SCITEGIC>MOL_PROPERTY
Angle
SciTegic.value.DoubleValue
2.334

@<SCITEGIC>MOL_PROPERTY
Pdih
SciTegic.value.DoubleValue
6.862

@<SCITEGIC>MOL_PROPERTY
Idih
SciTegic.value.DoubleValue
0.001

@<SCITEGIC>MOL_PROPERTY
Tether
SciTegic.value.DoubleValue
0.000

@<TRIPOS>MOLECULE
guest-s22_confgen4.mol2 : confsearch ligand conformer 489
          20          19           1
SMALL
USER_CHARGES
 
@<TRIPOS>ATOM
       1    C1      21.156550   21.415523   24.192296 C.2        1 MOL1        -0.2535
       2    H1      21.885265   21.710878   24.945275 H          1 MOL1         0.0845
       3    H2      20.651652   22.209861   23.644886 H          1 MOL1         0.0845
       4    C2      20.896704   20.127894   23.951034 C.2        1 MOL1        -0.1324
       5    H3      21.413443   19.347677   24.509522 H          1 MOL1         0.0833
       6    C3      19.898876   19.642104   22.923442 C.3        1 MOL1        -0.1813
       7    H4      19.251873   20.469041   22.601049 H          1 MOL1         0.0753
       8    H5      19.247576   18.887693   23.383471 H          1 MOL1         0.0753
       9    C4      20.616472   19.039051   21.695208 C.3        1 MOL1        -0.1855
      10    H6      21.336667   19.773625   21.309359 H          1 MOL1         0.0755
      11    H7      21.204656   18.164633   22.006159 H          1 MOL1         0.0755
      12    C5      19.653726   18.643555   20.548519 C.3        1 MOL1        -0.1855
      13    H8      20.248009   18.298826   19.690978 H          1 MOL1         0.0755
      14    H9      19.111250   19.535754   20.207774 H          1 MOL1         0.0755
      15    C6      18.629876   17.537033   20.922362 C.3        1 MOL1        -0.1958
      16    H10     17.968903   17.877073   21.727653 H          1 MOL1         0.0753
      17    H11     17.986219   17.331747   20.059073 H          1 MOL1         0.0753
      18    C7      19.266520   16.214041   21.338432 C.2        1 MOL1         0.6174
      19    O1      19.789466   15.534560   20.476898 O.co2      1 MOL1        -0.6695
      20    O2      19.207498   15.889009   22.507972 O.co2      1 MOL1        -0.6695
@<TRIPOS>BOND
    1     1     2    1
    2     1     3    1
    3     1     4    2
    4     4     5    1
    5     4     6    1
    6     6     7    1
    7     6     8    1
    8     6     9    1
    9     9    10    1
   10     9    11    1
   11     9    12    1
   12    12    13    1
   13    12    14    1
   14    12    15    1
   15    15    16    1
   16    15    17    1
   17    15    18    1
   18    18    19    1
   19    18    20    2
@<TRIPOS>SUBSTRUCTURE
       1 MOL1            1 RESIDUE      1      MOL     
@<SCITEGIC>MOL_PROPERTY
VConf Rank
SciTegic.value.IntegerValue
489

@<SCITEGIC>MOL_PROPERTY
Conf_Id
SciTegic.value.IntegerValue
84

@<SCITEGIC>MOL_PROPERTY
Delta U+W
SciTegic.value.DoubleValue
0.942

@<SCITEGIC>MOL_PROPERTY
U+W
SciTegic.value.DoubleValue
-50.803

@<SCITEGIC>MOL_PROPERTY
Grad RMS
SciTegic.value.DoubleValue
0.000000

@<SCITEGIC>MOL_PROPERTY
U
SciTegic.value.DoubleValue
10.196

@<SCITEGIC>MOL_PROPERTY
W
SciTegic.value.DoubleValue
-60.999

@<SCITEGIC>MOL_PROPERTY
W(PB)
SciTegic.value.DoubleValue
-63.182

@<SCITEGIC>MOL_PROPERTY
W(SA)
SciTegic.value.DoubleValue
2.182

@<SCITEGIC>MOL_PROPERTY
Valence
SciTegic.value.DoubleValue
9.837

@<SCITEGIC>MOL_PROPERTY
Coulomb
SciTegic.value.DoubleValue
0.032

@<SCITEGIC>MOL_PROPERTY
VdW
SciTegic.value.DoubleValue
0.328

@<SCITEGIC>MOL_PROPERTY
VdW6
SciTegic.value.DoubleValue
-7.642

@<SCITEGIC>MOL_PROPERTY
VdW12
SciTegic.value.DoubleValue
7.969

@<SCITEGIC>MOL_PROPERTY
Bond
SciTegic.value.DoubleValue
0.151

@<SCITEGIC>MOL_PROPERTY
Angle
SciTegic.value.DoubleValue
2.748

@<SCITEGIC>MOL_PROPERTY
Pdih
SciTegic.value.DoubleValue
6.937

@<SCITEGIC>MOL_PROPERTY
Idih
SciTegic.value.DoubleValue
0.001

@<SCITEGIC>MOL_PROPERTY
Tether
SciTegic.value.DoubleValue
0.000

@<TRIPOS>MOLECULE
guest-s22_confgen4.mol2 : confsearch ligand conformer 490
          20          19           1
SMALL
USER_CHARGES
 
@<TRIPOS>ATOM
       1    C1      20.325720   22.531657   22.924834 C.2        1 MOL1        -0.2535
       2    H1      19.908932   23.522463   23.097618 H          1 MOL1         0.0845
       3    H2      21.036205   22.152255   23.657532 H          1 MOL1         0.0845
       4    C2      19.974593   21.812048   21.855939 C.2        1 MOL1        -0.1324
       5    H3      19.260963   22.209939   21.134793 H          1 MOL1         0.0833
       6    C3      20.511278   20.431496   21.549818 C.3        1 MOL1        -0.1813
       7    H4      21.394928   20.221342   22.167706 H          1 MOL1         0.0753
       8    H5      20.840274   20.389250   20.502889 H          1 MOL1         0.0753
       9    C4      19.440489   19.349041   21.800341 C.3        1 MOL1        -0.1855
      10    H6      19.111436   19.401261   22.847564 H          1 MOL1         0.0755
      11    H7      18.557975   19.556273   21.179636 H          1 MOL1         0.0755
      12    C5      19.972274   17.931847   21.488730 C.3        1 MOL1        -0.1855
      13    H8      20.846844   17.715755   22.118129 H          1 MOL1         0.0755
      14    H9      20.316260   17.895064   20.446189 H          1 MOL1         0.0755
      15    C6      18.900452   16.831954   21.703947 C.3        1 MOL1        -0.1958
      16    H10     18.009367   17.048248   21.102253 H          1 MOL1         0.0753
      17    H11     19.290553   15.867458   21.358196 H          1 MOL1         0.0753
      18    C7      18.475022   16.656790   23.159014 C.2        1 MOL1         0.6174
      19    O1      17.390999   17.089107   23.498085 O.co2      1 MOL1        -0.6695
      20    O2      19.235009   16.080162   23.912027 O.co2      1 MOL1        -0.6695
@<TRIPOS>BOND
    1     1     2    1
    2     1     3    1
    3     1     4    2
    4     4     5    1
    5     4     6    1
    6     6     7    1
    7     6     8    1
    8     6     9    1
    9     9    10    1
   10     9    11    1
   11     9    12    1
   12    12    13    1
   13    12    14    1
   14    12    15    1
   15    15    16    1
   16    15    17    1
   17    15    18    1
   18    18    19    1
   19    18    20    2
@<TRIPOS>SUBSTRUCTURE
       1 MOL1            1 RESIDUE      1      MOL     
@<SCITEGIC>MOL_PROPERTY
VConf Rank
SciTegic.value.IntegerValue
490

@<SCITEGIC>MOL_PROPERTY
Conf_Id
SciTegic.value.IntegerValue
81

@<SCITEGIC>MOL_PROPERTY
Delta U+W
SciTegic.value.DoubleValue
-0.051

@<SCITEGIC>MOL_PROPERTY
U+W
SciTegic.value.DoubleValue
-51.796

@<SCITEGIC>MOL_PROPERTY
Grad RMS
SciTegic.value.DoubleValue
0.000000

@<SCITEGIC>MOL_PROPERTY
U
SciTegic.value.DoubleValue
9.412

@<SCITEGIC>MOL_PROPERTY
W
SciTegic.value.DoubleValue
-61.209

@<SCITEGIC>MOL_PROPERTY
W(PB)
SciTegic.value.DoubleValue
-63.452

@<SCITEGIC>MOL_PROPERTY
W(SA)
SciTegic.value.DoubleValue
2.243

@<SCITEGIC>MOL_PROPERTY
Valence
SciTegic.value.DoubleValue
9.329

@<SCITEGIC>MOL_PROPERTY
Coulomb
SciTegic.value.DoubleValue
-0.323

@<SCITEGIC>MOL_PROPERTY
VdW
SciTegic.value.DoubleValue
0.406

@<SCITEGIC>MOL_PROPERTY
VdW6
SciTegic.value.DoubleValue
-6.640

@<SCITEGIC>MOL_PROPERTY
VdW12
SciTegic.value.DoubleValue
7.046

@<SCITEGIC>MOL_PROPERTY
Bond
SciTegic.value.DoubleValue
0.105

@<SCITEGIC>MOL_PROPERTY
Angle
SciTegic.value.DoubleValue
2.401

@<SCITEGIC>MOL_PROPERTY
Pdih
SciTegic.value.DoubleValue
6.823

@<SCITEGIC>MOL_PROPERTY
Idih
SciTegic.value.DoubleValue
0.000

@<SCITEGIC>MOL_PROPERTY
Tether
SciTegic.value.DoubleValue
0.000

@<TRIPOS>MOLECULE
guest-s22_confgen4.mol2 : confsearch ligand conformer 491
          20          19           1
SMALL
USER_CHARGES
 
@<TRIPOS>ATOM
       1    C1      20.773728   16.058834   21.753699 C.2        1 MOL1        -0.2535
       2    H1      21.331567   16.004293   20.820264 H          1 MOL1         0.0845
       3    H2      20.921935   15.255956   22.473814 H          1 MOL1         0.0845
       4    C2      19.941254   17.071149   22.010379 C.2        1 MOL1        -0.1324
       5    H3      19.390531   17.105554   22.949924 H          1 MOL1         0.0833
       6    C3      19.680771   18.217691   21.056903 C.3        1 MOL1        -0.1813
       7    H4      18.603888   18.422496   20.999376 H          1 MOL1         0.0753
       8    H5      19.985284   17.931078   20.041354 H          1 MOL1         0.0753
       9    C4      20.445878   19.502690   21.454515 C.3        1 MOL1        -0.1855
      10    H6      21.524431   19.296733   21.420739 H          1 MOL1         0.0755
      11    H7      20.260121   20.276331   20.696923 H          1 MOL1         0.0755
      12    C5      20.088208   20.062864   22.855360 C.3        1 MOL1        -0.1855
      13    H8      20.703751   20.952774   23.046015 H          1 MOL1         0.0755
      14    H9      20.366901   19.330763   23.624810 H          1 MOL1         0.0755
      15    C6      18.593162   20.444537   23.032428 C.3        1 MOL1        -0.1958
      16    H10     17.953542   19.561351   22.923291 H          1 MOL1         0.0753
      17    H11     18.432449   20.820010   24.049678 H          1 MOL1         0.0753
      18    C7      18.107129   21.522569   22.067979 C.2        1 MOL1         0.6174
      19    O1      17.350827   21.197539   21.173861 O.co2      1 MOL1        -0.6695
      20    O2      18.484872   22.663827   22.247706 O.co2      1 MOL1        -0.6695
@<TRIPOS>BOND
    1     1     2    1
    2     1     3    1
    3     1     4    2
    4     4     5    1
    5     4     6    1
    6     6     7    1
    7     6     8    1
    8     6     9    1
    9     9    10    1
   10     9    11    1
   11     9    12    1
   12    12    13    1
   13    12    14    1
   14    12    15    1
   15    15    16    1
   16    15    17    1
   17    15    18    1
   18    18    19    1
   19    18    20    2
@<TRIPOS>SUBSTRUCTURE
       1 MOL1            1 RESIDUE      1      MOL     
@<SCITEGIC>MOL_PROPERTY
VConf Rank
SciTegic.value.IntegerValue
491

@<SCITEGIC>MOL_PROPERTY
Conf_Id
SciTegic.value.IntegerValue
86

@<SCITEGIC>MOL_PROPERTY
Delta U+W
SciTegic.value.DoubleValue
1.248

@<SCITEGIC>MOL_PROPERTY
U+W
SciTegic.value.DoubleValue
-50.498

@<SCITEGIC>MOL_PROPERTY
Grad RMS
SciTegic.value.DoubleValue
0.000000

@<SCITEGIC>MOL_PROPERTY
U
SciTegic.value.DoubleValue
10.404

@<SCITEGIC>MOL_PROPERTY
W
SciTegic.value.DoubleValue
-60.901

@<SCITEGIC>MOL_PROPERTY
W(PB)
SciTegic.value.DoubleValue
-63.061

@<SCITEGIC>MOL_PROPERTY
W(SA)
SciTegic.value.DoubleValue
2.159

@<SCITEGIC>MOL_PROPERTY
Valence
SciTegic.value.DoubleValue
10.021

@<SCITEGIC>MOL_PROPERTY
Coulomb
SciTegic.value.DoubleValue
0.094

@<SCITEGIC>MOL_PROPERTY
VdW
SciTegic.value.DoubleValue
0.289

@<SCITEGIC>MOL_PROPERTY
VdW6
SciTegic.value.DoubleValue
-8.409

@<SCITEGIC>MOL_PROPERTY
VdW12
SciTegic.value.DoubleValue
8.698

@<SCITEGIC>MOL_PROPERTY
Bond
SciTegic.value.DoubleValue
0.179

@<SCITEGIC>MOL_PROPERTY
Angle
SciTegic.value.DoubleValue
2.939

@<SCITEGIC>MOL_PROPERTY
Pdih
SciTegic.value.DoubleValue
6.902

@<SCITEGIC>MOL_PROPERTY
Idih
SciTegic.value.DoubleValue
0.001

@<SCITEGIC>MOL_PROPERTY
Tether
SciTegic.value.DoubleValue
0.000

@<TRIPOS>MOLECULE
guest-s22_confgen4.mol2 : confsearch ligand conformer 492
          20          19           1
SMALL
USER_CHARGES
 
@<TRIPOS>ATOM
       1    C1      17.683591   21.128483   21.026879 C.2        1 MOL1        -0.2535
       2    H1      16.647524   21.393852   21.229973 H          1 MOL1         0.0845
       3    H2      18.433876   21.907943   21.149099 H          1 MOL1         0.0845
       4    C2      18.017724   19.892568   20.646231 C.2        1 MOL1        -0.1324
       5    H3      17.251537   19.126224   20.531931 H          1 MOL1         0.0833
       6    C3      19.434182   19.449624   20.347066 C.3        1 MOL1        -0.1813
       7    H4      20.106448   20.316384   20.288358 H          1 MOL1         0.0753
       8    H5      19.459015   18.971111   19.359023 H          1 MOL1         0.0753
       9    C4      19.970804   18.451279   21.397496 C.3        1 MOL1        -0.1855
      10    H6      19.296897   17.585884   21.459657 H          1 MOL1         0.0755
      11    H7      20.941772   18.067651   21.055354 H          1 MOL1         0.0755
      12    C5      20.135468   19.088843   22.797495 C.3        1 MOL1        -0.1855
      13    H8      19.164169   19.466686   23.143734 H          1 MOL1         0.0755
      14    H9      20.806522   19.956619   22.734216 H          1 MOL1         0.0755
      15    C6      20.685176   18.088726   23.847551 C.3        1 MOL1        -0.1958
      16    H10     20.665990   18.553024   24.840527 H          1 MOL1         0.0753
      17    H11     20.041835   17.202026   23.899057 H          1 MOL1         0.0753
      18    C7      22.118420   17.636427   23.583047 C.2        1 MOL1         0.6174
      19    O1      23.019894   18.408511   23.844504 O.co2      1 MOL1        -0.6695
      20    O2      22.296864   16.521292   23.133916 O.co2      1 MOL1        -0.6695
@<TRIPOS>BOND
    1     1     2    1
    2     1     3    1
    3     1     4    2
    4     4     5    1
    5     4     6    1
    6     6     7    1
    7     6     8    1
    8     6     9    1
    9     9    10    1
   10     9    11    1
   11     9    12    1
   12    12    13    1
   13    12    14    1
   14    12    15    1
   15    15    16    1
   16    15    17    1
   17    15    18    1
   18    18    19    1
   19    18    20    2
@<TRIPOS>SUBSTRUCTURE
       1 MOL1            1 RESIDUE      1      MOL     
@<SCITEGIC>MOL_PROPERTY
VConf Rank
SciTegic.value.IntegerValue
492

@<SCITEGIC>MOL_PROPERTY
Conf_Id
SciTegic.value.IntegerValue
28

@<SCITEGIC>MOL_PROPERTY
Delta U+W
SciTegic.value.DoubleValue
0.446

@<SCITEGIC>MOL_PROPERTY
U+W
SciTegic.value.DoubleValue
-51.299

@<SCITEGIC>MOL_PROPERTY
Grad RMS
SciTegic.value.DoubleValue
0.000000

@<SCITEGIC>MOL_PROPERTY
U
SciTegic.value.DoubleValue
9.295

@<SCITEGIC>MOL_PROPERTY
W
SciTegic.value.DoubleValue
-60.594

@<SCITEGIC>MOL_PROPERTY
W(PB)
SciTegic.value.DoubleValue
-62.806

@<SCITEGIC>MOL_PROPERTY
W(SA)
SciTegic.value.DoubleValue
2.212

@<SCITEGIC>MOL_PROPERTY
Valence
SciTegic.value.DoubleValue
9.495

@<SCITEGIC>MOL_PROPERTY
Coulomb
SciTegic.value.DoubleValue
-0.610

@<SCITEGIC>MOL_PROPERTY
VdW
SciTegic.value.DoubleValue
0.409

@<SCITEGIC>MOL_PROPERTY
VdW6
SciTegic.value.DoubleValue
-7.332

@<SCITEGIC>MOL_PROPERTY
VdW12
SciTegic.value.DoubleValue
7.741

@<SCITEGIC>MOL_PROPERTY
Bond
SciTegic.value.DoubleValue
0.126

@<SCITEGIC>MOL_PROPERTY
Angle
SciTegic.value.DoubleValue
2.497

@<SCITEGIC>MOL_PROPERTY
Pdih
SciTegic.value.DoubleValue
6.872

@<SCITEGIC>MOL_PROPERTY
Idih
SciTegic.value.DoubleValue
0.000

@<SCITEGIC>MOL_PROPERTY
Tether
SciTegic.value.DoubleValue
0.000

@<TRIPOS>MOLECULE
guest-s22_confgen4.mol2 : confsearch ligand conformer 493
          20          19           1
SMALL
USER_CHARGES
 
@<TRIPOS>ATOM
       1    C1      18.038401   16.787331   22.936654 C.2        1 MOL1        -0.2535
       2    H1      19.079535   16.488423   23.037596 H          1 MOL1         0.0845
       3    H2      17.288774   16.087935   23.302774 H          1 MOL1         0.0845
       4    C2      17.676011   17.955781   22.395015 C.2        1 MOL1        -0.1324
       5    H3      16.616519   18.200479   22.323321 H          1 MOL1         0.0833
       6    C3      18.600983   19.027237   21.841965 C.3        1 MOL1        -0.1813
       7    H4      18.457608   19.944293   22.427721 H          1 MOL1         0.0753
       8    H5      18.283222   19.271849   20.819739 H          1 MOL1         0.0753
       9    C4      20.102688   18.648804   21.825457 C.3        1 MOL1        -0.1855
      10    H6      20.454176   18.488158   22.853962 H          1 MOL1         0.0755
      11    H7      20.224906   17.692839   21.298307 H          1 MOL1         0.0755
      12    C5      20.997664   19.703426   21.128427 C.3        1 MOL1        -0.1855
      13    H8      20.672234   19.822202   20.086134 H          1 MOL1         0.0755
      14    H9      22.026905   19.320866   21.086966 H          1 MOL1         0.0755
      15    C6      21.011702   21.094646   21.819057 C.3        1 MOL1        -0.1958
      16    H10     21.658970   21.773997   21.252326 H          1 MOL1         0.0753
      17    H11     20.011175   21.541606   21.810691 H          1 MOL1         0.0753
      18    C7      21.525834   21.072907   23.255755 C.2        1 MOL1         0.6174
      19    O1      22.710468   20.869779   23.436957 O.co2      1 MOL1        -0.6695
      20    O2      20.733928   21.280184   24.153963 O.co2      1 MOL1        -0.6695
@<TRIPOS>BOND
    1     1     2    1
    2     1     3    1
    3     1     4    2
    4     4     5    1
    5     4     6    1
    6     6     7    1
    7     6     8    1
    8     6     9    1
    9     9    10    1
   10     9    11    1
   11     9    12    1
   12    12    13    1
   13    12    14    1
   14    12    15    1
   15    15    16    1
   16    15    17    1
   17    15    18    1
   18    18    19    1
   19    18    20    2
@<TRIPOS>SUBSTRUCTURE
       1 MOL1            1 RESIDUE      1      MOL     
@<SCITEGIC>MOL_PROPERTY
VConf Rank
SciTegic.value.IntegerValue
493

@<SCITEGIC>MOL_PROPERTY
Conf_Id
SciTegic.value.IntegerValue
53

@<SCITEGIC>MOL_PROPERTY
Delta U+W
SciTegic.value.DoubleValue
0.549

@<SCITEGIC>MOL_PROPERTY
U+W
SciTegic.value.DoubleValue
-51.197

@<SCITEGIC>MOL_PROPERTY
Grad RMS
SciTegic.value.DoubleValue
0.000000

@<SCITEGIC>MOL_PROPERTY
U
SciTegic.value.DoubleValue
10.870

@<SCITEGIC>MOL_PROPERTY
W
SciTegic.value.DoubleValue
-62.067

@<SCITEGIC>MOL_PROPERTY
W(PB)
SciTegic.value.DoubleValue
-64.228

@<SCITEGIC>MOL_PROPERTY
W(SA)
SciTegic.value.DoubleValue
2.161

@<SCITEGIC>MOL_PROPERTY
Valence
SciTegic.value.DoubleValue
8.803

@<SCITEGIC>MOL_PROPERTY
Coulomb
SciTegic.value.DoubleValue
1.020

@<SCITEGIC>MOL_PROPERTY
VdW
SciTegic.value.DoubleValue
1.048

@<SCITEGIC>MOL_PROPERTY
VdW6
SciTegic.value.DoubleValue
-8.312

@<SCITEGIC>MOL_PROPERTY
VdW12
SciTegic.value.DoubleValue
9.360

@<SCITEGIC>MOL_PROPERTY
Bond
SciTegic.value.DoubleValue
0.212

@<SCITEGIC>MOL_PROPERTY
Angle
SciTegic.value.DoubleValue
3.379

@<SCITEGIC>MOL_PROPERTY
Pdih
SciTegic.value.DoubleValue
5.211

@<SCITEGIC>MOL_PROPERTY
Idih
SciTegic.value.DoubleValue
0.001

@<SCITEGIC>MOL_PROPERTY
Tether
SciTegic.value.DoubleValue
0.000

@<TRIPOS>MOLECULE
guest-s22_confgen4.mol2 : confsearch ligand conformer 494
          20          19           1
SMALL
USER_CHARGES
 
@<TRIPOS>ATOM
       1    C1      19.355291   16.226025   21.195222 C.2        1 MOL1        -0.2535
       2    H1      20.101252   16.566501   20.480438 H          1 MOL1         0.0845
       3    H2      18.680201   15.437623   20.867196 H          1 MOL1         0.0845
       4    C2      19.263409   16.738606   22.427080 C.2        1 MOL1        -0.1324
       5    H3      18.499516   16.359554   23.105379 H          1 MOL1         0.0833
       6    C3      20.131180   17.840450   23.012574 C.3        1 MOL1        -0.1813
       7    H4      20.915577   17.380890   23.628146 H          1 MOL1         0.0753
       8    H5      19.531994   18.429834   23.718396 H          1 MOL1         0.0753
       9    C4      20.785842   18.803449   21.987966 C.3        1 MOL1        -0.1855
      10    H6      21.439389   19.499714   22.531041 H          1 MOL1         0.0755
      11    H7      21.449368   18.233943   21.324098 H          1 MOL1         0.0755
      12    C5      19.783195   19.621369   21.132069 C.3        1 MOL1        -0.1855
      13    H8      19.171469   18.939509   20.527574 H          1 MOL1         0.0755
      14    H9      20.349487   20.235676   20.418656 H          1 MOL1         0.0755
      15    C6      18.844129   20.548962   21.950633 C.3        1 MOL1        -0.1958
      16    H10     18.172238   21.079628   21.266147 H          1 MOL1         0.0753
      17    H11     18.204228   19.959104   22.616664 H          1 MOL1         0.0753
      18    C7      19.574055   21.602629   22.778533 C.2        1 MOL1         0.6174
      19    O1      19.596845   21.472402   23.986704 O.co2      1 MOL1        -0.6695
      20    O2      20.085900   22.536921   22.193194 O.co2      1 MOL1        -0.6695
@<TRIPOS>BOND
    1     1     2    1
    2     1     3    1
    3     1     4    2
    4     4     5    1
    5     4     6    1
    6     6     7    1
    7     6     8    1
    8     6     9    1
    9     9    10    1
   10     9    11    1
   11     9    12    1
   12    12    13    1
   13    12    14    1
   14    12    15    1
   15    15    16    1
   16    15    17    1
   17    15    18    1
   18    18    19    1
   19    18    20    2
@<TRIPOS>SUBSTRUCTURE
       1 MOL1            1 RESIDUE      1      MOL     
@<SCITEGIC>MOL_PROPERTY
VConf Rank
SciTegic.value.IntegerValue
494

@<SCITEGIC>MOL_PROPERTY
Conf_Id
SciTegic.value.IntegerValue
66

@<SCITEGIC>MOL_PROPERTY
Delta U+W
SciTegic.value.DoubleValue
1.737

@<SCITEGIC>MOL_PROPERTY
U+W
SciTegic.value.DoubleValue
-50.008

@<SCITEGIC>MOL_PROPERTY
Grad RMS
SciTegic.value.DoubleValue
0.000000

@<SCITEGIC>MOL_PROPERTY
U
SciTegic.value.DoubleValue
11.091

@<SCITEGIC>MOL_PROPERTY
W
SciTegic.value.DoubleValue
-61.099

@<SCITEGIC>MOL_PROPERTY
W(PB)
SciTegic.value.DoubleValue
-63.213

@<SCITEGIC>MOL_PROPERTY
W(SA)
SciTegic.value.DoubleValue
2.114

@<SCITEGIC>MOL_PROPERTY
Valence
SciTegic.value.DoubleValue
9.664

@<SCITEGIC>MOL_PROPERTY
Coulomb
SciTegic.value.DoubleValue
0.658

@<SCITEGIC>MOL_PROPERTY
VdW
SciTegic.value.DoubleValue
0.769

@<SCITEGIC>MOL_PROPERTY
VdW6
SciTegic.value.DoubleValue
-9.171

@<SCITEGIC>MOL_PROPERTY
VdW12
SciTegic.value.DoubleValue
9.940

@<SCITEGIC>MOL_PROPERTY
Bond
SciTegic.value.DoubleValue
0.244

@<SCITEGIC>MOL_PROPERTY
Angle
SciTegic.value.DoubleValue
3.658

@<SCITEGIC>MOL_PROPERTY
Pdih
SciTegic.value.DoubleValue
5.762

@<SCITEGIC>MOL_PROPERTY
Idih
SciTegic.value.DoubleValue
0.001

@<SCITEGIC>MOL_PROPERTY
Tether
SciTegic.value.DoubleValue
0.000

@<TRIPOS>MOLECULE
guest-s22_confgen4.mol2 : confsearch ligand conformer 495
          20          19           1
SMALL
USER_CHARGES
 
@<TRIPOS>ATOM
       1    C1      18.847115   19.935524   19.511007 C.2        1 MOL1        -0.2535
       2    H1      19.736104   19.351205   19.284175 H          1 MOL1         0.0845
       3    H2      18.049588   19.928618   18.770170 H          1 MOL1         0.0845
       4    C2      18.726128   20.640357   20.641252 C.2        1 MOL1        -0.1324
       5    H3      17.814133   21.210353   20.816494 H          1 MOL1         0.0833
       6    C3      19.749849   20.737512   21.760695 C.3        1 MOL1        -0.1813
       7    H4      19.221651   20.820387   22.718708 H          1 MOL1         0.0753
       8    H5      20.292875   21.686177   21.657055 H          1 MOL1         0.0753
       9    C4      20.771831   19.573803   21.848169 C.3        1 MOL1        -0.1855
      10    H6      21.345365   19.521282   20.913400 H          1 MOL1         0.0755
      11    H7      21.504738   19.807594   22.632273 H          1 MOL1         0.0755
      12    C5      20.149560   18.186210   22.148275 C.3        1 MOL1        -0.1855
      13    H8      20.944687   17.429287   22.103323 H          1 MOL1         0.0755
      14    H9      19.425671   17.917682   21.367586 H          1 MOL1         0.0755
      15    C6      19.461920   18.102282   23.535728 C.3        1 MOL1        -0.1958
      16    H10     20.157165   18.416348   24.323222 H          1 MOL1         0.0753
      17    H11     18.596382   18.773076   23.577212 H          1 MOL1         0.0753
      18    C7      18.975903   16.696191   23.868807 C.2        1 MOL1         0.6174
      19    O1      17.839773   16.392730   23.562424 O.co2      1 MOL1        -0.6695
      20    O2      19.751657   15.935762   24.413680 O.co2      1 MOL1        -0.6695
@<TRIPOS>BOND
    1     1     2    1
    2     1     3    1
    3     1     4    2
    4     4     5    1
    5     4     6    1
    6     6     7    1
    7     6     8    1
    8     6     9    1
    9     9    10    1
   10     9    11    1
   11     9    12    1
   12    12    13    1
   13    12    14    1
   14    12    15    1
   15    15    16    1
   16    15    17    1
   17    15    18    1
   18    18    19    1
   19    18    20    2
@<TRIPOS>SUBSTRUCTURE
       1 MOL1            1 RESIDUE      1      MOL     
@<SCITEGIC>MOL_PROPERTY
VConf Rank
SciTegic.value.IntegerValue
495

@<SCITEGIC>MOL_PROPERTY
Conf_Id
SciTegic.value.IntegerValue
64

@<SCITEGIC>MOL_PROPERTY
Delta U+W
SciTegic.value.DoubleValue
0.366

@<SCITEGIC>MOL_PROPERTY
U+W
SciTegic.value.DoubleValue
-51.379

@<SCITEGIC>MOL_PROPERTY
Grad RMS
SciTegic.value.DoubleValue
0.000000

@<SCITEGIC>MOL_PROPERTY
U
SciTegic.value.DoubleValue
10.000

@<SCITEGIC>MOL_PROPERTY
W
SciTegic.value.DoubleValue
-61.379

@<SCITEGIC>MOL_PROPERTY
W(PB)
SciTegic.value.DoubleValue
-63.541

@<SCITEGIC>MOL_PROPERTY
W(SA)
SciTegic.value.DoubleValue
2.162

@<SCITEGIC>MOL_PROPERTY
Valence
SciTegic.value.DoubleValue
9.398

@<SCITEGIC>MOL_PROPERTY
Coulomb
SciTegic.value.DoubleValue
-0.504

@<SCITEGIC>MOL_PROPERTY
VdW
SciTegic.value.DoubleValue
1.105

@<SCITEGIC>MOL_PROPERTY
VdW6
SciTegic.value.DoubleValue
-7.975

@<SCITEGIC>MOL_PROPERTY
VdW12
SciTegic.value.DoubleValue
9.080

@<SCITEGIC>MOL_PROPERTY
Bond
SciTegic.value.DoubleValue
0.216

@<SCITEGIC>MOL_PROPERTY
Angle
SciTegic.value.DoubleValue
3.417

@<SCITEGIC>MOL_PROPERTY
Pdih
SciTegic.value.DoubleValue
5.765

@<SCITEGIC>MOL_PROPERTY
Idih
SciTegic.value.DoubleValue
0.001

@<SCITEGIC>MOL_PROPERTY
Tether
SciTegic.value.DoubleValue
0.000

@<TRIPOS>MOLECULE
guest-s22_confgen4.mol2 : confsearch ligand conformer 496
          20          19           1
SMALL
USER_CHARGES
 
@<TRIPOS>ATOM
       1    C1      21.648095   20.942887   20.409006 C.2        1 MOL1        -0.2535
       2    H1      20.843712   21.674605   20.463558 H          1 MOL1         0.0845
       3    H2      22.183297   20.855895   19.465028 H          1 MOL1         0.0845
       4    C2      21.966242   20.177008   21.456013 C.2        1 MOL1        -0.1324
       5    H3      22.773290   19.448826   21.379749 H          1 MOL1         0.0833
       6    C3      21.268250   20.240248   22.797947 C.3        1 MOL1        -0.1813
       7    H4      20.618756   21.124338   22.854667 H          1 MOL1         0.0753
       8    H5      22.021084   20.357941   23.588665 H          1 MOL1         0.0753
       9    C4      20.436854   18.969981   23.086293 C.3        1 MOL1        -0.1855
      10    H6      21.086410   18.085752   23.028868 H          1 MOL1         0.0755
      11    H7      20.061626   19.018247   24.117679 H          1 MOL1         0.0755
      12    C5      19.242707   18.806361   22.118395 C.3        1 MOL1        -0.1855
      13    H8      19.606896   18.729906   21.084592 H          1 MOL1         0.0755
      14    H9      18.603743   19.699028   22.164861 H          1 MOL1         0.0755
      15    C6      18.397100   17.552986   22.453088 C.3        1 MOL1        -0.1958
      16    H10     19.019073   16.651455   22.398494 H          1 MOL1         0.0753
      17    H11     18.010425   17.619048   23.477102 H          1 MOL1         0.0753
      18    C7      17.212474   17.369505   21.511234 C.2        1 MOL1         0.6174
      19    O1      16.163754   17.913347   21.796142 O.co2      1 MOL1        -0.6695
      20    O2      17.373336   16.699247   20.510450 O.co2      1 MOL1        -0.6695
@<TRIPOS>BOND
    1     1     2    1
    2     1     3    1
    3     1     4    2
    4     4     5    1
    5     4     6    1
    6     6     7    1
    7     6     8    1
    8     6     9    1
    9     9    10    1
   10     9    11    1
   11     9    12    1
   12    12    13    1
   13    12    14    1
   14    12    15    1
   15    15    16    1
   16    15    17    1
   17    15    18    1
   18    18    19    1
   19    18    20    2
@<TRIPOS>SUBSTRUCTURE
       1 MOL1            1 RESIDUE      1      MOL     
@<SCITEGIC>MOL_PROPERTY
VConf Rank
SciTegic.value.IntegerValue
496

@<SCITEGIC>MOL_PROPERTY
Conf_Id
SciTegic.value.IntegerValue
42

@<SCITEGIC>MOL_PROPERTY
Delta U+W
SciTegic.value.DoubleValue
-0.601

@<SCITEGIC>MOL_PROPERTY
U+W
SciTegic.value.DoubleValue
-52.347

@<SCITEGIC>MOL_PROPERTY
Grad RMS
SciTegic.value.DoubleValue
0.000000

@<SCITEGIC>MOL_PROPERTY
U
SciTegic.value.DoubleValue
8.428

@<SCITEGIC>MOL_PROPERTY
W
SciTegic.value.DoubleValue
-60.774

@<SCITEGIC>MOL_PROPERTY
W(PB)
SciTegic.value.DoubleValue
-62.982

@<SCITEGIC>MOL_PROPERTY
W(SA)
SciTegic.value.DoubleValue
2.208

@<SCITEGIC>MOL_PROPERTY
Valence
SciTegic.value.DoubleValue
9.231

@<SCITEGIC>MOL_PROPERTY
Coulomb
SciTegic.value.DoubleValue
-1.304

@<SCITEGIC>MOL_PROPERTY
VdW
SciTegic.value.DoubleValue
0.501

@<SCITEGIC>MOL_PROPERTY
VdW6
SciTegic.value.DoubleValue
-6.515

@<SCITEGIC>MOL_PROPERTY
VdW12
SciTegic.value.DoubleValue
7.016

@<SCITEGIC>MOL_PROPERTY
Bond
SciTegic.value.DoubleValue
0.103

@<SCITEGIC>MOL_PROPERTY
Angle
SciTegic.value.DoubleValue
2.328

@<SCITEGIC>MOL_PROPERTY
Pdih
SciTegic.value.DoubleValue
6.799

@<SCITEGIC>MOL_PROPERTY
Idih
SciTegic.value.DoubleValue
0.000

@<SCITEGIC>MOL_PROPERTY
Tether
SciTegic.value.DoubleValue
0.000

@<TRIPOS>MOLECULE
guest-s22_confgen4.mol2 : confsearch ligand conformer 497
          20          19           1
SMALL
USER_CHARGES
 
@<TRIPOS>ATOM
       1    C1      22.082857   19.477019   20.263926 C.2        1 MOL1        -0.2535
       2    H1      21.579406   19.034339   19.406040 H          1 MOL1         0.0845
       3    H2      23.134350   19.234708   20.407955 H          1 MOL1         0.0845
       4    C2      21.437998   20.283298   21.111331 C.2        1 MOL1        -0.1324
       5    H3      21.959680   20.713847   21.965662 H          1 MOL1         0.0833
       6    C3      19.978896   20.664107   20.977499 C.3        1 MOL1        -0.1813
       7    H4      19.586277   20.353709   19.999689 H          1 MOL1         0.0753
       8    H5      19.888619   21.757859   21.014464 H          1 MOL1         0.0753
       9    C4      19.109516   20.054390   22.100167 C.3        1 MOL1        -0.1855
      10    H6      19.499915   20.371631   23.077042 H          1 MOL1         0.0755
      11    H7      18.092164   20.461502   22.022739 H          1 MOL1         0.0755
      12    C5      19.045679   18.510128   22.033463 C.3        1 MOL1        -0.1855
      13    H8      20.052946   18.087326   22.151814 H          1 MOL1         0.0755
      14    H9      18.690892   18.205357   21.039746 H          1 MOL1         0.0755
      15    C6      18.108701   17.905325   23.111010 C.3        1 MOL1        -0.1958
      16    H10     17.103137   18.334112   23.023209 H          1 MOL1         0.0753
      17    H11     18.009142   16.826089   22.945701 H          1 MOL1         0.0753
      18    C7      18.599840   18.105280   24.541958 C.2        1 MOL1         0.6174
      19    O1      18.068029   18.963428   25.218659 O.co2      1 MOL1        -0.6695
      20    O2      19.489924   17.384098   24.947841 O.co2      1 MOL1        -0.6695
@<TRIPOS>BOND
    1     1     2    1
    2     1     3    1
    3     1     4    2
    4     4     5    1
    5     4     6    1
    6     6     7    1
    7     6     8    1
    8     6     9    1
    9     9    10    1
   10     9    11    1
   11     9    12    1
   12    12    13    1
   13    12    14    1
   14    12    15    1
   15    15    16    1
   16    15    17    1
   17    15    18    1
   18    18    19    1
   19    18    20    2
@<TRIPOS>SUBSTRUCTURE
       1 MOL1            1 RESIDUE      1      MOL     
@<SCITEGIC>MOL_PROPERTY
VConf Rank
SciTegic.value.IntegerValue
497

@<SCITEGIC>MOL_PROPERTY
Conf_Id
SciTegic.value.IntegerValue
68

@<SCITEGIC>MOL_PROPERTY
Delta U+W
SciTegic.value.DoubleValue
0.492

@<SCITEGIC>MOL_PROPERTY
U+W
SciTegic.value.DoubleValue
-51.253

@<SCITEGIC>MOL_PROPERTY
Grad RMS
SciTegic.value.DoubleValue
0.000000

@<SCITEGIC>MOL_PROPERTY
U
SciTegic.value.DoubleValue
10.179

@<SCITEGIC>MOL_PROPERTY
W
SciTegic.value.DoubleValue
-61.432

@<SCITEGIC>MOL_PROPERTY
W(PB)
SciTegic.value.DoubleValue
-63.627

@<SCITEGIC>MOL_PROPERTY
W(SA)
SciTegic.value.DoubleValue
2.195

@<SCITEGIC>MOL_PROPERTY
Valence
SciTegic.value.DoubleValue
9.483

@<SCITEGIC>MOL_PROPERTY
Coulomb
SciTegic.value.DoubleValue
0.361

@<SCITEGIC>MOL_PROPERTY
VdW
SciTegic.value.DoubleValue
0.335

@<SCITEGIC>MOL_PROPERTY
VdW6
SciTegic.value.DoubleValue
-7.385

@<SCITEGIC>MOL_PROPERTY
VdW12
SciTegic.value.DoubleValue
7.720

@<SCITEGIC>MOL_PROPERTY
Bond
SciTegic.value.DoubleValue
0.125

@<SCITEGIC>MOL_PROPERTY
Angle
SciTegic.value.DoubleValue
2.487

@<SCITEGIC>MOL_PROPERTY
Pdih
SciTegic.value.DoubleValue
6.870

@<SCITEGIC>MOL_PROPERTY
Idih
SciTegic.value.DoubleValue
0.001

@<SCITEGIC>MOL_PROPERTY
Tether
SciTegic.value.DoubleValue
0.000

@<TRIPOS>MOLECULE
guest-s22_confgen4.mol2 : confsearch ligand conformer 498
          20          19           1
SMALL
USER_CHARGES
 
@<TRIPOS>ATOM
       1    C1      21.098467   21.640276   20.539079 C.2        1 MOL1        -0.2535
       2    H1      21.292258   22.359088   21.333589 H          1 MOL1         0.0845
       3    H2      20.901431   22.034576   19.543648 H          1 MOL1         0.0845
       4    C2      21.098054   20.325385   20.773079 C.2        1 MOL1        -0.1324
       5    H3      20.904352   19.623205   19.962728 H          1 MOL1         0.0833
       6    C3      21.369043   19.705424   22.127330 C.3        1 MOL1        -0.1813
       7    H4      21.881533   20.432440   22.771784 H          1 MOL1         0.0753
       8    H5      22.054489   18.854331   22.018699 H          1 MOL1         0.0753
       9    C4      20.073598   19.245190   22.833155 C.3        1 MOL1        -0.1855
      10    H6      20.320731   18.927861   23.855394 H          1 MOL1         0.0755
      11    H7      19.388398   20.099088   22.927794 H          1 MOL1         0.0755
      12    C5      19.368420   18.081380   22.096948 C.3        1 MOL1        -0.1855
      13    H8      20.077807   17.253366   21.964758 H          1 MOL1         0.0755
      14    H9      19.064117   18.401633   21.091138 H          1 MOL1         0.0755
      15    C6      18.124100   17.560646   22.862035 C.3        1 MOL1        -0.1958
      16    H10     17.733129   16.667454   22.360681 H          1 MOL1         0.0753
      17    H11     18.402995   17.257620   23.878477 H          1 MOL1         0.0753
      18    C7      16.983725   18.570836   22.950920 C.2        1 MOL1         0.6174
      19    O1      16.286406   18.734547   21.969059 O.co2      1 MOL1        -0.6695
      20    O2      16.810421   19.152445   24.003926 O.co2      1 MOL1        -0.6695
@<TRIPOS>BOND
    1     1     2    1
    2     1     3    1
    3     1     4    2
    4     4     5    1
    5     4     6    1
    6     6     7    1
    7     6     8    1
    8     6     9    1
    9     9    10    1
   10     9    11    1
   11     9    12    1
   12    12    13    1
   13    12    14    1
   14    12    15    1
   15    15    16    1
   16    15    17    1
   17    15    18    1
   18    18    19    1
   19    18    20    2
@<TRIPOS>SUBSTRUCTURE
       1 MOL1            1 RESIDUE      1      MOL     
@<SCITEGIC>MOL_PROPERTY
VConf Rank
SciTegic.value.IntegerValue
498

@<SCITEGIC>MOL_PROPERTY
Conf_Id
SciTegic.value.IntegerValue
87

@<SCITEGIC>MOL_PROPERTY
Delta U+W
SciTegic.value.DoubleValue
0.339

@<SCITEGIC>MOL_PROPERTY
U+W
SciTegic.value.DoubleValue
-51.407

@<SCITEGIC>MOL_PROPERTY
Grad RMS
SciTegic.value.DoubleValue
0.000000

@<SCITEGIC>MOL_PROPERTY
U
SciTegic.value.DoubleValue
10.461

@<SCITEGIC>MOL_PROPERTY
W
SciTegic.value.DoubleValue
-61.867

@<SCITEGIC>MOL_PROPERTY
W(PB)
SciTegic.value.DoubleValue
-64.045

@<SCITEGIC>MOL_PROPERTY
W(SA)
SciTegic.value.DoubleValue
2.178

@<SCITEGIC>MOL_PROPERTY
Valence
SciTegic.value.DoubleValue
9.555

@<SCITEGIC>MOL_PROPERTY
Coulomb
SciTegic.value.DoubleValue
0.483

@<SCITEGIC>MOL_PROPERTY
VdW
SciTegic.value.DoubleValue
0.423

@<SCITEGIC>MOL_PROPERTY
VdW6
SciTegic.value.DoubleValue
-7.223

@<SCITEGIC>MOL_PROPERTY
VdW12
SciTegic.value.DoubleValue
7.646

@<SCITEGIC>MOL_PROPERTY
Bond
SciTegic.value.DoubleValue
0.126

@<SCITEGIC>MOL_PROPERTY
Angle
SciTegic.value.DoubleValue
2.492

@<SCITEGIC>MOL_PROPERTY
Pdih
SciTegic.value.DoubleValue
6.936

@<SCITEGIC>MOL_PROPERTY
Idih
SciTegic.value.DoubleValue
0.001

@<SCITEGIC>MOL_PROPERTY
Tether
SciTegic.value.DoubleValue
0.000

@<TRIPOS>MOLECULE
guest-s22_confgen4.mol2 : confsearch ligand conformer 499
          20          19           1
SMALL
USER_CHARGES
 
@<TRIPOS>ATOM
       1    C1      19.981802   20.742341   24.091942 C.2        1 MOL1        -0.2535
       2    H1      19.195764   20.472997   24.795516 H          1 MOL1         0.0845
       3    H2      20.937571   21.060739   24.504432 H          1 MOL1         0.0845
       4    C2      19.784000   20.682832   22.772455 C.2        1 MOL1        -0.1324
       5    H3      20.580011   20.965098   22.084355 H          1 MOL1         0.0833
       6    C3      18.479017   20.262061   22.130911 C.3        1 MOL1        -0.1813
       7    H4      18.434589   20.615124   21.092013 H          1 MOL1         0.0753
       8    H5      17.655785   20.768264   22.652882 H          1 MOL1         0.0753
       9    C4      18.227328   18.734610   22.183004 C.3        1 MOL1        -0.1855
      10    H6      18.454670   18.350374   23.186803 H          1 MOL1         0.0755
      11    H7      17.152568   18.564824   22.032021 H          1 MOL1         0.0755
      12    C5      18.987790   17.911150   21.113093 C.3        1 MOL1        -0.1855
      13    H8      18.768956   18.306982   20.111859 H          1 MOL1         0.0755
      14    H9      18.598948   16.883511   21.128908 H          1 MOL1         0.0755
      15    C6      20.522543   17.855097   21.324407 C.3        1 MOL1        -0.1958
      16    H10     20.968859   18.842234   21.168068 H          1 MOL1         0.0753
      17    H11     20.753491   17.550206   22.352039 H          1 MOL1         0.0753
      18    C7      21.213659   16.883593   20.374581 C.2        1 MOL1         0.6174
      19    O1      21.575347   17.299053   19.291316 O.co2      1 MOL1        -0.6695
      20    O2      21.353656   15.731220   20.734191 O.co2      1 MOL1        -0.6695
@<TRIPOS>BOND
    1     1     2    1
    2     1     3    1
    3     1     4    2
    4     4     5    1
    5     4     6    1
    6     6     7    1
    7     6     8    1
    8     6     9    1
    9     9    10    1
   10     9    11    1
   11     9    12    1
   12    12    13    1
   13    12    14    1
   14    12    15    1
   15    15    16    1
   16    15    17    1
   17    15    18    1
   18    18    19    1
   19    18    20    2
@<TRIPOS>SUBSTRUCTURE
       1 MOL1            1 RESIDUE      1      MOL     
@<SCITEGIC>MOL_PROPERTY
VConf Rank
SciTegic.value.IntegerValue
499

@<SCITEGIC>MOL_PROPERTY
Conf_Id
SciTegic.value.IntegerValue
51

@<SCITEGIC>MOL_PROPERTY
Delta U+W
SciTegic.value.DoubleValue
1.709

@<SCITEGIC>MOL_PROPERTY
U+W
SciTegic.value.DoubleValue
-50.036

@<SCITEGIC>MOL_PROPERTY
Grad RMS
SciTegic.value.DoubleValue
0.000000

@<SCITEGIC>MOL_PROPERTY
U
SciTegic.value.DoubleValue
10.643

@<SCITEGIC>MOL_PROPERTY
W
SciTegic.value.DoubleValue
-60.679

@<SCITEGIC>MOL_PROPERTY
W(PB)
SciTegic.value.DoubleValue
-62.882

@<SCITEGIC>MOL_PROPERTY
W(SA)
SciTegic.value.DoubleValue
2.203

@<SCITEGIC>MOL_PROPERTY
Valence
SciTegic.value.DoubleValue
11.231

@<SCITEGIC>MOL_PROPERTY
Coulomb
SciTegic.value.DoubleValue
-1.077

@<SCITEGIC>MOL_PROPERTY
VdW
SciTegic.value.DoubleValue
0.489

@<SCITEGIC>MOL_PROPERTY
VdW6
SciTegic.value.DoubleValue
-7.546

@<SCITEGIC>MOL_PROPERTY
VdW12
SciTegic.value.DoubleValue
8.035

@<SCITEGIC>MOL_PROPERTY
Bond
SciTegic.value.DoubleValue
0.159

@<SCITEGIC>MOL_PROPERTY
Angle
SciTegic.value.DoubleValue
3.005

@<SCITEGIC>MOL_PROPERTY
Pdih
SciTegic.value.DoubleValue
8.065

@<SCITEGIC>MOL_PROPERTY
Idih
SciTegic.value.DoubleValue
0.002

@<SCITEGIC>MOL_PROPERTY
Tether
SciTegic.value.DoubleValue
0.000

@<TRIPOS>MOLECULE
guest-s22_confgen4.mol2 : confsearch ligand conformer 500
          20          19           1
SMALL
USER_CHARGES
 
@<TRIPOS>ATOM
       1    C1      17.053623   18.366819   22.921323 C.2        1 MOL1        -0.2535
       2    H1      16.447428   18.344083   22.017206 H          1 MOL1         0.0845
       3    H2      16.577445   18.713825   23.836671 H          1 MOL1         0.0845
       4    C2      18.333811   17.986431   22.909659 C.2        1 MOL1        -0.1324
       5    H3      18.921622   18.007772   23.826620 H          1 MOL1         0.0833
       6    C3      19.055196   17.482113   21.678047 C.3        1 MOL1        -0.1813
       7    H4      18.403323   16.763667   21.162969 H          1 MOL1         0.0753
       8    H5      19.951425   16.917021   21.966803 H          1 MOL1         0.0753
       9    C4      19.434578   18.603791   20.679509 C.3        1 MOL1        -0.1855
      10    H6      19.617430   18.137105   19.702009 H          1 MOL1         0.0755
      11    H7      18.582440   19.281879   20.534636 H          1 MOL1         0.0755
      12    C5      20.700570   19.413323   21.057700 C.3        1 MOL1        -0.1855
      13    H8      20.972307   20.047156   20.202187 H          1 MOL1         0.0755
      14    H9      21.547029   18.730947   21.215523 H          1 MOL1         0.0755
      15    C6      20.527812   20.321609   22.302063 C.3        1 MOL1        -0.1958
      16    H10     19.630349   20.942795   22.197127 H          1 MOL1         0.0753
      17    H11     20.402985   19.716718   23.205727 H          1 MOL1         0.0753
      18    C7      21.719713   21.244418   22.528816 C.2        1 MOL1         0.6174
      19    O1      22.644547   20.833113   23.201423 O.co2      1 MOL1        -0.6695
      20    O2      21.701608   22.343192   22.009924 O.co2      1 MOL1        -0.6695
@<TRIPOS>BOND
    1     1     2    1
    2     1     3    1
    3     1     4    2
    4     4     5    1
    5     4     6    1
    6     6     7    1
    7     6     8    1
    8     6     9    1
    9     9    10    1
   10     9    11    1
   11     9    12    1
   12    12    13    1
   13    12    14    1
   14    12    15    1
   15    15    16    1
   16    15    17    1
   17    15    18    1
   18    18    19    1
   19    18    20    2
@<TRIPOS>SUBSTRUCTURE
       1 MOL1            1 RESIDUE      1      MOL     
@<SCITEGIC>MOL_PROPERTY
VConf Rank
SciTegic.value.IntegerValue
500

@<SCITEGIC>MOL_PROPERTY
Conf_Id
SciTegic.value.IntegerValue
91

@<SCITEGIC>MOL_PROPERTY
Delta U+W
SciTegic.value.DoubleValue
1.604

@<SCITEGIC>MOL_PROPERTY
U+W
SciTegic.value.DoubleValue
-50.141

@<SCITEGIC>MOL_PROPERTY
Grad RMS
SciTegic.value.DoubleValue
0.000000

@<SCITEGIC>MOL_PROPERTY
U
SciTegic.value.DoubleValue
10.644

@<SCITEGIC>MOL_PROPERTY
W
SciTegic.value.DoubleValue
-60.786

@<SCITEGIC>MOL_PROPERTY
W(PB)
SciTegic.value.DoubleValue
-62.965

@<SCITEGIC>MOL_PROPERTY
W(SA)
SciTegic.value.DoubleValue
2.179

@<SCITEGIC>MOL_PROPERTY
Valence
SciTegic.value.DoubleValue
11.230

@<SCITEGIC>MOL_PROPERTY
Coulomb
SciTegic.value.DoubleValue
-1.075

@<SCITEGIC>MOL_PROPERTY
VdW
SciTegic.value.DoubleValue
0.489

@<SCITEGIC>MOL_PROPERTY
VdW6
SciTegic.value.DoubleValue
-7.547

@<SCITEGIC>MOL_PROPERTY
VdW12
SciTegic.value.DoubleValue
8.036

@<SCITEGIC>MOL_PROPERTY
Bond
SciTegic.value.DoubleValue
0.159

@<SCITEGIC>MOL_PROPERTY
Angle
SciTegic.value.DoubleValue
3.006

@<SCITEGIC>MOL_PROPERTY
Pdih
SciTegic.value.DoubleValue
8.064

@<SCITEGIC>MOL_PROPERTY
Idih
SciTegic.value.DoubleValue
0.002

@<SCITEGIC>MOL_PROPERTY
Tether
SciTegic.value.DoubleValue
0.000

@<TRIPOS>MOLECULE
guest-s22_confgen4.mol2 : confsearch ligand conformer 501
          20          19           1
SMALL
USER_CHARGES
 
@<TRIPOS>ATOM
       1    C1      19.316618   21.040123   18.836825 C.2        1 MOL1        -0.2535
       2    H1      19.735932   20.216317   18.261403 H          1 MOL1         0.0845
       3    H2      19.319024   22.026011   18.374987 H          1 MOL1         0.0845
       4    C2      18.820091   20.853409   20.062488 C.2        1 MOL1        -0.1324
       5    H3      18.405589   21.691721   20.622022 H          1 MOL1         0.0833
       6    C3      18.781865   19.515501   20.766891 C.3        1 MOL1        -0.1813
       7    H4      18.969305   18.703400   20.051234 H          1 MOL1         0.0753
       8    H5      17.778675   19.346564   21.180671 H          1 MOL1         0.0753
       9    C4      19.826709   19.452710   21.900571 C.3        1 MOL1        -0.1855
      10    H6      20.827721   19.626462   21.482036 H          1 MOL1         0.0755
      11    H7      19.636046   20.262298   22.618468 H          1 MOL1         0.0755
      12    C5      19.799247   18.093253   22.632852 C.3        1 MOL1        -0.1855
      13    H8      19.990359   17.283024   21.915530 H          1 MOL1         0.0755
      14    H9      18.798036   17.918336   23.050589 H          1 MOL1         0.0755
      15    C6      20.850742   18.030262   23.772496 C.3        1 MOL1        -0.1958
      16    H10     21.853256   18.197656   23.361571 H          1 MOL1         0.0753
      17    H11     20.662171   18.832357   24.495678 H          1 MOL1         0.0753
      18    C7      20.890927   16.714405   24.551098 C.2        1 MOL1         0.6174
      19    O1      21.701039   16.628000   25.452425 O.co2      1 MOL1        -0.6695
      20    O2      20.129724   15.814131   24.253232 O.co2      1 MOL1        -0.6695
@<TRIPOS>BOND
    1     1     2    1
    2     1     3    1
    3     1     4    2
    4     4     5    1
    5     4     6    1
    6     6     7    1
    7     6     8    1
    8     6     9    1
    9     9    10    1
   10     9    11    1
   11     9    12    1
   12    12    13    1
   13    12    14    1
   14    12    15    1
   15    15    16    1
   16    15    17    1
   17    15    18    1
   18    18    19    1
   19    18    20    2
@<TRIPOS>SUBSTRUCTURE
       1 MOL1            1 RESIDUE      1      MOL     
@<SCITEGIC>MOL_PROPERTY
VConf Rank
SciTegic.value.IntegerValue
501

@<SCITEGIC>MOL_PROPERTY
Conf_Id
SciTegic.value.IntegerValue
33

@<SCITEGIC>MOL_PROPERTY
Delta U+W
SciTegic.value.DoubleValue
0.000

@<SCITEGIC>MOL_PROPERTY
U+W
SciTegic.value.DoubleValue
-51.745

@<SCITEGIC>MOL_PROPERTY
Grad RMS
SciTegic.value.DoubleValue
0.000000

@<SCITEGIC>MOL_PROPERTY
U
SciTegic.value.DoubleValue
7.593

@<SCITEGIC>MOL_PROPERTY
W
SciTegic.value.DoubleValue
-59.338

@<SCITEGIC>MOL_PROPERTY
W(PB)
SciTegic.value.DoubleValue
-61.574

@<SCITEGIC>MOL_PROPERTY
W(SA)
SciTegic.value.DoubleValue
2.236

@<SCITEGIC>MOL_PROPERTY
Valence
SciTegic.value.DoubleValue
9.570

@<SCITEGIC>MOL_PROPERTY
Coulomb
SciTegic.value.DoubleValue
-3.091

@<SCITEGIC>MOL_PROPERTY
VdW
SciTegic.value.DoubleValue
1.114

@<SCITEGIC>MOL_PROPERTY
VdW6
SciTegic.value.DoubleValue
-6.064

@<SCITEGIC>MOL_PROPERTY
VdW12
SciTegic.value.DoubleValue
7.178

@<SCITEGIC>MOL_PROPERTY
Bond
SciTegic.value.DoubleValue
0.117

@<SCITEGIC>MOL_PROPERTY
Angle
SciTegic.value.DoubleValue
2.692

@<SCITEGIC>MOL_PROPERTY
Pdih
SciTegic.value.DoubleValue
6.761

@<SCITEGIC>MOL_PROPERTY
Idih
SciTegic.value.DoubleValue
0.000

@<SCITEGIC>MOL_PROPERTY
Tether
SciTegic.value.DoubleValue
0.000

@<TRIPOS>MOLECULE
guest-s22_confgen4.mol2 : confsearch ligand conformer 502
          20          19           1
SMALL
USER_CHARGES
 
@<TRIPOS>ATOM
       1    C1      21.017974   16.877093   24.498930 C.2        1 MOL1        -0.2535
       2    H1      21.666170   16.398776   23.766377 H          1 MOL1         0.0845
       3    H2      20.950569   16.417855   25.483722 H          1 MOL1         0.0845
       4    C2      20.328853   17.982532   24.204327 C.2        1 MOL1        -0.1324
       5    H3      19.684835   18.445269   24.951820 H          1 MOL1         0.0833
       6    C3      20.372646   18.676203   22.860963 C.3        1 MOL1        -0.1813
       7    H4      21.221276   18.305863   22.269971 H          1 MOL1         0.0753
       8    H5      20.537982   19.749888   23.015608 H          1 MOL1         0.0753
       9    C4      19.061012   18.448942   22.076247 C.3        1 MOL1        -0.1855
      10    H6      18.872884   17.368556   22.007591 H          1 MOL1         0.0755
      11    H7      18.217082   18.875674   22.635420 H          1 MOL1         0.0755
      12    C5      19.088047   19.036940   20.645265 C.3        1 MOL1        -0.1855
      13    H8      18.169809   18.734568   20.122863 H          1 MOL1         0.0755
      14    H9      19.923738   18.601091   20.080422 H          1 MOL1         0.0755
      15    C6      19.192515   20.583892   20.613612 C.3        1 MOL1        -0.1958
      16    H10     18.387662   21.029981   21.209932 H          1 MOL1         0.0753
      17    H11     20.142191   20.916285   21.047632 H          1 MOL1         0.0753
      18    C7      19.104793   21.151349   19.201427 C.2        1 MOL1         0.6174
      19    O1      20.134149   21.273947   18.567310 O.co2      1 MOL1        -0.6695
      20    O2      18.007179   21.437345   18.765327 O.co2      1 MOL1        -0.6695
@<TRIPOS>BOND
    1     1     2    1
    2     1     3    1
    3     1     4    2
    4     4     5    1
    5     4     6    1
    6     6     7    1
    7     6     8    1
    8     6     9    1
    9     9    10    1
   10     9    11    1
   11     9    12    1
   12    12    13    1
   13    12    14    1
   14    12    15    1
   15    15    16    1
   16    15    17    1
   17    15    18    1
   18    18    19    1
   19    18    20    2
@<TRIPOS>SUBSTRUCTURE
       1 MOL1            1 RESIDUE      1      MOL     
@<SCITEGIC>MOL_PROPERTY
VConf Rank
SciTegic.value.IntegerValue
502

@<SCITEGIC>MOL_PROPERTY
Conf_Id
SciTegic.value.IntegerValue
37

@<SCITEGIC>MOL_PROPERTY
Delta U+W
SciTegic.value.DoubleValue
-0.384

@<SCITEGIC>MOL_PROPERTY
U+W
SciTegic.value.DoubleValue
-52.130

@<SCITEGIC>MOL_PROPERTY
Grad RMS
SciTegic.value.DoubleValue
0.000000

@<SCITEGIC>MOL_PROPERTY
U
SciTegic.value.DoubleValue
7.491

@<SCITEGIC>MOL_PROPERTY
W
SciTegic.value.DoubleValue
-59.621

@<SCITEGIC>MOL_PROPERTY
W(PB)
SciTegic.value.DoubleValue
-61.853

@<SCITEGIC>MOL_PROPERTY
W(SA)
SciTegic.value.DoubleValue
2.232

@<SCITEGIC>MOL_PROPERTY
Valence
SciTegic.value.DoubleValue
9.604

@<SCITEGIC>MOL_PROPERTY
Coulomb
SciTegic.value.DoubleValue
-2.799

@<SCITEGIC>MOL_PROPERTY
VdW
SciTegic.value.DoubleValue
0.686

@<SCITEGIC>MOL_PROPERTY
VdW6
SciTegic.value.DoubleValue
-6.435

@<SCITEGIC>MOL_PROPERTY
VdW12
SciTegic.value.DoubleValue
7.121

@<SCITEGIC>MOL_PROPERTY
Bond
SciTegic.value.DoubleValue
0.124

@<SCITEGIC>MOL_PROPERTY
Angle
SciTegic.value.DoubleValue
2.493

@<SCITEGIC>MOL_PROPERTY
Pdih
SciTegic.value.DoubleValue
6.986

@<SCITEGIC>MOL_PROPERTY
Idih
SciTegic.value.DoubleValue
0.001

@<SCITEGIC>MOL_PROPERTY
Tether
SciTegic.value.DoubleValue
0.000

@<TRIPOS>MOLECULE
guest-s22_confgen4.mol2 : confsearch ligand conformer 503
          20          19           1
SMALL
USER_CHARGES
 
@<TRIPOS>ATOM
       1    C1      16.593740   19.743239   21.202826 C.2        1 MOL1        -0.2535
       2    H1      15.552772   19.983900   20.993880 H          1 MOL1         0.0845
       3    H2      17.207471   19.442717   20.356323 H          1 MOL1         0.0845
       4    C2      17.075869   19.819604   22.448472 C.2        1 MOL1        -0.1324
       5    H3      16.411582   20.126974   23.255860 H          1 MOL1         0.0833
       6    C3      18.497158   19.516871   22.892662 C.3        1 MOL1        -0.1813
       7    H4      18.467028   18.734546   23.662853 H          1 MOL1         0.0753
       8    H5      18.908412   20.405758   23.389537 H          1 MOL1         0.0753
       9    C4      19.456809   19.078469   21.761796 C.3        1 MOL1        -0.1855
      10    H6      19.061489   18.176908   21.273947 H          1 MOL1         0.0755
      11    H7      19.507642   19.866242   20.997652 H          1 MOL1         0.0755
      12    C5      20.877021   18.790740   22.295868 C.3        1 MOL1        -0.1855
      13    H8      20.832976   18.003240   23.061055 H          1 MOL1         0.0755
      14    H9      21.278206   19.689119   22.785327 H          1 MOL1         0.0755
      15    C6      21.839894   18.351556   21.165347 C.3        1 MOL1        -0.1958
      16    H10     21.460487   17.447186   20.674666 H          1 MOL1         0.0753
      17    H11     21.905646   19.133098   20.398880 H          1 MOL1         0.0753
      18    C7      23.249602   18.061548   21.667945 C.2        1 MOL1         0.6174
      19    O1      23.506941   16.931722   22.033895 O.co2      1 MOL1        -0.6695
      20    O2      24.047316   18.977707   21.698803 O.co2      1 MOL1        -0.6695
@<TRIPOS>BOND
    1     1     2    1
    2     1     3    1
    3     1     4    2
    4     4     5    1
    5     4     6    1
    6     6     7    1
    7     6     8    1
    8     6     9    1
    9     9    10    1
   10     9    11    1
   11     9    12    1
   12    12    13    1
   13    12    14    1
   14    12    15    1
   15    15    16    1
   16    15    17    1
   17    15    18    1
   18    18    19    1
   19    18    20    2
@<TRIPOS>SUBSTRUCTURE
       1 MOL1            1 RESIDUE      1      MOL     
@<SCITEGIC>MOL_PROPERTY
VConf Rank
SciTegic.value.IntegerValue
503

@<SCITEGIC>MOL_PROPERTY
Conf_Id
SciTegic.value.IntegerValue
44

@<SCITEGIC>MOL_PROPERTY
Delta U+W
SciTegic.value.DoubleValue
-1.440

@<SCITEGIC>MOL_PROPERTY
U+W
SciTegic.value.DoubleValue
-53.185

@<SCITEGIC>MOL_PROPERTY
Grad RMS
SciTegic.value.DoubleValue
0.000000

@<SCITEGIC>MOL_PROPERTY
U
SciTegic.value.DoubleValue
6.572

@<SCITEGIC>MOL_PROPERTY
W
SciTegic.value.DoubleValue
-59.757

@<SCITEGIC>MOL_PROPERTY
W(PB)
SciTegic.value.DoubleValue
-62.007

@<SCITEGIC>MOL_PROPERTY
W(SA)
SciTegic.value.DoubleValue
2.249

@<SCITEGIC>MOL_PROPERTY
Valence
SciTegic.value.DoubleValue
7.989

@<SCITEGIC>MOL_PROPERTY
Coulomb
SciTegic.value.DoubleValue
-2.697

@<SCITEGIC>MOL_PROPERTY
VdW
SciTegic.value.DoubleValue
1.281

@<SCITEGIC>MOL_PROPERTY
VdW6
SciTegic.value.DoubleValue
-6.467

@<SCITEGIC>MOL_PROPERTY
VdW12
SciTegic.value.DoubleValue
7.748

@<SCITEGIC>MOL_PROPERTY
Bond
SciTegic.value.DoubleValue
0.136

@<SCITEGIC>MOL_PROPERTY
Angle
SciTegic.value.DoubleValue
2.854

@<SCITEGIC>MOL_PROPERTY
Pdih
SciTegic.value.DoubleValue
4.997

@<SCITEGIC>MOL_PROPERTY
Idih
SciTegic.value.DoubleValue
0.001

@<SCITEGIC>MOL_PROPERTY
Tether
SciTegic.value.DoubleValue
0.000

@<TRIPOS>MOLECULE
guest-s22_confgen4.mol2 : confsearch ligand conformer 504
          20          19           1
SMALL
USER_CHARGES
 
@<TRIPOS>ATOM
       1    C1      20.453169   17.272235   19.041831 C.2        1 MOL1        -0.2535
       2    H1      21.133843   18.107805   18.886643 H          1 MOL1         0.0845
       3    H2      20.252425   16.624786   18.189912 H          1 MOL1         0.0845
       4    C2      19.882579   17.048270   20.228415 C.2        1 MOL1        -0.1324
       5    H3      19.203622   16.206428   20.362417 H          1 MOL1         0.0833
       6    C3      20.114181   17.902135   21.455270 C.3        1 MOL1        -0.1813
       7    H4      20.996102   18.538085   21.305661 H          1 MOL1         0.0753
       8    H5      20.331317   17.255797   22.316101 H          1 MOL1         0.0753
       9    C4      18.878851   18.777966   21.763232 C.3        1 MOL1        -0.1855
      10    H6      18.695199   19.462633   20.923771 H          1 MOL1         0.0755
      11    H7      17.993549   18.131297   21.834949 H          1 MOL1         0.0755
      12    C5      19.006517   19.586089   23.076610 C.3        1 MOL1        -0.1855
      13    H8      19.180566   18.901803   23.918531 H          1 MOL1         0.0755
      14    H9      18.048743   20.086244   23.276651 H          1 MOL1         0.0755
      15    C6      20.128222   20.656315   23.038507 C.3        1 MOL1        -0.1958
      16    H10     21.110775   20.183215   22.931420 H          1 MOL1         0.0753
      17    H11     19.989862   21.319110   22.175979 H          1 MOL1         0.0753
      18    C7      20.163502   21.517650   24.295801 C.2        1 MOL1         0.6174
      19    O1      19.498791   22.534800   24.313135 O.co2      1 MOL1        -0.6695
      20    O2      20.838969   21.138683   25.232200 O.co2      1 MOL1        -0.6695
@<TRIPOS>BOND
    1     1     2    1
    2     1     3    1
    3     1     4    2
    4     4     5    1
    5     4     6    1
    6     6     7    1
    7     6     8    1
    8     6     9    1
    9     9    10    1
   10     9    11    1
   11     9    12    1
   12    12    13    1
   13    12    14    1
   14    12    15    1
   15    15    16    1
   16    15    17    1
   17    15    18    1
   18    18    19    1
   19    18    20    2
@<TRIPOS>SUBSTRUCTURE
       1 MOL1            1 RESIDUE      1      MOL     
@<SCITEGIC>MOL_PROPERTY
VConf Rank
SciTegic.value.IntegerValue
504

@<SCITEGIC>MOL_PROPERTY
Conf_Id
SciTegic.value.IntegerValue
38

@<SCITEGIC>MOL_PROPERTY
Delta U+W
SciTegic.value.DoubleValue
-0.381

@<SCITEGIC>MOL_PROPERTY
U+W
SciTegic.value.DoubleValue
-52.126

@<SCITEGIC>MOL_PROPERTY
Grad RMS
SciTegic.value.DoubleValue
0.000000

@<SCITEGIC>MOL_PROPERTY
U
SciTegic.value.DoubleValue
7.601

@<SCITEGIC>MOL_PROPERTY
W
SciTegic.value.DoubleValue
-59.727

@<SCITEGIC>MOL_PROPERTY
W(PB)
SciTegic.value.DoubleValue
-61.964

@<SCITEGIC>MOL_PROPERTY
W(SA)
SciTegic.value.DoubleValue
2.236

@<SCITEGIC>MOL_PROPERTY
Valence
SciTegic.value.DoubleValue
9.602

@<SCITEGIC>MOL_PROPERTY
Coulomb
SciTegic.value.DoubleValue
-2.686

@<SCITEGIC>MOL_PROPERTY
VdW
SciTegic.value.DoubleValue
0.685

@<SCITEGIC>MOL_PROPERTY
VdW6
SciTegic.value.DoubleValue
-6.453

@<SCITEGIC>MOL_PROPERTY
VdW12
SciTegic.value.DoubleValue
7.139

@<SCITEGIC>MOL_PROPERTY
Bond
SciTegic.value.DoubleValue
0.125

@<SCITEGIC>MOL_PROPERTY
Angle
SciTegic.value.DoubleValue
2.485

@<SCITEGIC>MOL_PROPERTY
Pdih
SciTegic.value.DoubleValue
6.991

@<SCITEGIC>MOL_PROPERTY
Idih
SciTegic.value.DoubleValue
0.001

@<SCITEGIC>MOL_PROPERTY
Tether
SciTegic.value.DoubleValue
0.000

@<TRIPOS>MOLECULE
guest-s22_confgen4.mol2 : confsearch ligand conformer 505
          20          19           1
SMALL
USER_CHARGES
 
@<TRIPOS>ATOM
       1    C1      23.143574   18.363016   21.593644 C.2        1 MOL1        -0.2535
       2    H1      23.027500   18.222943   20.520106 H          1 MOL1         0.0845
       3    H2      24.147390   18.556850   21.967879 H          1 MOL1         0.0845
       4    C2      22.097890   18.302579   22.422231 C.2        1 MOL1        -0.1324
       5    H3      22.235555   18.446604   23.493662 H          1 MOL1         0.0833
       6    C3      20.677149   18.037250   21.976424 C.3        1 MOL1        -0.1813
       7    H4      20.234300   17.254810   22.607136 H          1 MOL1         0.0753
       8    H5      20.666769   17.656474   20.946064 H          1 MOL1         0.0753
       9    C4      19.818641   19.316648   22.060781 C.3        1 MOL1        -0.1855
      10    H6      19.828781   19.694083   23.092707 H          1 MOL1         0.0755
      11    H7      20.267366   20.098413   21.432481 H          1 MOL1         0.0755
      12    C5      18.362126   19.062107   21.611220 C.3        1 MOL1        -0.1855
      13    H8      17.906812   18.287992   22.244570 H          1 MOL1         0.0755
      14    H9      18.363032   18.670646   20.584897 H          1 MOL1         0.0755
      15    C6      17.490419   20.343761   21.660053 C.3        1 MOL1        -0.1958
      16    H10     17.946955   21.135880   21.054264 H          1 MOL1         0.0753
      17    H11     16.507417   20.135373   21.221581 H          1 MOL1         0.0753
      18    C7      17.256804   20.881414   23.069032 C.2        1 MOL1         0.6174
      19    O1      17.868330   21.872689   23.415989 O.co2      1 MOL1        -0.6695
      20    O2      16.459901   20.299700   23.778717 O.co2      1 MOL1        -0.6695
@<TRIPOS>BOND
    1     1     2    1
    2     1     3    1
    3     1     4    2
    4     4     5    1
    5     4     6    1
    6     6     7    1
    7     6     8    1
    8     6     9    1
    9     9    10    1
   10     9    11    1
   11     9    12    1
   12    12    13    1
   13    12    14    1
   14    12    15    1
   15    15    16    1
   16    15    17    1
   17    15    18    1
   18    18    19    1
   19    18    20    2
@<TRIPOS>SUBSTRUCTURE
       1 MOL1            1 RESIDUE      1      MOL     
@<SCITEGIC>MOL_PROPERTY
VConf Rank
SciTegic.value.IntegerValue
505

@<SCITEGIC>MOL_PROPERTY
Conf_Id
SciTegic.value.IntegerValue
58

@<SCITEGIC>MOL_PROPERTY
Delta U+W
SciTegic.value.DoubleValue
0.019

@<SCITEGIC>MOL_PROPERTY
U+W
SciTegic.value.DoubleValue
-51.727

@<SCITEGIC>MOL_PROPERTY
Grad RMS
SciTegic.value.DoubleValue
0.000000

@<SCITEGIC>MOL_PROPERTY
U
SciTegic.value.DoubleValue
8.963

@<SCITEGIC>MOL_PROPERTY
W
SciTegic.value.DoubleValue
-60.690

@<SCITEGIC>MOL_PROPERTY
W(PB)
SciTegic.value.DoubleValue
-62.934

@<SCITEGIC>MOL_PROPERTY
W(SA)
SciTegic.value.DoubleValue
2.244

@<SCITEGIC>MOL_PROPERTY
Valence
SciTegic.value.DoubleValue
9.327

@<SCITEGIC>MOL_PROPERTY
Coulomb
SciTegic.value.DoubleValue
-0.780

@<SCITEGIC>MOL_PROPERTY
VdW
SciTegic.value.DoubleValue
0.417

@<SCITEGIC>MOL_PROPERTY
VdW6
SciTegic.value.DoubleValue
-6.635

@<SCITEGIC>MOL_PROPERTY
VdW12
SciTegic.value.DoubleValue
7.052

@<SCITEGIC>MOL_PROPERTY
Bond
SciTegic.value.DoubleValue
0.105

@<SCITEGIC>MOL_PROPERTY
Angle
SciTegic.value.DoubleValue
2.399

@<SCITEGIC>MOL_PROPERTY
Pdih
SciTegic.value.DoubleValue
6.822

@<SCITEGIC>MOL_PROPERTY
Idih
SciTegic.value.DoubleValue
0.000

@<SCITEGIC>MOL_PROPERTY
Tether
SciTegic.value.DoubleValue
0.000

@<TRIPOS>MOLECULE
guest-s22_confgen4.mol2 : confsearch ligand conformer 506
          20          19           1
SMALL
USER_CHARGES
 
@<TRIPOS>ATOM
       1    C1      20.494457   17.994902   18.786128 C.2        1 MOL1        -0.2535
       2    H1      20.590396   16.968859   19.137707 H          1 MOL1         0.0845
       3    H2      20.981927   18.250169   17.846725 H          1 MOL1         0.0845
       4    C2      19.808785   18.908361   19.478309 C.2        1 MOL1        -0.1324
       5    H3      19.725647   19.930386   19.109241 H          1 MOL1         0.0833
       6    C3      19.105963   18.627991   20.787918 C.3        1 MOL1        -0.1813
       7    H4      19.022633   17.544763   20.950439 H          1 MOL1         0.0753
       8    H5      18.081381   19.021236   20.746502 H          1 MOL1         0.0753
       9    C4      19.858373   19.269575   21.972512 C.3        1 MOL1        -0.1855
      10    H6      20.884145   18.877377   22.007785 H          1 MOL1         0.0755
      11    H7      19.938328   20.353171   21.808627 H          1 MOL1         0.0755
      12    C5      19.151290   18.994979   23.318974 C.3        1 MOL1        -0.1855
      13    H8      19.062038   17.910160   23.466567 H          1 MOL1         0.0755
      14    H9      18.128332   19.395555   23.290866 H          1 MOL1         0.0755
      15    C6      19.909144   19.606260   24.525990 C.3        1 MOL1        -0.1958
      16    H10     19.433204   19.283230   25.459322 H          1 MOL1         0.0753
      17    H11     20.941578   19.237092   24.551595 H          1 MOL1         0.0753
      18    C7      19.937040   21.132054   24.532374 C.2        1 MOL1         0.6174
      19    O1      18.924703   21.721591   24.855973 O.co2      1 MOL1        -0.6695
      20    O2      20.971723   21.690488   24.224883 O.co2      1 MOL1        -0.6695
@<TRIPOS>BOND
    1     1     2    1
    2     1     3    1
    3     1     4    2
    4     4     5    1
    5     4     6    1
    6     6     7    1
    7     6     8    1
    8     6     9    1
    9     9    10    1
   10     9    11    1
   11     9    12    1
   12    12    13    1
   13    12    14    1
   14    12    15    1
   15    15    16    1
   16    15    17    1
   17    15    18    1
   18    18    19    1
   19    18    20    2
@<TRIPOS>SUBSTRUCTURE
       1 MOL1            1 RESIDUE      1      MOL     
@<SCITEGIC>MOL_PROPERTY
VConf Rank
SciTegic.value.IntegerValue
506

@<SCITEGIC>MOL_PROPERTY
Conf_Id
SciTegic.value.IntegerValue
54

@<SCITEGIC>MOL_PROPERTY
Delta U+W
SciTegic.value.DoubleValue
-0.048

@<SCITEGIC>MOL_PROPERTY
U+W
SciTegic.value.DoubleValue
-51.793

@<SCITEGIC>MOL_PROPERTY
Grad RMS
SciTegic.value.DoubleValue
0.000000

@<SCITEGIC>MOL_PROPERTY
U
SciTegic.value.DoubleValue
8.964

@<SCITEGIC>MOL_PROPERTY
W
SciTegic.value.DoubleValue
-60.756

@<SCITEGIC>MOL_PROPERTY
W(PB)
SciTegic.value.DoubleValue
-63.007

@<SCITEGIC>MOL_PROPERTY
W(SA)
SciTegic.value.DoubleValue
2.251

@<SCITEGIC>MOL_PROPERTY
Valence
SciTegic.value.DoubleValue
9.327

@<SCITEGIC>MOL_PROPERTY
Coulomb
SciTegic.value.DoubleValue
-0.780

@<SCITEGIC>MOL_PROPERTY
VdW
SciTegic.value.DoubleValue
0.417

@<SCITEGIC>MOL_PROPERTY
VdW6
SciTegic.value.DoubleValue
-6.635

@<SCITEGIC>MOL_PROPERTY
VdW12
SciTegic.value.DoubleValue
7.052

@<SCITEGIC>MOL_PROPERTY
Bond
SciTegic.value.DoubleValue
0.105

@<SCITEGIC>MOL_PROPERTY
Angle
SciTegic.value.DoubleValue
2.399

@<SCITEGIC>MOL_PROPERTY
Pdih
SciTegic.value.DoubleValue
6.822

@<SCITEGIC>MOL_PROPERTY
Idih
SciTegic.value.DoubleValue
0.000

@<SCITEGIC>MOL_PROPERTY
Tether
SciTegic.value.DoubleValue
0.000

@<TRIPOS>MOLECULE
guest-s22_confgen4.mol2 : confsearch ligand conformer 507
          20          19           1
SMALL
USER_CHARGES
 
@<TRIPOS>ATOM
       1    C1      22.518192   20.129159   23.674138 C.2        1 MOL1        -0.2535
       2    H1      23.296421   20.857716   23.453339 H          1 MOL1         0.0845
       3    H2      22.181722   20.052565   24.706819 H          1 MOL1         0.0845
       4    C2      21.996933   19.363135   22.712283 C.2        1 MOL1        -0.1324
       5    H3      22.350684   19.453539   21.685667 H          1 MOL1         0.0833
       6    C3      20.919210   18.325900   22.945745 C.3        1 MOL1        -0.1813
       7    H4      20.892645   18.053036   24.009404 H          1 MOL1         0.0753
       8    H5      21.160959   17.404985   22.398463 H          1 MOL1         0.0753
       9    C4      19.518289   18.827663   22.528787 C.3        1 MOL1        -0.1855
      10    H6      18.770860   18.089173   22.849671 H          1 MOL1         0.0755
      11    H7      19.288775   19.758352   23.065702 H          1 MOL1         0.0755
      12    C5      19.390390   19.057067   21.003952 C.3        1 MOL1        -0.1855
      13    H8      19.634104   18.130358   20.466132 H          1 MOL1         0.0755
      14    H9      20.122183   19.810424   20.683912 H          1 MOL1         0.0755
      15    C6      17.973804   19.533777   20.590174 C.3        1 MOL1        -0.1958
      16    H10     17.702480   20.440414   21.144452 H          1 MOL1         0.0753
      17    H11     17.973045   19.799761   19.526592 H          1 MOL1         0.0753
      18    C7      16.881276   18.489082   20.799528 C.2        1 MOL1         0.6174
      19    O1      16.124300   18.627814   21.740161 O.co2      1 MOL1        -0.6695
      20    O2      16.809928   17.569043   20.008608 O.co2      1 MOL1        -0.6695
@<TRIPOS>BOND
    1     1     2    1
    2     1     3    1
    3     1     4    2
    4     4     5    1
    5     4     6    1
    6     6     7    1
    7     6     8    1
    8     6     9    1
    9     9    10    1
   10     9    11    1
   11     9    12    1
   12    12    13    1
   13    12    14    1
   14    12    15    1
   15    15    16    1
   16    15    17    1
   17    15    18    1
   18    18    19    1
   19    18    20    2
@<TRIPOS>SUBSTRUCTURE
       1 MOL1            1 RESIDUE      1      MOL     
@<SCITEGIC>MOL_PROPERTY
VConf Rank
SciTegic.value.IntegerValue
507

@<SCITEGIC>MOL_PROPERTY
Conf_Id
SciTegic.value.IntegerValue
27

@<SCITEGIC>MOL_PROPERTY
Delta U+W
SciTegic.value.DoubleValue
0.478

@<SCITEGIC>MOL_PROPERTY
U+W
SciTegic.value.DoubleValue
-51.267

@<SCITEGIC>MOL_PROPERTY
Grad RMS
SciTegic.value.DoubleValue
0.000000

@<SCITEGIC>MOL_PROPERTY
U
SciTegic.value.DoubleValue
9.192

@<SCITEGIC>MOL_PROPERTY
W
SciTegic.value.DoubleValue
-60.459

@<SCITEGIC>MOL_PROPERTY
W(PB)
SciTegic.value.DoubleValue
-62.649

@<SCITEGIC>MOL_PROPERTY
W(SA)
SciTegic.value.DoubleValue
2.190

@<SCITEGIC>MOL_PROPERTY
Valence
SciTegic.value.DoubleValue
9.572

@<SCITEGIC>MOL_PROPERTY
Coulomb
SciTegic.value.DoubleValue
-0.884

@<SCITEGIC>MOL_PROPERTY
VdW
SciTegic.value.DoubleValue
0.504

@<SCITEGIC>MOL_PROPERTY
VdW6
SciTegic.value.DoubleValue
-7.168

@<SCITEGIC>MOL_PROPERTY
VdW12
SciTegic.value.DoubleValue
7.672

@<SCITEGIC>MOL_PROPERTY
Bond
SciTegic.value.DoubleValue
0.127

@<SCITEGIC>MOL_PROPERTY
Angle
SciTegic.value.DoubleValue
2.504

@<SCITEGIC>MOL_PROPERTY
Pdih
SciTegic.value.DoubleValue
6.941

@<SCITEGIC>MOL_PROPERTY
Idih
SciTegic.value.DoubleValue
0.001

@<SCITEGIC>MOL_PROPERTY
Tether
SciTegic.value.DoubleValue
0.000

@<TRIPOS>MOLECULE
guest-s22_confgen4.mol2 : confsearch ligand conformer 508
          20          19           1
SMALL
USER_CHARGES
 
@<TRIPOS>ATOM
       1    C1      19.156727   15.575645   21.219424 C.2        1 MOL1        -0.2535
       2    H1      18.621398   15.149545   22.066399 H          1 MOL1         0.0845
       3    H2      19.799505   14.909573   20.646377 H          1 MOL1         0.0845
       4    C2      19.034894   16.865387   20.894772 C.2        1 MOL1        -0.1324
       5    H3      19.577376   17.270718   20.041125 H          1 MOL1         0.0833
       6    C3      18.156607   17.847639   21.640151 C.3        1 MOL1        -0.1813
       7    H4      17.403909   17.301592   22.224818 H          1 MOL1         0.0753
       8    H5      17.599595   18.468393   20.925684 H          1 MOL1         0.0753
       9    C4      18.966037   18.752034   22.596683 C.3        1 MOL1        -0.1855
      10    H6      18.265324   19.345072   23.200160 H          1 MOL1         0.0755
      11    H7      19.533211   18.125242   23.298645 H          1 MOL1         0.0755
      12    C5      19.927557   19.706368   21.851857 C.3        1 MOL1        -0.1855
      13    H8      19.362443   20.314231   21.131783 H          1 MOL1         0.0755
      14    H9      20.659694   19.125657   21.274420 H          1 MOL1         0.0755
      15    C6      20.681924   20.641067   22.829266 C.3        1 MOL1        -0.1958
      16    H10     19.968603   21.242979   23.404948 H          1 MOL1         0.0753
      17    H11     21.261117   20.048867   23.547906 H          1 MOL1         0.0753
      18    C7      21.638528   21.592073   22.118951 C.2        1 MOL1         0.6174
      19    O1      22.783010   21.225752   21.938316 O.co2      1 MOL1        -0.6695
      20    O2      21.209208   22.667149   21.749364 O.co2      1 MOL1        -0.6695
@<TRIPOS>BOND
    1     1     2    1
    2     1     3    1
    3     1     4    2
    4     4     5    1
    5     4     6    1
    6     6     7    1
    7     6     8    1
    8     6     9    1
    9     9    10    1
   10     9    11    1
   11     9    12    1
   12    12    13    1
   13    12    14    1
   14    12    15    1
   15    15    16    1
   16    15    17    1
   17    15    18    1
   18    18    19    1
   19    18    20    2
@<TRIPOS>SUBSTRUCTURE
       1 MOL1            1 RESIDUE      1      MOL     
@<SCITEGIC>MOL_PROPERTY
VConf Rank
SciTegic.value.IntegerValue
508

@<SCITEGIC>MOL_PROPERTY
Conf_Id
SciTegic.value.IntegerValue
41

@<SCITEGIC>MOL_PROPERTY
Delta U+W
SciTegic.value.DoubleValue
-0.634

@<SCITEGIC>MOL_PROPERTY
U+W
SciTegic.value.DoubleValue
-52.379

@<SCITEGIC>MOL_PROPERTY
Grad RMS
SciTegic.value.DoubleValue
0.000000

@<SCITEGIC>MOL_PROPERTY
U
SciTegic.value.DoubleValue
7.828

@<SCITEGIC>MOL_PROPERTY
W
SciTegic.value.DoubleValue
-60.207

@<SCITEGIC>MOL_PROPERTY
W(PB)
SciTegic.value.DoubleValue
-62.449

@<SCITEGIC>MOL_PROPERTY
W(SA)
SciTegic.value.DoubleValue
2.242

@<SCITEGIC>MOL_PROPERTY
Valence
SciTegic.value.DoubleValue
9.300

@<SCITEGIC>MOL_PROPERTY
Coulomb
SciTegic.value.DoubleValue
-2.080

@<SCITEGIC>MOL_PROPERTY
VdW
SciTegic.value.DoubleValue
0.608

@<SCITEGIC>MOL_PROPERTY
VdW6
SciTegic.value.DoubleValue
-6.341

@<SCITEGIC>MOL_PROPERTY
VdW12
SciTegic.value.DoubleValue
6.949

@<SCITEGIC>MOL_PROPERTY
Bond
SciTegic.value.DoubleValue
0.103

@<SCITEGIC>MOL_PROPERTY
Angle
SciTegic.value.DoubleValue
2.334

@<SCITEGIC>MOL_PROPERTY
Pdih
SciTegic.value.DoubleValue
6.862

@<SCITEGIC>MOL_PROPERTY
Idih
SciTegic.value.DoubleValue
0.001

@<SCITEGIC>MOL_PROPERTY
Tether
SciTegic.value.DoubleValue
0.000

@<TRIPOS>MOLECULE
guest-s22_confgen4.mol2 : confsearch ligand conformer 509
          20          19           1
SMALL
USER_CHARGES
 
@<TRIPOS>ATOM
       1    C1      16.846373   18.798293   20.616985 C.2        1 MOL1        -0.2535
       2    H1      16.287328   18.782495   19.682931 H          1 MOL1         0.0845
       3    H2      16.327154   18.473513   21.517253 H          1 MOL1         0.0845
       4    C2      18.119910   19.199001   20.652349 C.2        1 MOL1        -0.1324
       5    H3      18.621948   19.519739   19.739797 H          1 MOL1         0.0833
       6    C3      18.958700   19.248947   21.909940 C.3        1 MOL1        -0.1813
       7    H4      18.318104   19.162929   22.797979 H          1 MOL1         0.0753
       8    H5      19.458624   20.224353   21.970054 H          1 MOL1         0.0753
       9    C4      20.010486   18.117219   21.920548 C.3        1 MOL1        -0.1855
      10    H6      19.500350   17.157623   21.759001 H          1 MOL1         0.0755
      11    H7      20.698315   18.247096   21.073624 H          1 MOL1         0.0755
      12    C5      20.814220   18.031796   23.241497 C.3        1 MOL1        -0.1855
      13    H8      21.479930   17.158866   23.194490 H          1 MOL1         0.0755
      14    H9      20.122587   17.846409   24.074373 H          1 MOL1         0.0755
      15    C6      21.665903   19.291576   23.557738 C.3        1 MOL1        -0.1958
      16    H10     21.024239   20.170696   23.685881 H          1 MOL1         0.0753
      17    H11     22.187360   19.146966   24.511088 H          1 MOL1         0.0753
      18    C7      22.724383   19.608322   22.505108 C.2        1 MOL1         0.6174
      19    O1      23.697809   18.883690   22.436145 O.co2      1 MOL1        -0.6695
      20    O2      22.557479   20.580045   21.794579 O.co2      1 MOL1        -0.6695
@<TRIPOS>BOND
    1     1     2    1
    2     1     3    1
    3     1     4    2
    4     4     5    1
    5     4     6    1
    6     6     7    1
    7     6     8    1
    8     6     9    1
    9     9    10    1
   10     9    11    1
   11     9    12    1
   12    12    13    1
   13    12    14    1
   14    12    15    1
   15    15    16    1
   16    15    17    1
   17    15    18    1
   18    18    19    1
   19    18    20    2
@<TRIPOS>SUBSTRUCTURE
       1 MOL1            1 RESIDUE      1      MOL     
@<SCITEGIC>MOL_PROPERTY
VConf Rank
SciTegic.value.IntegerValue
509

@<SCITEGIC>MOL_PROPERTY
Conf_Id
SciTegic.value.IntegerValue
84

@<SCITEGIC>MOL_PROPERTY
Delta U+W
SciTegic.value.DoubleValue
0.942

@<SCITEGIC>MOL_PROPERTY
U+W
SciTegic.value.DoubleValue
-50.803

@<SCITEGIC>MOL_PROPERTY
Grad RMS
SciTegic.value.DoubleValue
0.000000

@<SCITEGIC>MOL_PROPERTY
U
SciTegic.value.DoubleValue
10.196

@<SCITEGIC>MOL_PROPERTY
W
SciTegic.value.DoubleValue
-60.999

@<SCITEGIC>MOL_PROPERTY
W(PB)
SciTegic.value.DoubleValue
-63.182

@<SCITEGIC>MOL_PROPERTY
W(SA)
SciTegic.value.DoubleValue
2.182

@<SCITEGIC>MOL_PROPERTY
Valence
SciTegic.value.DoubleValue
9.837

@<SCITEGIC>MOL_PROPERTY
Coulomb
SciTegic.value.DoubleValue
0.032

@<SCITEGIC>MOL_PROPERTY
VdW
SciTegic.value.DoubleValue
0.328

@<SCITEGIC>MOL_PROPERTY
VdW6
SciTegic.value.DoubleValue
-7.642

@<SCITEGIC>MOL_PROPERTY
VdW12
SciTegic.value.DoubleValue
7.969

@<SCITEGIC>MOL_PROPERTY
Bond
SciTegic.value.DoubleValue
0.151

@<SCITEGIC>MOL_PROPERTY
Angle
SciTegic.value.DoubleValue
2.748

@<SCITEGIC>MOL_PROPERTY
Pdih
SciTegic.value.DoubleValue
6.937

@<SCITEGIC>MOL_PROPERTY
Idih
SciTegic.value.DoubleValue
0.001

@<SCITEGIC>MOL_PROPERTY
Tether
SciTegic.value.DoubleValue
0.000

@<TRIPOS>MOLECULE
guest-s22_confgen4.mol2 : confsearch ligand conformer 510
          20          19           1
SMALL
USER_CHARGES
 
@<TRIPOS>ATOM
       1    C1      22.519562   20.072750   20.323761 C.2        1 MOL1        -0.2535
       2    H1      23.358730   19.699554   19.739137 H          1 MOL1         0.0845
       3    H2      21.982493   20.936280   19.934589 H          1 MOL1         0.0845
       4    C2      22.164573   19.489601   21.471621 C.2        1 MOL1        -0.1324
       5    H3      22.714957   18.625540   21.843254 H          1 MOL1         0.0833
       6    C3      21.013048   19.951628   22.336600 C.3        1 MOL1        -0.1813
       7    H4      20.687761   20.955779   22.032201 H          1 MOL1         0.0753
       8    H5      21.346082   20.030006   23.380165 H          1 MOL1         0.0753
       9    C4      19.820925   18.976152   22.245219 C.3        1 MOL1        -0.1855
      10    H6      19.497169   18.897711   21.197980 H          1 MOL1         0.0755
      11    H7      20.144489   17.972479   22.553433 H          1 MOL1         0.0755
      12    C5      18.636331   19.432426   23.126629 C.3        1 MOL1        -0.1855
      13    H8      18.300893   20.430449   22.811759 H          1 MOL1         0.0755
      14    H9      18.974342   19.526359   24.167540 H          1 MOL1         0.0755
      15    C6      17.439341   18.447919   23.073279 C.3        1 MOL1        -0.1958
      16    H10     17.764435   17.440231   23.359166 H          1 MOL1         0.0753
      17    H11     16.679557   18.754962   23.801583 H          1 MOL1         0.0753
      18    C7      16.759264   18.371753   21.709245 C.2        1 MOL1         0.6174
      19    O1      16.961340   17.392173   21.018912 O.co2      1 MOL1        -0.6695
      20    O2      16.034281   19.289661   21.379168 O.co2      1 MOL1        -0.6695
@<TRIPOS>BOND
    1     1     2    1
    2     1     3    1
    3     1     4    2
    4     4     5    1
    5     4     6    1
    6     6     7    1
    7     6     8    1
    8     6     9    1
    9     9    10    1
   10     9    11    1
   11     9    12    1
   12    12    13    1
   13    12    14    1
   14    12    15    1
   15    15    16    1
   16    15    17    1
   17    15    18    1
   18    18    19    1
   19    18    20    2
@<TRIPOS>SUBSTRUCTURE
       1 MOL1            1 RESIDUE      1      MOL     
@<SCITEGIC>MOL_PROPERTY
VConf Rank
SciTegic.value.IntegerValue
510

@<SCITEGIC>MOL_PROPERTY
Conf_Id
SciTegic.value.IntegerValue
81

@<SCITEGIC>MOL_PROPERTY
Delta U+W
SciTegic.value.DoubleValue
-0.051

@<SCITEGIC>MOL_PROPERTY
U+W
SciTegic.value.DoubleValue
-51.796

@<SCITEGIC>MOL_PROPERTY
Grad RMS
SciTegic.value.DoubleValue
0.000000

@<SCITEGIC>MOL_PROPERTY
U
SciTegic.value.DoubleValue
9.412

@<SCITEGIC>MOL_PROPERTY
W
SciTegic.value.DoubleValue
-61.209

@<SCITEGIC>MOL_PROPERTY
W(PB)
SciTegic.value.DoubleValue
-63.452

@<SCITEGIC>MOL_PROPERTY
W(SA)
SciTegic.value.DoubleValue
2.243

@<SCITEGIC>MOL_PROPERTY
Valence
SciTegic.value.DoubleValue
9.329

@<SCITEGIC>MOL_PROPERTY
Coulomb
SciTegic.value.DoubleValue
-0.323

@<SCITEGIC>MOL_PROPERTY
VdW
SciTegic.value.DoubleValue
0.406

@<SCITEGIC>MOL_PROPERTY
VdW6
SciTegic.value.DoubleValue
-6.640

@<SCITEGIC>MOL_PROPERTY
VdW12
SciTegic.value.DoubleValue
7.046

@<SCITEGIC>MOL_PROPERTY
Bond
SciTegic.value.DoubleValue
0.105

@<SCITEGIC>MOL_PROPERTY
Angle
SciTegic.value.DoubleValue
2.401

@<SCITEGIC>MOL_PROPERTY
Pdih
SciTegic.value.DoubleValue
6.823

@<SCITEGIC>MOL_PROPERTY
Idih
SciTegic.value.DoubleValue
0.000

@<SCITEGIC>MOL_PROPERTY
Tether
SciTegic.value.DoubleValue
0.000

@<TRIPOS>MOLECULE
guest-s22_confgen4.mol2 : confsearch ligand conformer 511
          20          19           1
SMALL
USER_CHARGES
 
@<TRIPOS>ATOM
       1    C1      19.682179   22.200995   22.926592 C.2        1 MOL1        -0.2535
       2    H1      20.511303   22.679092   22.407520 H          1 MOL1         0.0845
       3    H2      18.931987   22.849024   23.376497 H          1 MOL1         0.0845
       4    C2      19.584046   20.871547   23.007936 C.2        1 MOL1        -0.1324
       5    H3      18.747343   20.413057   23.534187 H          1 MOL1         0.0833
       6    C3      20.589419   19.908871   22.412951 C.3        1 MOL1        -0.1813
       7    H4      20.825180   19.116487   23.135085 H          1 MOL1         0.0753
       8    H5      21.536179   20.432413   22.223836 H          1 MOL1         0.0753
       9    C4      20.097966   19.287665   21.083559 C.3        1 MOL1        -0.1855
      10    H6      19.951983   20.092272   20.349985 H          1 MOL1         0.0755
      11    H7      20.890660   18.645103   20.676467 H          1 MOL1         0.0755
      12    C5      18.785096   18.470485   21.196160 C.3        1 MOL1        -0.1855
      13    H8      18.514387   18.100380   20.197701 H          1 MOL1         0.0755
      14    H9      17.966413   19.133301   21.506208 H          1 MOL1         0.0755
      15    C6      18.860841   17.263541   22.170706 C.3        1 MOL1        -0.1958
      16    H10     19.055175   17.604858   23.193828 H          1 MOL1         0.0753
      17    H11     17.890772   16.753562   22.192938 H          1 MOL1         0.0753
      18    C7      19.912353   16.223864   21.793961 C.2        1 MOL1         0.6174
      19    O1      20.910961   16.138761   22.481438 O.co2      1 MOL1        -0.6695
      20    O2      19.695985   15.513762   20.831464 O.co2      1 MOL1        -0.6695
@<TRIPOS>BOND
    1     1     2    1
    2     1     3    1
    3     1     4    2
    4     4     5    1
    5     4     6    1
    6     6     7    1
    7     6     8    1
    8     6     9    1
    9     9    10    1
   10     9    11    1
   11     9    12    1
   12    12    13    1
   13    12    14    1
   14    12    15    1
   15    15    16    1
   16    15    17    1
   17    15    18    1
   18    18    19    1
   19    18    20    2
@<TRIPOS>SUBSTRUCTURE
       1 MOL1            1 RESIDUE      1      MOL     
@<SCITEGIC>MOL_PROPERTY
VConf Rank
SciTegic.value.IntegerValue
511

@<SCITEGIC>MOL_PROPERTY
Conf_Id
SciTegic.value.IntegerValue
86

@<SCITEGIC>MOL_PROPERTY
Delta U+W
SciTegic.value.DoubleValue
1.248

@<SCITEGIC>MOL_PROPERTY
U+W
SciTegic.value.DoubleValue
-50.498

@<SCITEGIC>MOL_PROPERTY
Grad RMS
SciTegic.value.DoubleValue
0.000000

@<SCITEGIC>MOL_PROPERTY
U
SciTegic.value.DoubleValue
10.404

@<SCITEGIC>MOL_PROPERTY
W
SciTegic.value.DoubleValue
-60.901

@<SCITEGIC>MOL_PROPERTY
W(PB)
SciTegic.value.DoubleValue
-63.061

@<SCITEGIC>MOL_PROPERTY
W(SA)
SciTegic.value.DoubleValue
2.159

@<SCITEGIC>MOL_PROPERTY
Valence
SciTegic.value.DoubleValue
10.021

@<SCITEGIC>MOL_PROPERTY
Coulomb
SciTegic.value.DoubleValue
0.094

@<SCITEGIC>MOL_PROPERTY
VdW
SciTegic.value.DoubleValue
0.289

@<SCITEGIC>MOL_PROPERTY
VdW6
SciTegic.value.DoubleValue
-8.409

@<SCITEGIC>MOL_PROPERTY
VdW12
SciTegic.value.DoubleValue
8.698

@<SCITEGIC>MOL_PROPERTY
Bond
SciTegic.value.DoubleValue
0.179

@<SCITEGIC>MOL_PROPERTY
Angle
SciTegic.value.DoubleValue
2.939

@<SCITEGIC>MOL_PROPERTY
Pdih
SciTegic.value.DoubleValue
6.902

@<SCITEGIC>MOL_PROPERTY
Idih
SciTegic.value.DoubleValue
0.001

@<SCITEGIC>MOL_PROPERTY
Tether
SciTegic.value.DoubleValue
0.000

@<TRIPOS>MOLECULE
guest-s22_confgen4.mol2 : confsearch ligand conformer 512
          20          19           1
SMALL
USER_CHARGES
 
@<TRIPOS>ATOM
       1    C1      22.550764   20.466202   21.489255 C.2        1 MOL1        -0.2535
       2    H1      22.923800   21.455493   21.229924 H          1 MOL1         0.0845
       3    H2      22.920165   20.016545   22.409458 H          1 MOL1         0.0845
       4    C2      21.671336   19.833436   20.708077 C.2        1 MOL1        -0.1324
       5    H3      21.312389   20.302070   19.792146 H          1 MOL1         0.0833
       6    C3      21.108210   18.459330   21.002651 C.3        1 MOL1        -0.1813
       7    H4      21.664509   17.980139   21.819700 H          1 MOL1         0.0753
       8    H5      21.242644   17.820058   20.119996 H          1 MOL1         0.0753
       9    C4      19.605437   18.505480   21.359866 C.3        1 MOL1        -0.1855
      10    H6      19.048823   18.988133   20.544912 H          1 MOL1         0.0755
      11    H7      19.227989   17.476075   21.429647 H          1 MOL1         0.0755
      12    C5      19.330767   19.244047   22.691284 C.3        1 MOL1        -0.1855
      13    H8      19.701456   20.275382   22.620534 H          1 MOL1         0.0755
      14    H9      19.890633   18.763355   23.505433 H          1 MOL1         0.0755
      15    C6      17.823388   19.279135   23.054062 C.3        1 MOL1        -0.1958
      16    H10     17.673413   19.914970   23.934495 H          1 MOL1         0.0753
      17    H11     17.247393   19.728372   22.236020 H          1 MOL1         0.0753
      18    C7      17.229922   17.910049   23.373634 C.2        1 MOL1         0.6174
      19    O1      17.480167   17.415961   24.455476 O.co2      1 MOL1        -0.6695
      20    O2      16.524503   17.378925   22.538542 O.co2      1 MOL1        -0.6695
@<TRIPOS>BOND
    1     1     2    1
    2     1     3    1
    3     1     4    2
    4     4     5    1
    5     4     6    1
    6     6     7    1
    7     6     8    1
    8     6     9    1
    9     9    10    1
   10     9    11    1
   11     9    12    1
   12    12    13    1
   13    12    14    1
   14    12    15    1
   15    15    16    1
   16    15    17    1
   17    15    18    1
   18    18    19    1
   19    18    20    2
@<TRIPOS>SUBSTRUCTURE
       1 MOL1            1 RESIDUE      1      MOL     
@<SCITEGIC>MOL_PROPERTY
VConf Rank
SciTegic.value.IntegerValue
512

@<SCITEGIC>MOL_PROPERTY
Conf_Id
SciTegic.value.IntegerValue
28

@<SCITEGIC>MOL_PROPERTY
Delta U+W
SciTegic.value.DoubleValue
0.446

@<SCITEGIC>MOL_PROPERTY
U+W
SciTegic.value.DoubleValue
-51.299

@<SCITEGIC>MOL_PROPERTY
Grad RMS
SciTegic.value.DoubleValue
0.000000

@<SCITEGIC>MOL_PROPERTY
U
SciTegic.value.DoubleValue
9.295

@<SCITEGIC>MOL_PROPERTY
W
SciTegic.value.DoubleValue
-60.594

@<SCITEGIC>MOL_PROPERTY
W(PB)
SciTegic.value.DoubleValue
-62.806

@<SCITEGIC>MOL_PROPERTY
W(SA)
SciTegic.value.DoubleValue
2.212

@<SCITEGIC>MOL_PROPERTY
Valence
SciTegic.value.DoubleValue
9.495

@<SCITEGIC>MOL_PROPERTY
Coulomb
SciTegic.value.DoubleValue
-0.610

@<SCITEGIC>MOL_PROPERTY
VdW
SciTegic.value.DoubleValue
0.409

@<SCITEGIC>MOL_PROPERTY
VdW6
SciTegic.value.DoubleValue
-7.332

@<SCITEGIC>MOL_PROPERTY
VdW12
SciTegic.value.DoubleValue
7.741

@<SCITEGIC>MOL_PROPERTY
Bond
SciTegic.value.DoubleValue
0.126

@<SCITEGIC>MOL_PROPERTY
Angle
SciTegic.value.DoubleValue
2.497

@<SCITEGIC>MOL_PROPERTY
Pdih
SciTegic.value.DoubleValue
6.872

@<SCITEGIC>MOL_PROPERTY
Idih
SciTegic.value.DoubleValue
0.000

@<SCITEGIC>MOL_PROPERTY
Tether
SciTegic.value.DoubleValue
0.000

@<TRIPOS>MOLECULE
guest-s22_confgen4.mol2 : confsearch ligand conformer 513
          20          19           1
SMALL
USER_CHARGES
 
@<TRIPOS>ATOM
       1    C1      19.541989   20.622588   24.962248 C.2        1 MOL1        -0.2535
       2    H1      19.881710   19.602207   25.126287 H          1 MOL1         0.0845
       3    H2      19.529316   21.281450   25.828781 H          1 MOL1         0.0845
       4    C2      19.157723   21.067044   23.760260 C.2        1 MOL1        -0.1324
       5    H3      18.829427   22.101113   23.657974 H          1 MOL1         0.0833
       6    C3      19.119302   20.271027   22.466299 C.3        1 MOL1        -0.1813
       7    H4      19.805319   20.741279   21.750126 H          1 MOL1         0.0753
       8    H5      18.117359   20.363775   22.026683 H          1 MOL1         0.0753
       9    C4      19.467840   18.769133   22.612710 C.3        1 MOL1        -0.1855
      10    H6      20.501925   18.663180   22.968542 H          1 MOL1         0.0755
      11    H7      18.822914   18.325739   23.383531 H          1 MOL1         0.0755
      12    C5      19.282569   17.961762   21.303937 C.3        1 MOL1        -0.1855
      13    H8      18.234984   18.031053   20.981209 H          1 MOL1         0.0755
      14    H9      19.469125   16.899678   21.515083 H          1 MOL1         0.0755
      15    C6      20.205449   18.406203   20.136281 C.3        1 MOL1        -0.1958
      16    H10     19.996514   17.789509   19.254412 H          1 MOL1         0.0753
      17    H11     19.993213   19.441690   19.847110 H          1 MOL1         0.0753
      18    C7      21.696338   18.277617   20.435651 C.2        1 MOL1         0.6174
      19    O1      22.171799   17.161249   20.507125 O.co2      1 MOL1        -0.6695
      20    O2      22.346888   19.295449   20.568539 O.co2      1 MOL1        -0.6695
@<TRIPOS>BOND
    1     1     2    1
    2     1     3    1
    3     1     4    2
    4     4     5    1
    5     4     6    1
    6     6     7    1
    7     6     8    1
    8     6     9    1
    9     9    10    1
   10     9    11    1
   11     9    12    1
   12    12    13    1
   13    12    14    1
   14    12    15    1
   15    15    16    1
   16    15    17    1
   17    15    18    1
   18    18    19    1
   19    18    20    2
@<TRIPOS>SUBSTRUCTURE
       1 MOL1            1 RESIDUE      1      MOL     
@<SCITEGIC>MOL_PROPERTY
VConf Rank
SciTegic.value.IntegerValue
513

@<SCITEGIC>MOL_PROPERTY
Conf_Id
SciTegic.value.IntegerValue
53

@<SCITEGIC>MOL_PROPERTY
Delta U+W
SciTegic.value.DoubleValue
0.549

@<SCITEGIC>MOL_PROPERTY
U+W
SciTegic.value.DoubleValue
-51.197

@<SCITEGIC>MOL_PROPERTY
Grad RMS
SciTegic.value.DoubleValue
0.000000

@<SCITEGIC>MOL_PROPERTY
U
SciTegic.value.DoubleValue
10.870

@<SCITEGIC>MOL_PROPERTY
W
SciTegic.value.DoubleValue
-62.067

@<SCITEGIC>MOL_PROPERTY
W(PB)
SciTegic.value.DoubleValue
-64.228

@<SCITEGIC>MOL_PROPERTY
W(SA)
SciTegic.value.DoubleValue
2.161

@<SCITEGIC>MOL_PROPERTY
Valence
SciTegic.value.DoubleValue
8.803

@<SCITEGIC>MOL_PROPERTY
Coulomb
SciTegic.value.DoubleValue
1.020

@<SCITEGIC>MOL_PROPERTY
VdW
SciTegic.value.DoubleValue
1.048

@<SCITEGIC>MOL_PROPERTY
VdW6
SciTegic.value.DoubleValue
-8.312

@<SCITEGIC>MOL_PROPERTY
VdW12
SciTegic.value.DoubleValue
9.360

@<SCITEGIC>MOL_PROPERTY
Bond
SciTegic.value.DoubleValue
0.212

@<SCITEGIC>MOL_PROPERTY
Angle
SciTegic.value.DoubleValue
3.379

@<SCITEGIC>MOL_PROPERTY
Pdih
SciTegic.value.DoubleValue
5.211

@<SCITEGIC>MOL_PROPERTY
Idih
SciTegic.value.DoubleValue
0.001

@<SCITEGIC>MOL_PROPERTY
Tether
SciTegic.value.DoubleValue
0.000

@<TRIPOS>MOLECULE
guest-s22_confgen4.mol2 : confsearch ligand conformer 514
          20          19           1
SMALL
USER_CHARGES
 
@<TRIPOS>ATOM
       1    C1      17.927122   19.885732   23.988336 C.2        1 MOL1        -0.2535
       2    H1      17.359058   19.027191   23.636897 H          1 MOL1         0.0845
       3    H2      17.358605   20.730537   24.373064 H          1 MOL1         0.0845
       4    C2      19.263948   19.914406   23.961333 C.2        1 MOL1        -0.1324
       5    H3      19.784602   20.798426   24.328391 H          1 MOL1         0.0833
       6    C3      20.179538   18.814922   23.448773 C.3        1 MOL1        -0.1813
       7    H4      20.546406   18.234660   24.305573 H          1 MOL1         0.0753
       8    H5      21.078560   19.271862   23.015708 H          1 MOL1         0.0753
       9    C4      19.559310   17.848247   22.406358 C.3        1 MOL1        -0.1855
      10    H6      20.293952   17.064586   22.176108 H          1 MOL1         0.0755
      11    H7      18.703853   17.327001   22.855600 H          1 MOL1         0.0755
      12    C5      19.111968   18.520679   21.081753 C.3        1 MOL1        -0.1855
      13    H8      18.323941   19.256059   21.288597 H          1 MOL1         0.0755
      14    H9      18.654544   17.757574   20.437197 H          1 MOL1         0.0755
      15    C6      20.255638   19.216050   20.293847 C.3        1 MOL1        -0.1958
      16    H10     19.846503   19.663953   19.380853 H          1 MOL1         0.0753
      17    H11     20.681326   20.039548   20.878348 H          1 MOL1         0.0753
      18    C7      21.383993   18.278631   19.873743 C.2        1 MOL1         0.6174
      19    O1      22.455144   18.375927   20.439717 O.co2      1 MOL1        -0.6695
      20    O2      21.166554   17.486798   18.977513 O.co2      1 MOL1        -0.6695
@<TRIPOS>BOND
    1     1     2    1
    2     1     3    1
    3     1     4    2
    4     4     5    1
    5     4     6    1
    6     6     7    1
    7     6     8    1
    8     6     9    1
    9     9    10    1
   10     9    11    1
   11     9    12    1
   12    12    13    1
   13    12    14    1
   14    12    15    1
   15    15    16    1
   16    15    17    1
   17    15    18    1
   18    18    19    1
   19    18    20    2
@<TRIPOS>SUBSTRUCTURE
       1 MOL1            1 RESIDUE      1      MOL     
@<SCITEGIC>MOL_PROPERTY
VConf Rank
SciTegic.value.IntegerValue
514

@<SCITEGIC>MOL_PROPERTY
Conf_Id
SciTegic.value.IntegerValue
66

@<SCITEGIC>MOL_PROPERTY
Delta U+W
SciTegic.value.DoubleValue
1.737

@<SCITEGIC>MOL_PROPERTY
U+W
SciTegic.value.DoubleValue
-50.008

@<SCITEGIC>MOL_PROPERTY
Grad RMS
SciTegic.value.DoubleValue
0.000000

@<SCITEGIC>MOL_PROPERTY
U
SciTegic.value.DoubleValue
11.091

@<SCITEGIC>MOL_PROPERTY
W
SciTegic.value.DoubleValue
-61.099

@<SCITEGIC>MOL_PROPERTY
W(PB)
SciTegic.value.DoubleValue
-63.213

@<SCITEGIC>MOL_PROPERTY
W(SA)
SciTegic.value.DoubleValue
2.114

@<SCITEGIC>MOL_PROPERTY
Valence
SciTegic.value.DoubleValue
9.664

@<SCITEGIC>MOL_PROPERTY
Coulomb
SciTegic.value.DoubleValue
0.658

@<SCITEGIC>MOL_PROPERTY
VdW
SciTegic.value.DoubleValue
0.769

@<SCITEGIC>MOL_PROPERTY
VdW6
SciTegic.value.DoubleValue
-9.171

@<SCITEGIC>MOL_PROPERTY
VdW12
SciTegic.value.DoubleValue
9.940

@<SCITEGIC>MOL_PROPERTY
Bond
SciTegic.value.DoubleValue
0.244

@<SCITEGIC>MOL_PROPERTY
Angle
SciTegic.value.DoubleValue
3.658

@<SCITEGIC>MOL_PROPERTY
Pdih
SciTegic.value.DoubleValue
5.762

@<SCITEGIC>MOL_PROPERTY
Idih
SciTegic.value.DoubleValue
0.001

@<SCITEGIC>MOL_PROPERTY
Tether
SciTegic.value.DoubleValue
0.000

@<TRIPOS>MOLECULE
guest-s22_confgen4.mol2 : confsearch ligand conformer 515
          20          19           1
SMALL
USER_CHARGES
 
@<TRIPOS>ATOM
       1    C1      16.926854   18.435670   22.002110 C.2        1 MOL1        -0.2535
       2    H1      17.160761   18.353396   20.943005 H          1 MOL1         0.0845
       3    H2      16.187410   17.742723   22.399580 H          1 MOL1         0.0845
       4    C2      17.508003   19.344915   22.792312 C.2        1 MOL1        -0.1324
       5    H3      17.234353   19.384880   23.846285 H          1 MOL1         0.0833
       6    C3      18.554965   20.366207   22.378268 C.3        1 MOL1        -0.1813
       7    H4      19.248841   20.522082   23.213665 H          1 MOL1         0.0753
       8    H5      18.061176   21.336986   22.239189 H          1 MOL1         0.0753
       9    C4      19.370181   20.023411   21.103814 C.3        1 MOL1        -0.1855
      10    H6      18.687051   19.922925   20.250158 H          1 MOL1         0.0755
      11    H7      20.021218   20.874810   20.863192 H          1 MOL1         0.0755
      12    C5      20.243123   18.747513   21.216766 C.3        1 MOL1        -0.1855
      13    H8      20.705799   18.552727   20.239439 H          1 MOL1         0.0755
      14    H9      19.614006   17.875199   21.437851 H          1 MOL1         0.0755
      15    C6      21.363255   18.855356   22.283814 C.3        1 MOL1        -0.1958
      16    H10     21.970777   19.750750   22.106791 H          1 MOL1         0.0753
      17    H11     20.931451   18.946348   23.286863 H          1 MOL1         0.0753
      18    C7      22.293216   17.647295   22.286577 C.2        1 MOL1         0.6174
      19    O1      22.024690   16.716452   23.020183 O.co2      1 MOL1        -0.6695
      20    O2      23.254967   17.662734   21.543793 O.co2      1 MOL1        -0.6695
@<TRIPOS>BOND
    1     1     2    1
    2     1     3    1
    3     1     4    2
    4     4     5    1
    5     4     6    1
    6     6     7    1
    7     6     8    1
    8     6     9    1
    9     9    10    1
   10     9    11    1
   11     9    12    1
   12    12    13    1
   13    12    14    1
   14    12    15    1
   15    15    16    1
   16    15    17    1
   17    15    18    1
   18    18    19    1
   19    18    20    2
@<TRIPOS>SUBSTRUCTURE
       1 MOL1            1 RESIDUE      1      MOL     
@<SCITEGIC>MOL_PROPERTY
VConf Rank
SciTegic.value.IntegerValue
515

@<SCITEGIC>MOL_PROPERTY
Conf_Id
SciTegic.value.IntegerValue
64

@<SCITEGIC>MOL_PROPERTY
Delta U+W
SciTegic.value.DoubleValue
0.366

@<SCITEGIC>MOL_PROPERTY
U+W
SciTegic.value.DoubleValue
-51.379

@<SCITEGIC>MOL_PROPERTY
Grad RMS
SciTegic.value.DoubleValue
0.000000

@<SCITEGIC>MOL_PROPERTY
U
SciTegic.value.DoubleValue
10.000

@<SCITEGIC>MOL_PROPERTY
W
SciTegic.value.DoubleValue
-61.379

@<SCITEGIC>MOL_PROPERTY
W(PB)
SciTegic.value.DoubleValue
-63.541

@<SCITEGIC>MOL_PROPERTY
W(SA)
SciTegic.value.DoubleValue
2.162

@<SCITEGIC>MOL_PROPERTY
Valence
SciTegic.value.DoubleValue
9.398

@<SCITEGIC>MOL_PROPERTY
Coulomb
SciTegic.value.DoubleValue
-0.504

@<SCITEGIC>MOL_PROPERTY
VdW
SciTegic.value.DoubleValue
1.105

@<SCITEGIC>MOL_PROPERTY
VdW6
SciTegic.value.DoubleValue
-7.975

@<SCITEGIC>MOL_PROPERTY
VdW12
SciTegic.value.DoubleValue
9.080

@<SCITEGIC>MOL_PROPERTY
Bond
SciTegic.value.DoubleValue
0.216

@<SCITEGIC>MOL_PROPERTY
Angle
SciTegic.value.DoubleValue
3.417

@<SCITEGIC>MOL_PROPERTY
Pdih
SciTegic.value.DoubleValue
5.765

@<SCITEGIC>MOL_PROPERTY
Idih
SciTegic.value.DoubleValue
0.001

@<SCITEGIC>MOL_PROPERTY
Tether
SciTegic.value.DoubleValue
0.000

@<TRIPOS>MOLECULE
guest-s22_confgen4.mol2 : confsearch ligand conformer 516
          20          19           1
SMALL
USER_CHARGES
 
@<TRIPOS>ATOM
       1    C1      19.491263   22.049490   21.867653 C.2        1 MOL1        -0.2535
       2    H1      19.742648   22.095942   22.925984 H          1 MOL1         0.0845
       3    H2      18.676902   22.681548   21.517763 H          1 MOL1         0.0845
       4    C2      20.151238   21.246541   21.028774 C.2        1 MOL1        -0.1324
       5    H3      19.882189   21.213146   19.973364 H          1 MOL1         0.0833
       6    C3      21.291730   20.340293   21.441051 C.3        1 MOL1        -0.1813
       7    H4      21.629308   20.581880   22.458082 H          1 MOL1         0.0753
       8    H5      22.149556   20.519584   20.779361 H          1 MOL1         0.0753
       9    C4      20.908389   18.845169   21.366246 C.3        1 MOL1        -0.1855
      10    H6      20.570127   18.603811   20.349187 H          1 MOL1         0.0755
      11    H7      21.805862   18.239242   21.551389 H          1 MOL1         0.0755
      12    C5      19.814529   18.458147   22.387650 C.3        1 MOL1        -0.1855
      13    H8      18.901600   19.038736   22.196066 H          1 MOL1         0.0755
      14    H9      20.147878   18.716054   23.402367 H          1 MOL1         0.0755
      15    C6      19.478050   16.947798   22.327251 C.3        1 MOL1        -0.1958
      16    H10     19.131459   16.677371   21.322596 H          1 MOL1         0.0753
      17    H11     20.374885   16.351191   22.532762 H          1 MOL1         0.0753
      18    C7      18.400476   16.541130   23.326025 C.2        1 MOL1         0.6174
      19    O1      18.747879   16.219996   24.445370 O.co2      1 MOL1        -0.6695
      20    O2      17.241158   16.569544   22.962893 O.co2      1 MOL1        -0.6695
@<TRIPOS>BOND
    1     1     2    1
    2     1     3    1
    3     1     4    2
    4     4     5    1
    5     4     6    1
    6     6     7    1
    7     6     8    1
    8     6     9    1
    9     9    10    1
   10     9    11    1
   11     9    12    1
   12    12    13    1
   13    12    14    1
   14    12    15    1
   15    15    16    1
   16    15    17    1
   17    15    18    1
   18    18    19    1
   19    18    20    2
@<TRIPOS>SUBSTRUCTURE
       1 MOL1            1 RESIDUE      1      MOL     
@<SCITEGIC>MOL_PROPERTY
VConf Rank
SciTegic.value.IntegerValue
516

@<SCITEGIC>MOL_PROPERTY
Conf_Id
SciTegic.value.IntegerValue
42

@<SCITEGIC>MOL_PROPERTY
Delta U+W
SciTegic.value.DoubleValue
-0.601

@<SCITEGIC>MOL_PROPERTY
U+W
SciTegic.value.DoubleValue
-52.347

@<SCITEGIC>MOL_PROPERTY
Grad RMS
SciTegic.value.DoubleValue
0.000000

@<SCITEGIC>MOL_PROPERTY
U
SciTegic.value.DoubleValue
8.428

@<SCITEGIC>MOL_PROPERTY
W
SciTegic.value.DoubleValue
-60.774

@<SCITEGIC>MOL_PROPERTY
W(PB)
SciTegic.value.DoubleValue
-62.982

@<SCITEGIC>MOL_PROPERTY
W(SA)
SciTegic.value.DoubleValue
2.208

@<SCITEGIC>MOL_PROPERTY
Valence
SciTegic.value.DoubleValue
9.231

@<SCITEGIC>MOL_PROPERTY
Coulomb
SciTegic.value.DoubleValue
-1.304

@<SCITEGIC>MOL_PROPERTY
VdW
SciTegic.value.DoubleValue
0.501

@<SCITEGIC>MOL_PROPERTY
VdW6
SciTegic.value.DoubleValue
-6.515

@<SCITEGIC>MOL_PROPERTY
VdW12
SciTegic.value.DoubleValue
7.016

@<SCITEGIC>MOL_PROPERTY
Bond
SciTegic.value.DoubleValue
0.103

@<SCITEGIC>MOL_PROPERTY
Angle
SciTegic.value.DoubleValue
2.328

@<SCITEGIC>MOL_PROPERTY
Pdih
SciTegic.value.DoubleValue
6.799

@<SCITEGIC>MOL_PROPERTY
Idih
SciTegic.value.DoubleValue
0.000

@<SCITEGIC>MOL_PROPERTY
Tether
SciTegic.value.DoubleValue
0.000

@<TRIPOS>MOLECULE
guest-s22_confgen4.mol2 : confsearch ligand conformer 517
          20          19           1
SMALL
USER_CHARGES
 
@<TRIPOS>ATOM
       1    C1      17.257965   17.827159   23.196591 C.2        1 MOL1        -0.2535
       2    H1      17.846865   17.108708   23.764412 H          1 MOL1         0.0845
       3    H2      16.337221   17.469985   22.738604 H          1 MOL1         0.0845
       4    C2      17.648574   19.097266   23.061399 C.2        1 MOL1        -0.1324
       5    H3      17.045968   19.799835   22.486361 H          1 MOL1         0.0833
       6    C3      18.914527   19.665617   23.666580 C.3        1 MOL1        -0.1813
       7    H4      19.353618   18.956584   24.381479 H          1 MOL1         0.0753
       8    H5      18.664466   20.568342   24.239614 H          1 MOL1         0.0753
       9    C4      19.963361   20.032115   22.592528 C.3        1 MOL1        -0.1855
      10    H6      19.524245   20.746522   21.882502 H          1 MOL1         0.0755
      11    H7      20.802895   20.548828   23.077226 H          1 MOL1         0.0755
      12    C5      20.497875   18.794540   21.833600 C.3        1 MOL1        -0.1855
      13    H8      19.674016   18.291217   21.308932 H          1 MOL1         0.0755
      14    H9      20.898772   18.071910   22.557007 H          1 MOL1         0.0755
      15    C6      21.608091   19.155157   20.812719 C.3        1 MOL1        -0.1958
      16    H10     22.429422   19.680211   21.315174 H          1 MOL1         0.0753
      17    H11     22.030264   18.235547   20.390726 H          1 MOL1         0.0753
      18    C7      21.123203   20.012499   19.647103 C.2        1 MOL1         0.6174
      19    O1      21.385121   21.199285   19.657191 O.co2      1 MOL1        -0.6695
      20    O2      20.511496   19.466224   18.750167 O.co2      1 MOL1        -0.6695
@<TRIPOS>BOND
    1     1     2    1
    2     1     3    1
    3     1     4    2
    4     4     5    1
    5     4     6    1
    6     6     7    1
    7     6     8    1
    8     6     9    1
    9     9    10    1
   10     9    11    1
   11     9    12    1
   12    12    13    1
   13    12    14    1
   14    12    15    1
   15    15    16    1
   16    15    17    1
   17    15    18    1
   18    18    19    1
   19    18    20    2
@<TRIPOS>SUBSTRUCTURE
       1 MOL1            1 RESIDUE      1      MOL     
@<SCITEGIC>MOL_PROPERTY
VConf Rank
SciTegic.value.IntegerValue
517

@<SCITEGIC>MOL_PROPERTY
Conf_Id
SciTegic.value.IntegerValue
68

@<SCITEGIC>MOL_PROPERTY
Delta U+W
SciTegic.value.DoubleValue
0.492

@<SCITEGIC>MOL_PROPERTY
U+W
SciTegic.value.DoubleValue
-51.253

@<SCITEGIC>MOL_PROPERTY
Grad RMS
SciTegic.value.DoubleValue
0.000000

@<SCITEGIC>MOL_PROPERTY
U
SciTegic.value.DoubleValue
10.179

@<SCITEGIC>MOL_PROPERTY
W
SciTegic.value.DoubleValue
-61.432

@<SCITEGIC>MOL_PROPERTY
W(PB)
SciTegic.value.DoubleValue
-63.627

@<SCITEGIC>MOL_PROPERTY
W(SA)
SciTegic.value.DoubleValue
2.195

@<SCITEGIC>MOL_PROPERTY
Valence
SciTegic.value.DoubleValue
9.483

@<SCITEGIC>MOL_PROPERTY
Coulomb
SciTegic.value.DoubleValue
0.361

@<SCITEGIC>MOL_PROPERTY
VdW
SciTegic.value.DoubleValue
0.335

@<SCITEGIC>MOL_PROPERTY
VdW6
SciTegic.value.DoubleValue
-7.385

@<SCITEGIC>MOL_PROPERTY
VdW12
SciTegic.value.DoubleValue
7.720

@<SCITEGIC>MOL_PROPERTY
Bond
SciTegic.value.DoubleValue
0.125

@<SCITEGIC>MOL_PROPERTY
Angle
SciTegic.value.DoubleValue
2.487

@<SCITEGIC>MOL_PROPERTY
Pdih
SciTegic.value.DoubleValue
6.870

@<SCITEGIC>MOL_PROPERTY
Idih
SciTegic.value.DoubleValue
0.001

@<SCITEGIC>MOL_PROPERTY
Tether
SciTegic.value.DoubleValue
0.000

@<TRIPOS>MOLECULE
guest-s22_confgen4.mol2 : confsearch ligand conformer 518
          20          19           1
SMALL
USER_CHARGES
 
@<TRIPOS>ATOM
       1    C1      17.100443   17.351466   22.338545 C.2        1 MOL1        -0.2535
       2    H1      16.291690   18.062187   22.500670 H          1 MOL1         0.0845
       3    H2      17.007725   16.371945   22.804505 H          1 MOL1         0.0845
       4    C2      18.168039   17.666308   21.600433 C.2        1 MOL1        -0.1324
       5    H3      18.964946   16.938874   21.448693 H          1 MOL1         0.0833
       6    C3      18.362385   19.003809   20.918451 C.3        1 MOL1        -0.1813
       7    H4      17.396486   19.519735   20.832557 H          1 MOL1         0.0753
       8    H5      18.721751   18.851579   19.891962 H          1 MOL1         0.0753
       9    C4      19.345049   19.917467   21.685121 C.3        1 MOL1        -0.1855
      10    H6      19.343198   20.911312   21.217133 H          1 MOL1         0.0755
      11    H7      18.985058   20.055668   22.714153 H          1 MOL1         0.0755
      12    C5      20.790752   19.366628   21.700967 C.3        1 MOL1        -0.1855
      13    H8      21.121172   19.186201   20.669183 H          1 MOL1         0.0755
      14    H9      20.818507   18.397090   22.216758 H          1 MOL1         0.0755
      15    C6      21.788835   20.335258   22.386854 C.3        1 MOL1        -0.1958
      16    H10     22.809776   19.953636   22.268315 H          1 MOL1         0.0753
      17    H11     21.758848   21.317874   21.900716 H          1 MOL1         0.0753
      18    C7      21.542013   20.523671   23.880981 C.2        1 MOL1         0.6174
      19    O1      21.907136   19.644603   24.636646 O.co2      1 MOL1        -0.6695
      20    O2      21.009665   21.551479   24.251576 O.co2      1 MOL1        -0.6695
@<TRIPOS>BOND
    1     1     2    1
    2     1     3    1
    3     1     4    2
    4     4     5    1
    5     4     6    1
    6     6     7    1
    7     6     8    1
    8     6     9    1
    9     9    10    1
   10     9    11    1
   11     9    12    1
   12    12    13    1
   13    12    14    1
   14    12    15    1
   15    15    16    1
   16    15    17    1
   17    15    18    1
   18    18    19    1
   19    18    20    2
@<TRIPOS>SUBSTRUCTURE
       1 MOL1            1 RESIDUE      1      MOL     
@<SCITEGIC>MOL_PROPERTY
VConf Rank
SciTegic.value.IntegerValue
518

@<SCITEGIC>MOL_PROPERTY
Conf_Id
SciTegic.value.IntegerValue
87

@<SCITEGIC>MOL_PROPERTY
Delta U+W
SciTegic.value.DoubleValue
0.339

@<SCITEGIC>MOL_PROPERTY
U+W
SciTegic.value.DoubleValue
-51.407

@<SCITEGIC>MOL_PROPERTY
Grad RMS
SciTegic.value.DoubleValue
0.000000

@<SCITEGIC>MOL_PROPERTY
U
SciTegic.value.DoubleValue
10.461

@<SCITEGIC>MOL_PROPERTY
W
SciTegic.value.DoubleValue
-61.867

@<SCITEGIC>MOL_PROPERTY
W(PB)
SciTegic.value.DoubleValue
-64.045

@<SCITEGIC>MOL_PROPERTY
W(SA)
SciTegic.value.DoubleValue
2.178

@<SCITEGIC>MOL_PROPERTY
Valence
SciTegic.value.DoubleValue
9.555

@<SCITEGIC>MOL_PROPERTY
Coulomb
SciTegic.value.DoubleValue
0.483

@<SCITEGIC>MOL_PROPERTY
VdW
SciTegic.value.DoubleValue
0.423

@<SCITEGIC>MOL_PROPERTY
VdW6
SciTegic.value.DoubleValue
-7.223

@<SCITEGIC>MOL_PROPERTY
VdW12
SciTegic.value.DoubleValue
7.646

@<SCITEGIC>MOL_PROPERTY
Bond
SciTegic.value.DoubleValue
0.126

@<SCITEGIC>MOL_PROPERTY
Angle
SciTegic.value.DoubleValue
2.492

@<SCITEGIC>MOL_PROPERTY
Pdih
SciTegic.value.DoubleValue
6.936

@<SCITEGIC>MOL_PROPERTY
Idih
SciTegic.value.DoubleValue
0.001

@<SCITEGIC>MOL_PROPERTY
Tether
SciTegic.value.DoubleValue
0.000

@<TRIPOS>MOLECULE
guest-s22_confgen4.mol2 : confsearch ligand conformer 519
          20          19           1
SMALL
USER_CHARGES
 
@<TRIPOS>ATOM
       1    C1      17.053493   18.917924   23.235934 C.2        1 MOL1        -0.2535
       2    H1      16.410178   18.425857   22.508313 H          1 MOL1         0.0845
       3    H2      16.858425   18.726158   24.289591 H          1 MOL1         0.0845
       4    C2      18.046417   19.724702   22.852627 C.2        1 MOL1        -0.1324
       5    H3      18.673770   20.215199   23.596018 H          1 MOL1         0.0833
       6    C3      18.365779   20.045581   21.408102 C.3        1 MOL1        -0.1813
       7    H4      18.962746   20.965182   21.345667 H          1 MOL1         0.0753
       8    H5      17.425486   20.264865   20.884489 H          1 MOL1         0.0753
       9    C4      19.085623   18.894533   20.662395 C.3        1 MOL1        -0.1855
      10    H6      18.590265   17.938334   20.879741 H          1 MOL1         0.0755
      11    H7      18.959199   19.060687   19.583904 H          1 MOL1         0.0755
      12    C5      20.605010   18.783249   20.945556 C.3        1 MOL1        -0.1855
      13    H8      21.094675   19.745114   20.740414 H          1 MOL1         0.0755
      14    H9      21.035447   18.062094   20.236932 H          1 MOL1         0.0755
      15    C6      20.952838   18.320701   22.383724 C.3        1 MOL1        -0.1958
      16    H10     20.671513   19.086890   23.113032 H          1 MOL1         0.0753
      17    H11     20.396561   17.409688   22.634593 H          1 MOL1         0.0753
      18    C7      22.438795   18.035279   22.568373 C.2        1 MOL1         0.6174
      19    O1      23.163069   18.953391   22.899109 O.co2      1 MOL1        -0.6695
      20    O2      22.837067   16.906882   22.356282 O.co2      1 MOL1        -0.6695
@<TRIPOS>BOND
    1     1     2    1
    2     1     3    1
    3     1     4    2
    4     4     5    1
    5     4     6    1
    6     6     7    1
    7     6     8    1
    8     6     9    1
    9     9    10    1
   10     9    11    1
   11     9    12    1
   12    12    13    1
   13    12    14    1
   14    12    15    1
   15    15    16    1
   16    15    17    1
   17    15    18    1
   18    18    19    1
   19    18    20    2
@<TRIPOS>SUBSTRUCTURE
       1 MOL1            1 RESIDUE      1      MOL     
@<SCITEGIC>MOL_PROPERTY
VConf Rank
SciTegic.value.IntegerValue
519

@<SCITEGIC>MOL_PROPERTY
Conf_Id
SciTegic.value.IntegerValue
51

@<SCITEGIC>MOL_PROPERTY
Delta U+W
SciTegic.value.DoubleValue
1.709

@<SCITEGIC>MOL_PROPERTY
U+W
SciTegic.value.DoubleValue
-50.036

@<SCITEGIC>MOL_PROPERTY
Grad RMS
SciTegic.value.DoubleValue
0.000000

@<SCITEGIC>MOL_PROPERTY
U
SciTegic.value.DoubleValue
10.643

@<SCITEGIC>MOL_PROPERTY
W
SciTegic.value.DoubleValue
-60.679

@<SCITEGIC>MOL_PROPERTY
W(PB)
SciTegic.value.DoubleValue
-62.882

@<SCITEGIC>MOL_PROPERTY
W(SA)
SciTegic.value.DoubleValue
2.203

@<SCITEGIC>MOL_PROPERTY
Valence
SciTegic.value.DoubleValue
11.231

@<SCITEGIC>MOL_PROPERTY
Coulomb
SciTegic.value.DoubleValue
-1.077

@<SCITEGIC>MOL_PROPERTY
VdW
SciTegic.value.DoubleValue
0.489

@<SCITEGIC>MOL_PROPERTY
VdW6
SciTegic.value.DoubleValue
-7.546

@<SCITEGIC>MOL_PROPERTY
VdW12
SciTegic.value.DoubleValue
8.035

@<SCITEGIC>MOL_PROPERTY
Bond
SciTegic.value.DoubleValue
0.159

@<SCITEGIC>MOL_PROPERTY
Angle
SciTegic.value.DoubleValue
3.005

@<SCITEGIC>MOL_PROPERTY
Pdih
SciTegic.value.DoubleValue
8.065

@<SCITEGIC>MOL_PROPERTY
Idih
SciTegic.value.DoubleValue
0.002

@<SCITEGIC>MOL_PROPERTY
Tether
SciTegic.value.DoubleValue
0.000

@<TRIPOS>MOLECULE
guest-s22_confgen4.mol2 : confsearch ligand conformer 520
          20          19           1
SMALL
USER_CHARGES
 
@<TRIPOS>ATOM
       1    C1      19.511507   18.534958   19.186235 C.2        1 MOL1        -0.2535
       2    H1      19.225335   19.489376   18.747364 H          1 MOL1         0.0845
       3    H2      19.118871   17.631380   18.723196 H          1 MOL1         0.0845
       4    C2      20.311618   18.472762   20.253787 C.2        1 MOL1        -0.1324
       5    H3      20.594025   17.507799   20.673177 H          1 MOL1         0.0833
       6    C3      20.902934   19.685910   20.939511 C.3        1 MOL1        -0.1813
       7    H4      21.289655   20.366752   20.169246 H          1 MOL1         0.0753
       8    H5      21.772644   19.395187   21.543680 H          1 MOL1         0.0753
       9    C4      19.885588   20.460906   21.813329 C.3        1 MOL1        -0.1855
      10    H6      20.280614   21.473504   21.972501 H          1 MOL1         0.0755
      11    H7      18.941290   20.588685   21.266607 H          1 MOL1         0.0755
      12    C5      19.614116   19.838309   23.206089 C.3        1 MOL1        -0.1855
      13    H8      19.028482   20.556814   23.796235 H          1 MOL1         0.0755
      14    H9      20.561792   19.699019   23.744185 H          1 MOL1         0.0755
      15    C6      18.839691   18.496015   23.163900 C.3        1 MOL1        -0.1958
      16    H10     17.936759   18.597682   22.550141 H          1 MOL1         0.0753
      17    H11     19.454789   17.710817   22.713119 H          1 MOL1         0.0753
      18    C7      18.420865   18.012919   24.547672 C.2        1 MOL1         0.6174
      19    O1      19.197969   17.318731   25.173052 O.co2      1 MOL1        -0.6695
      20    O2      17.336701   18.360253   24.972914 O.co2      1 MOL1        -0.6695
@<TRIPOS>BOND
    1     1     2    1
    2     1     3    1
    3     1     4    2
    4     4     5    1
    5     4     6    1
    6     6     7    1
    7     6     8    1
    8     6     9    1
    9     9    10    1
   10     9    11    1
   11     9    12    1
   12    12    13    1
   13    12    14    1
   14    12    15    1
   15    15    16    1
   16    15    17    1
   17    15    18    1
   18    18    19    1
   19    18    20    2
@<TRIPOS>SUBSTRUCTURE
       1 MOL1            1 RESIDUE      1      MOL     
@<SCITEGIC>MOL_PROPERTY
VConf Rank
SciTegic.value.IntegerValue
520

@<SCITEGIC>MOL_PROPERTY
Conf_Id
SciTegic.value.IntegerValue
91

@<SCITEGIC>MOL_PROPERTY
Delta U+W
SciTegic.value.DoubleValue
1.604

@<SCITEGIC>MOL_PROPERTY
U+W
SciTegic.value.DoubleValue
-50.141

@<SCITEGIC>MOL_PROPERTY
Grad RMS
SciTegic.value.DoubleValue
0.000000

@<SCITEGIC>MOL_PROPERTY
U
SciTegic.value.DoubleValue
10.644

@<SCITEGIC>MOL_PROPERTY
W
SciTegic.value.DoubleValue
-60.786

@<SCITEGIC>MOL_PROPERTY
W(PB)
SciTegic.value.DoubleValue
-62.965

@<SCITEGIC>MOL_PROPERTY
W(SA)
SciTegic.value.DoubleValue
2.179

@<SCITEGIC>MOL_PROPERTY
Valence
SciTegic.value.DoubleValue
11.230

@<SCITEGIC>MOL_PROPERTY
Coulomb
SciTegic.value.DoubleValue
-1.075

@<SCITEGIC>MOL_PROPERTY
VdW
SciTegic.value.DoubleValue
0.489

@<SCITEGIC>MOL_PROPERTY
VdW6
SciTegic.value.DoubleValue
-7.547

@<SCITEGIC>MOL_PROPERTY
VdW12
SciTegic.value.DoubleValue
8.036

@<SCITEGIC>MOL_PROPERTY
Bond
SciTegic.value.DoubleValue
0.159

@<SCITEGIC>MOL_PROPERTY
Angle
SciTegic.value.DoubleValue
3.006

@<SCITEGIC>MOL_PROPERTY
Pdih
SciTegic.value.DoubleValue
8.064

@<SCITEGIC>MOL_PROPERTY
Idih
SciTegic.value.DoubleValue
0.002

@<SCITEGIC>MOL_PROPERTY
Tether
SciTegic.value.DoubleValue
0.000

@<TRIPOS>MOLECULE
guest-s22_confgen4.mol2 : confsearch ligand conformer 521
          20          19           1
SMALL
USER_CHARGES
 
@<TRIPOS>ATOM
       1    C1      17.569858   20.185807   24.575263 C.2        1 MOL1        -0.2535
       2    H1      18.310325   19.840007   25.294791 H          1 MOL1         0.0845
       3    H2      16.551218   20.326147   24.932969 H          1 MOL1         0.0845
       4    C2      17.893648   20.427094   23.302239 C.2        1 MOL1        -0.1324
       5    H3      17.137088   20.772022   22.597754 H          1 MOL1         0.0833
       6    C3      19.285012   20.256013   22.734365 C.3        1 MOL1        -0.1813
       7    H4      20.018833   20.164958   23.546782 H          1 MOL1         0.0753
       8    H5      19.559786   21.150430   22.159334 H          1 MOL1         0.0753
       9    C4      19.366880   19.011341   21.826091 C.3        1 MOL1        -0.1855
      10    H6      19.087079   18.120234   22.404905 H          1 MOL1         0.0755
      11    H7      18.635976   19.104985   21.011125 H          1 MOL1         0.0755
      12    C5      20.781216   18.823182   21.235021 C.3        1 MOL1        -0.1855
      13    H8      21.512773   18.728952   22.049569 H          1 MOL1         0.0755
      14    H9      21.062123   19.714574   20.657061 H          1 MOL1         0.0755
      15    C6      20.863303   17.570839   20.322170 C.3        1 MOL1        -0.1958
      16    H10     20.590349   16.676452   20.894431 H          1 MOL1         0.0753
      17    H11     20.140137   17.661009   19.503142 H          1 MOL1         0.0753
      18    C7      22.233302   17.309905   19.694211 C.2        1 MOL1         0.6174
      19    O1      22.336136   16.338504   18.971755 O.co2      1 MOL1        -0.6695
      20    O2      23.158033   18.063485   19.930090 O.co2      1 MOL1        -0.6695
@<TRIPOS>BOND
    1     1     2    1
    2     1     3    1
    3     1     4    2
    4     4     5    1
    5     4     6    1
    6     6     7    1
    7     6     8    1
    8     6     9    1
    9     9    10    1
   10     9    11    1
   11     9    12    1
   12    12    13    1
   13    12    14    1
   14    12    15    1
   15    15    16    1
   16    15    17    1
   17    15    18    1
   18    18    19    1
   19    18    20    2
@<TRIPOS>SUBSTRUCTURE
       1 MOL1            1 RESIDUE      1      MOL     
@<SCITEGIC>MOL_PROPERTY
VConf Rank
SciTegic.value.IntegerValue
521

@<SCITEGIC>MOL_PROPERTY
Conf_Id
SciTegic.value.IntegerValue
33

@<SCITEGIC>MOL_PROPERTY
Delta U+W
SciTegic.value.DoubleValue
0.000

@<SCITEGIC>MOL_PROPERTY
U+W
SciTegic.value.DoubleValue
-51.745

@<SCITEGIC>MOL_PROPERTY
Grad RMS
SciTegic.value.DoubleValue
0.000000

@<SCITEGIC>MOL_PROPERTY
U
SciTegic.value.DoubleValue
7.593

@<SCITEGIC>MOL_PROPERTY
W
SciTegic.value.DoubleValue
-59.338

@<SCITEGIC>MOL_PROPERTY
W(PB)
SciTegic.value.DoubleValue
-61.574

@<SCITEGIC>MOL_PROPERTY
W(SA)
SciTegic.value.DoubleValue
2.236

@<SCITEGIC>MOL_PROPERTY
Valence
SciTegic.value.DoubleValue
9.570

@<SCITEGIC>MOL_PROPERTY
Coulomb
SciTegic.value.DoubleValue
-3.091

@<SCITEGIC>MOL_PROPERTY
VdW
SciTegic.value.DoubleValue
1.114

@<SCITEGIC>MOL_PROPERTY
VdW6
SciTegic.value.DoubleValue
-6.064

@<SCITEGIC>MOL_PROPERTY
VdW12
SciTegic.value.DoubleValue
7.178

@<SCITEGIC>MOL_PROPERTY
Bond
SciTegic.value.DoubleValue
0.117

@<SCITEGIC>MOL_PROPERTY
Angle
SciTegic.value.DoubleValue
2.692

@<SCITEGIC>MOL_PROPERTY
Pdih
SciTegic.value.DoubleValue
6.761

@<SCITEGIC>MOL_PROPERTY
Idih
SciTegic.value.DoubleValue
0.000

@<SCITEGIC>MOL_PROPERTY
Tether
SciTegic.value.DoubleValue
0.000

@<TRIPOS>MOLECULE
guest-s22_confgen4.mol2 : confsearch ligand conformer 522
          20          19           1
SMALL
USER_CHARGES
 
@<TRIPOS>ATOM
       1    C1      16.303750   18.118256   21.076509 C.2        1 MOL1        -0.2535
       2    H1      16.675252   17.470429   20.284117 H          1 MOL1         0.0845
       3    H2      15.231466   18.303441   21.110733 H          1 MOL1         0.0845
       4    C2      17.127997   18.668239   21.971947 C.2        1 MOL1        -0.1324
       5    H3      16.735869   19.314591   22.756866 H          1 MOL1         0.0833
       6    C3      18.625548   18.456576   21.988087 C.3        1 MOL1        -0.1813
       7    H4      18.896146   17.609217   21.343605 H          1 MOL1         0.0753
       8    H5      18.941013   18.194714   23.005909 H          1 MOL1         0.0753
       9    C4      19.370111   19.723918   21.511349 C.3        1 MOL1        -0.1855
      10    H6      18.977551   20.015331   20.527318 H          1 MOL1         0.0755
      11    H7      19.152131   20.558570   22.191669 H          1 MOL1         0.0755
      12    C5      20.901215   19.533241   21.394981 C.3        1 MOL1        -0.1855
      13    H8      21.335501   20.436988   20.945391 H          1 MOL1         0.0755
      14    H9      21.121154   18.707277   20.704471 H          1 MOL1         0.0755
      15    C6      21.597367   19.270136   22.755541 C.3        1 MOL1        -0.1958
      16    H10     21.350459   20.066754   23.467454 H          1 MOL1         0.0753
      17    H11     21.251597   18.325717   23.190579 H          1 MOL1         0.0753
      18    C7      23.115355   19.196770   22.635967 C.2        1 MOL1         0.6174
      19    O1      23.620967   18.116888   22.401619 O.co2      1 MOL1        -0.6695
      20    O2      23.750917   20.224997   22.760653 O.co2      1 MOL1        -0.6695
@<TRIPOS>BOND
    1     1     2    1
    2     1     3    1
    3     1     4    2
    4     4     5    1
    5     4     6    1
    6     6     7    1
    7     6     8    1
    8     6     9    1
    9     9    10    1
   10     9    11    1
   11     9    12    1
   12    12    13    1
   13    12    14    1
   14    12    15    1
   15    15    16    1
   16    15    17    1
   17    15    18    1
   18    18    19    1
   19    18    20    2
@<TRIPOS>SUBSTRUCTURE
       1 MOL1            1 RESIDUE      1      MOL     
@<SCITEGIC>MOL_PROPERTY
VConf Rank
SciTegic.value.IntegerValue
522

@<SCITEGIC>MOL_PROPERTY
Conf_Id
SciTegic.value.IntegerValue
37

@<SCITEGIC>MOL_PROPERTY
Delta U+W
SciTegic.value.DoubleValue
-0.384

@<SCITEGIC>MOL_PROPERTY
U+W
SciTegic.value.DoubleValue
-52.130

@<SCITEGIC>MOL_PROPERTY
Grad RMS
SciTegic.value.DoubleValue
0.000000

@<SCITEGIC>MOL_PROPERTY
U
SciTegic.value.DoubleValue
7.491

@<SCITEGIC>MOL_PROPERTY
W
SciTegic.value.DoubleValue
-59.621

@<SCITEGIC>MOL_PROPERTY
W(PB)
SciTegic.value.DoubleValue
-61.853

@<SCITEGIC>MOL_PROPERTY
W(SA)
SciTegic.value.DoubleValue
2.232

@<SCITEGIC>MOL_PROPERTY
Valence
SciTegic.value.DoubleValue
9.604

@<SCITEGIC>MOL_PROPERTY
Coulomb
SciTegic.value.DoubleValue
-2.799

@<SCITEGIC>MOL_PROPERTY
VdW
SciTegic.value.DoubleValue
0.686

@<SCITEGIC>MOL_PROPERTY
VdW6
SciTegic.value.DoubleValue
-6.435

@<SCITEGIC>MOL_PROPERTY
VdW12
SciTegic.value.DoubleValue
7.121

@<SCITEGIC>MOL_PROPERTY
Bond
SciTegic.value.DoubleValue
0.124

@<SCITEGIC>MOL_PROPERTY
Angle
SciTegic.value.DoubleValue
2.493

@<SCITEGIC>MOL_PROPERTY
Pdih
SciTegic.value.DoubleValue
6.986

@<SCITEGIC>MOL_PROPERTY
Idih
SciTegic.value.DoubleValue
0.001

@<SCITEGIC>MOL_PROPERTY
Tether
SciTegic.value.DoubleValue
0.000

@<TRIPOS>MOLECULE
guest-s22_confgen4.mol2 : confsearch ligand conformer 523
          20          19           1
SMALL
USER_CHARGES
 
@<TRIPOS>ATOM
       1    C1      18.356323   21.778381   20.665068 C.2        1 MOL1        -0.2535
       2    H1      17.908130   22.684123   20.260168 H          1 MOL1         0.0845
       3    H2      17.673584   21.006758   21.014370 H          1 MOL1         0.0845
       4    C2      19.685862   21.640423   20.721701 C.2        1 MOL1        -0.1324
       5    H3      20.318536   22.448950   20.356139 H          1 MOL1         0.0833
       6    C3      20.452975   20.442722   21.256552 C.3        1 MOL1        -0.1813
       7    H4      21.119571   20.781286   22.061014 H          1 MOL1         0.0753
       8    H5      21.113151   20.064299   20.464656 H          1 MOL1         0.0753
       9    C4      19.573660   19.283423   21.780779 C.3        1 MOL1        -0.1855
      10    H6      18.925185   19.650737   22.588025 H          1 MOL1         0.0755
      11    H7      18.918675   18.925987   20.974354 H          1 MOL1         0.0755
      12    C5      20.428299   18.108736   22.304920 C.3        1 MOL1        -0.1855
      13    H8      21.086056   18.459936   23.112150 H          1 MOL1         0.0755
      14    H9      21.079560   17.736679   21.501777 H          1 MOL1         0.0755
      15    C6      19.550077   16.946558   22.830422 C.3        1 MOL1        -0.1958
      16    H10     18.902727   17.298301   23.642714 H          1 MOL1         0.0753
      17    H11     18.896159   16.575092   22.032295 H          1 MOL1         0.0753
      18    C7      20.371525   15.773802   23.353732 C.2        1 MOL1         0.6174
      19    O1      20.693165   15.776431   24.525563 O.co2      1 MOL1        -0.6695
      20    O2      20.684841   14.898518   22.571198 O.co2      1 MOL1        -0.6695
@<TRIPOS>BOND
    1     1     2    1
    2     1     3    1
    3     1     4    2
    4     4     5    1
    5     4     6    1
    6     6     7    1
    7     6     8    1
    8     6     9    1
    9     9    10    1
   10     9    11    1
   11     9    12    1
   12    12    13    1
   13    12    14    1
   14    12    15    1
   15    15    16    1
   16    15    17    1
   17    15    18    1
   18    18    19    1
   19    18    20    2
@<TRIPOS>SUBSTRUCTURE
       1 MOL1            1 RESIDUE      1      MOL     
@<SCITEGIC>MOL_PROPERTY
VConf Rank
SciTegic.value.IntegerValue
523

@<SCITEGIC>MOL_PROPERTY
Conf_Id
SciTegic.value.IntegerValue
44

@<SCITEGIC>MOL_PROPERTY
Delta U+W
SciTegic.value.DoubleValue
-1.440

@<SCITEGIC>MOL_PROPERTY
U+W
SciTegic.value.DoubleValue
-53.185

@<SCITEGIC>MOL_PROPERTY
Grad RMS
SciTegic.value.DoubleValue
0.000000

@<SCITEGIC>MOL_PROPERTY
U
SciTegic.value.DoubleValue
6.572

@<SCITEGIC>MOL_PROPERTY
W
SciTegic.value.DoubleValue
-59.757

@<SCITEGIC>MOL_PROPERTY
W(PB)
SciTegic.value.DoubleValue
-62.007

@<SCITEGIC>MOL_PROPERTY
W(SA)
SciTegic.value.DoubleValue
2.249

@<SCITEGIC>MOL_PROPERTY
Valence
SciTegic.value.DoubleValue
7.989

@<SCITEGIC>MOL_PROPERTY
Coulomb
SciTegic.value.DoubleValue
-2.697

@<SCITEGIC>MOL_PROPERTY
VdW
SciTegic.value.DoubleValue
1.281

@<SCITEGIC>MOL_PROPERTY
VdW6
SciTegic.value.DoubleValue
-6.467

@<SCITEGIC>MOL_PROPERTY
VdW12
SciTegic.value.DoubleValue
7.748

@<SCITEGIC>MOL_PROPERTY
Bond
SciTegic.value.DoubleValue
0.136

@<SCITEGIC>MOL_PROPERTY
Angle
SciTegic.value.DoubleValue
2.854

@<SCITEGIC>MOL_PROPERTY
Pdih
SciTegic.value.DoubleValue
4.997

@<SCITEGIC>MOL_PROPERTY
Idih
SciTegic.value.DoubleValue
0.001

@<SCITEGIC>MOL_PROPERTY
Tether
SciTegic.value.DoubleValue
0.000

@<TRIPOS>MOLECULE
guest-s22_confgen4.mol2 : confsearch ligand conformer 524
          20          19           1
SMALL
USER_CHARGES
 
@<TRIPOS>ATOM
       1    C1      16.346910   18.780209   21.961611 C.2        1 MOL1        -0.2535
       2    H1      16.431698   19.844876   21.749778 H          1 MOL1         0.0845
       3    H2      15.369484   18.405199   22.260375 H          1 MOL1         0.0845
       4    C2      17.398797   17.963226   21.862670 C.2        1 MOL1        -0.1324
       5    H3      17.292575   16.900576   22.079762 H          1 MOL1         0.0833
       6    C3      18.784370   18.410746   21.453023 C.3        1 MOL1        -0.1813
       7    H4      18.734855   19.409383   21.000395 H          1 MOL1         0.0753
       8    H5      19.176076   17.732490   20.683304 H          1 MOL1         0.0753
       9    C4      19.742961   18.428233   22.664946 C.3        1 MOL1        -0.1855
      10    H6      19.379030   19.147961   23.411096 H          1 MOL1         0.0755
      11    H7      19.721613   17.442341   23.149348 H          1 MOL1         0.0755
      12    C5      21.206746   18.761460   22.289958 C.3        1 MOL1        -0.1855
      13    H8      21.575256   18.036589   21.550948 H          1 MOL1         0.0755
      14    H9      21.835249   18.640159   23.183138 H          1 MOL1         0.0755
      15    C6      21.393334   20.200200   21.741990 C.3        1 MOL1        -0.1958
      16    H10     20.850932   20.328166   20.798525 H          1 MOL1         0.0753
      17    H11     20.988826   20.931170   22.452238 H          1 MOL1         0.0753
      18    C7      22.855374   20.548223   21.486543 C.2        1 MOL1         0.6174
      19    O1      23.492650   21.048465   22.392286 O.co2      1 MOL1        -0.6695
      20    O2      23.324048   20.291674   20.395103 O.co2      1 MOL1        -0.6695
@<TRIPOS>BOND
    1     1     2    1
    2     1     3    1
    3     1     4    2
    4     4     5    1
    5     4     6    1
    6     6     7    1
    7     6     8    1
    8     6     9    1
    9     9    10    1
   10     9    11    1
   11     9    12    1
   12    12    13    1
   13    12    14    1
   14    12    15    1
   15    15    16    1
   16    15    17    1
   17    15    18    1
   18    18    19    1
   19    18    20    2
@<TRIPOS>SUBSTRUCTURE
       1 MOL1            1 RESIDUE      1      MOL     
@<SCITEGIC>MOL_PROPERTY
VConf Rank
SciTegic.value.IntegerValue
524

@<SCITEGIC>MOL_PROPERTY
Conf_Id
SciTegic.value.IntegerValue
38

@<SCITEGIC>MOL_PROPERTY
Delta U+W
SciTegic.value.DoubleValue
-0.381

@<SCITEGIC>MOL_PROPERTY
U+W
SciTegic.value.DoubleValue
-52.126

@<SCITEGIC>MOL_PROPERTY
Grad RMS
SciTegic.value.DoubleValue
0.000000

@<SCITEGIC>MOL_PROPERTY
U
SciTegic.value.DoubleValue
7.601

@<SCITEGIC>MOL_PROPERTY
W
SciTegic.value.DoubleValue
-59.727

@<SCITEGIC>MOL_PROPERTY
W(PB)
SciTegic.value.DoubleValue
-61.964

@<SCITEGIC>MOL_PROPERTY
W(SA)
SciTegic.value.DoubleValue
2.236

@<SCITEGIC>MOL_PROPERTY
Valence
SciTegic.value.DoubleValue
9.602

@<SCITEGIC>MOL_PROPERTY
Coulomb
SciTegic.value.DoubleValue
-2.686

@<SCITEGIC>MOL_PROPERTY
VdW
SciTegic.value.DoubleValue
0.685

@<SCITEGIC>MOL_PROPERTY
VdW6
SciTegic.value.DoubleValue
-6.453

@<SCITEGIC>MOL_PROPERTY
VdW12
SciTegic.value.DoubleValue
7.139

@<SCITEGIC>MOL_PROPERTY
Bond
SciTegic.value.DoubleValue
0.125

@<SCITEGIC>MOL_PROPERTY
Angle
SciTegic.value.DoubleValue
2.485

@<SCITEGIC>MOL_PROPERTY
Pdih
SciTegic.value.DoubleValue
6.991

@<SCITEGIC>MOL_PROPERTY
Idih
SciTegic.value.DoubleValue
0.001

@<SCITEGIC>MOL_PROPERTY
Tether
SciTegic.value.DoubleValue
0.000

@<TRIPOS>MOLECULE
guest-s22_confgen4.mol2 : confsearch ligand conformer 525
          20          19           1
SMALL
USER_CHARGES
 
@<TRIPOS>ATOM
       1    C1      21.616719   21.701154   20.307678 C.2        1 MOL1        -0.2535
       2    H1      22.194068   21.958850   21.194154 H          1 MOL1         0.0845
       3    H2      22.048491   21.948404   19.339325 H          1 MOL1         0.0845
       4    C2      20.426184   21.103014   20.399972 C.2        1 MOL1        -0.1324
       5    H3      19.864744   20.852649   19.500104 H          1 MOL1         0.0833
       6    C3      19.763755   20.730254   21.707599 C.3        1 MOL1        -0.1813
       7    H4      18.721649   21.076839   21.703373 H          1 MOL1         0.0753
       8    H5      20.262399   21.237623   22.544660 H          1 MOL1         0.0753
       9    C4      19.800135   19.204560   21.935515 C.3        1 MOL1        -0.1855
      10    H6      19.298757   18.699663   21.098179 H          1 MOL1         0.0755
      11    H7      20.843779   18.860937   21.934294 H          1 MOL1         0.0755
      12    C5      19.124221   18.806063   23.266932 C.3        1 MOL1        -0.1855
      13    H8      18.076931   19.139049   23.267159 H          1 MOL1         0.0755
      14    H9      19.621838   19.327295   24.095954 H          1 MOL1         0.0755
      15    C6      19.177423   17.278492   23.528830 C.3        1 MOL1        -0.1958
      16    H10     20.215573   16.925669   23.503941 H          1 MOL1         0.0753
      17    H11     18.793615   17.065267   24.533422 H          1 MOL1         0.0753
      18    C7      18.357989   16.451361   22.542296 C.2        1 MOL1         0.6174
      19    O1      18.949135   15.830449   21.680911 O.co2      1 MOL1        -0.6695
      20    O2      17.149306   16.441639   22.669142 O.co2      1 MOL1        -0.6695
@<TRIPOS>BOND
    1     1     2    1
    2     1     3    1
    3     1     4    2
    4     4     5    1
    5     4     6    1
    6     6     7    1
    7     6     8    1
    8     6     9    1
    9     9    10    1
   10     9    11    1
   11     9    12    1
   12    12    13    1
   13    12    14    1
   14    12    15    1
   15    15    16    1
   16    15    17    1
   17    15    18    1
   18    18    19    1
   19    18    20    2
@<TRIPOS>SUBSTRUCTURE
       1 MOL1            1 RESIDUE      1      MOL     
@<SCITEGIC>MOL_PROPERTY
VConf Rank
SciTegic.value.IntegerValue
525

@<SCITEGIC>MOL_PROPERTY
Conf_Id
SciTegic.value.IntegerValue
58

@<SCITEGIC>MOL_PROPERTY
Delta U+W
SciTegic.value.DoubleValue
0.019

@<SCITEGIC>MOL_PROPERTY
U+W
SciTegic.value.DoubleValue
-51.727

@<SCITEGIC>MOL_PROPERTY
Grad RMS
SciTegic.value.DoubleValue
0.000000

@<SCITEGIC>MOL_PROPERTY
U
SciTegic.value.DoubleValue
8.963

@<SCITEGIC>MOL_PROPERTY
W
SciTegic.value.DoubleValue
-60.690

@<SCITEGIC>MOL_PROPERTY
W(PB)
SciTegic.value.DoubleValue
-62.934

@<SCITEGIC>MOL_PROPERTY
W(SA)
SciTegic.value.DoubleValue
2.244

@<SCITEGIC>MOL_PROPERTY
Valence
SciTegic.value.DoubleValue
9.327

@<SCITEGIC>MOL_PROPERTY
Coulomb
SciTegic.value.DoubleValue
-0.780

@<SCITEGIC>MOL_PROPERTY
VdW
SciTegic.value.DoubleValue
0.417

@<SCITEGIC>MOL_PROPERTY
VdW6
SciTegic.value.DoubleValue
-6.635

@<SCITEGIC>MOL_PROPERTY
VdW12
SciTegic.value.DoubleValue
7.052

@<SCITEGIC>MOL_PROPERTY
Bond
SciTegic.value.DoubleValue
0.105

@<SCITEGIC>MOL_PROPERTY
Angle
SciTegic.value.DoubleValue
2.399

@<SCITEGIC>MOL_PROPERTY
Pdih
SciTegic.value.DoubleValue
6.822

@<SCITEGIC>MOL_PROPERTY
Idih
SciTegic.value.DoubleValue
0.000

@<SCITEGIC>MOL_PROPERTY
Tether
SciTegic.value.DoubleValue
0.000

@<TRIPOS>MOLECULE
guest-s22_confgen4.mol2 : confsearch ligand conformer 526
          20          19           1
SMALL
USER_CHARGES
 
@<TRIPOS>ATOM
       1    C1      18.992979   16.760667   24.494138 C.2        1 MOL1        -0.2535
       2    H1      18.931436   15.965043   23.753347 H          1 MOL1         0.0845
       3    H2      18.485736   16.600926   25.444114 H          1 MOL1         0.0845
       4    C2      19.661264   17.890950   24.250163 C.2        1 MOL1        -0.1324
       5    H3      19.709894   18.675515   25.004982 H          1 MOL1         0.0833
       6    C3      20.389460   18.183058   22.957087 C.3        1 MOL1        -0.1813
       7    H4      20.506199   17.261956   22.369989 H          1 MOL1         0.0753
       8    H5      21.401616   18.546628   23.179537 H          1 MOL1         0.0753
       9    C4      19.634872   19.235655   22.118250 C.3        1 MOL1        -0.1855
      10    H6      18.621414   18.870515   21.901807 H          1 MOL1         0.0755
      11    H7      19.521477   20.156608   22.706824 H          1 MOL1         0.0755
      12    C5      20.367657   19.548135   20.793972 C.3        1 MOL1        -0.1855
      13    H8      20.490159   18.619623   20.220001 H          1 MOL1         0.0755
      14    H9      21.378157   19.923785   21.007212 H          1 MOL1         0.0755
      15    C6      19.608803   20.582083   19.922199 C.3        1 MOL1        -0.1958
      16    H10     20.106396   20.677240   18.949922 H          1 MOL1         0.0753
      17    H11     18.587893   20.233893   19.723795 H          1 MOL1         0.0753
      18    C7      19.536974   21.977224   20.536438 C.2        1 MOL1         0.6174
      19    O1      20.536142   22.668439   20.505124 O.co2      1 MOL1        -0.6695
      20    O2      18.482558   22.340256   21.019535 O.co2      1 MOL1        -0.6695
@<TRIPOS>BOND
    1     1     2    1
    2     1     3    1
    3     1     4    2
    4     4     5    1
    5     4     6    1
    6     6     7    1
    7     6     8    1
    8     6     9    1
    9     9    10    1
   10     9    11    1
   11     9    12    1
   12    12    13    1
   13    12    14    1
   14    12    15    1
   15    15    16    1
   16    15    17    1
   17    15    18    1
   18    18    19    1
   19    18    20    2
@<TRIPOS>SUBSTRUCTURE
       1 MOL1            1 RESIDUE      1      MOL     
@<SCITEGIC>MOL_PROPERTY
VConf Rank
SciTegic.value.IntegerValue
526

@<SCITEGIC>MOL_PROPERTY
Conf_Id
SciTegic.value.IntegerValue
54

@<SCITEGIC>MOL_PROPERTY
Delta U+W
SciTegic.value.DoubleValue
-0.048

@<SCITEGIC>MOL_PROPERTY
U+W
SciTegic.value.DoubleValue
-51.793

@<SCITEGIC>MOL_PROPERTY
Grad RMS
SciTegic.value.DoubleValue
0.000000

@<SCITEGIC>MOL_PROPERTY
U
SciTegic.value.DoubleValue
8.964

@<SCITEGIC>MOL_PROPERTY
W
SciTegic.value.DoubleValue
-60.756

@<SCITEGIC>MOL_PROPERTY
W(PB)
SciTegic.value.DoubleValue
-63.007

@<SCITEGIC>MOL_PROPERTY
W(SA)
SciTegic.value.DoubleValue
2.251

@<SCITEGIC>MOL_PROPERTY
Valence
SciTegic.value.DoubleValue
9.327

@<SCITEGIC>MOL_PROPERTY
Coulomb
SciTegic.value.DoubleValue
-0.780

@<SCITEGIC>MOL_PROPERTY
VdW
SciTegic.value.DoubleValue
0.417

@<SCITEGIC>MOL_PROPERTY
VdW6
SciTegic.value.DoubleValue
-6.635

@<SCITEGIC>MOL_PROPERTY
VdW12
SciTegic.value.DoubleValue
7.052

@<SCITEGIC>MOL_PROPERTY
Bond
SciTegic.value.DoubleValue
0.105

@<SCITEGIC>MOL_PROPERTY
Angle
SciTegic.value.DoubleValue
2.399

@<SCITEGIC>MOL_PROPERTY
Pdih
SciTegic.value.DoubleValue
6.822

@<SCITEGIC>MOL_PROPERTY
Idih
SciTegic.value.DoubleValue
0.000

@<SCITEGIC>MOL_PROPERTY
Tether
SciTegic.value.DoubleValue
0.000

@<TRIPOS>MOLECULE
guest-s22_confgen4.mol2 : confsearch ligand conformer 527
          20          19           1
SMALL
USER_CHARGES
 
@<TRIPOS>ATOM
       1    C1      21.276615   20.686615   24.569205 C.2        1 MOL1        -0.2535
       2    H1      21.858950   20.345040   25.423254 H          1 MOL1         0.0845
       3    H2      21.581873   21.617759   24.094551 H          1 MOL1         0.0845
       4    C2      20.230958   19.986228   24.122292 C.2        1 MOL1        -0.1324
       5    H3      19.940333   19.058469   24.614281 H          1 MOL1         0.0833
       6    C3      19.372288   20.402268   22.946943 C.3        1 MOL1        -0.1813
       7    H4      19.497649   21.477285   22.759449 H          1 MOL1         0.0753
       8    H5      18.311038   20.254262   23.187545 H          1 MOL1         0.0753
       9    C4      19.726733   19.630463   21.655863 C.3        1 MOL1        -0.1855
      10    H6      19.170071   20.072705   20.818288 H          1 MOL1         0.0755
      11    H7      20.793109   19.767310   21.429471 H          1 MOL1         0.0755
      12    C5      19.400059   18.120875   21.748223 C.3        1 MOL1        -0.1855
      13    H8      18.336726   17.983939   21.989073 H          1 MOL1         0.0755
      14    H9      19.971293   17.671866   22.571373 H          1 MOL1         0.0755
      15    C6      19.732631   17.358406   20.439323 C.3        1 MOL1        -0.1958
      16    H10     20.783775   17.513418   20.167477 H          1 MOL1         0.0753
      17    H11     19.601548   16.281750   20.599276 H          1 MOL1         0.0753
      18    C7      18.858758   17.752528   19.251953 C.2        1 MOL1         0.6174
      19    O1      19.342656   18.460014   18.390353 O.co2      1 MOL1        -0.6695
      20    O2      17.719139   17.331762   19.215336 O.co2      1 MOL1        -0.6695
@<TRIPOS>BOND
    1     1     2    1
    2     1     3    1
    3     1     4    2
    4     4     5    1
    5     4     6    1
    6     6     7    1
    7     6     8    1
    8     6     9    1
    9     9    10    1
   10     9    11    1
   11     9    12    1
   12    12    13    1
   13    12    14    1
   14    12    15    1
   15    15    16    1
   16    15    17    1
   17    15    18    1
   18    18    19    1
   19    18    20    2
@<TRIPOS>SUBSTRUCTURE
       1 MOL1            1 RESIDUE      1      MOL     
@<SCITEGIC>MOL_PROPERTY
VConf Rank
SciTegic.value.IntegerValue
527

@<SCITEGIC>MOL_PROPERTY
Conf_Id
SciTegic.value.IntegerValue
27

@<SCITEGIC>MOL_PROPERTY
Delta U+W
SciTegic.value.DoubleValue
0.478

@<SCITEGIC>MOL_PROPERTY
U+W
SciTegic.value.DoubleValue
-51.267

@<SCITEGIC>MOL_PROPERTY
Grad RMS
SciTegic.value.DoubleValue
0.000000

@<SCITEGIC>MOL_PROPERTY
U
SciTegic.value.DoubleValue
9.192

@<SCITEGIC>MOL_PROPERTY
W
SciTegic.value.DoubleValue
-60.459

@<SCITEGIC>MOL_PROPERTY
W(PB)
SciTegic.value.DoubleValue
-62.649

@<SCITEGIC>MOL_PROPERTY
W(SA)
SciTegic.value.DoubleValue
2.190

@<SCITEGIC>MOL_PROPERTY
Valence
SciTegic.value.DoubleValue
9.572

@<SCITEGIC>MOL_PROPERTY
Coulomb
SciTegic.value.DoubleValue
-0.884

@<SCITEGIC>MOL_PROPERTY
VdW
SciTegic.value.DoubleValue
0.504

@<SCITEGIC>MOL_PROPERTY
VdW6
SciTegic.value.DoubleValue
-7.168

@<SCITEGIC>MOL_PROPERTY
VdW12
SciTegic.value.DoubleValue
7.672

@<SCITEGIC>MOL_PROPERTY
Bond
SciTegic.value.DoubleValue
0.127

@<SCITEGIC>MOL_PROPERTY
Angle
SciTegic.value.DoubleValue
2.504

@<SCITEGIC>MOL_PROPERTY
Pdih
SciTegic.value.DoubleValue
6.941

@<SCITEGIC>MOL_PROPERTY
Idih
SciTegic.value.DoubleValue
0.001

@<SCITEGIC>MOL_PROPERTY
Tether
SciTegic.value.DoubleValue
0.000

@<TRIPOS>MOLECULE
guest-s22_confgen4.mol2 : confsearch ligand conformer 528
          20          19           1
SMALL
USER_CHARGES
 
@<TRIPOS>ATOM
       1    C1      18.710388   15.602097   21.836742 C.2        1 MOL1        -0.2535
       2    H1      18.350874   15.352503   22.833717 H          1 MOL1         0.0845
       3    H2      19.137525   14.796606   21.241817 H          1 MOL1         0.0845
       4    C2      18.635148   16.847278   21.359729 C.2        1 MOL1        -0.1324
       5    H3      18.998118   17.074718   20.357822 H          1 MOL1         0.0833
       6    C3      18.049349   18.014306   22.125680 C.3        1 MOL1        -0.1813
       7    H4      17.407133   17.641127   22.934909 H          1 MOL1         0.0753
       8    H5      17.400333   18.606384   21.466680 H          1 MOL1         0.0753
       9    C4      19.139402   18.922783   22.737656 C.3        1 MOL1        -0.1855
      10    H6      18.656580   19.667228   23.385392 H          1 MOL1         0.0755
      11    H7      19.794781   18.321970   23.383263 H          1 MOL1         0.0755
      12    C5      19.983867   19.652626   21.667959 C.3        1 MOL1        -0.1855
      13    H8      19.324513   20.232319   21.007228 H          1 MOL1         0.0755
      14    H9      20.504322   18.919651   21.036647 H          1 MOL1         0.0755
      15    C6      21.028282   20.600291   22.307639 C.3        1 MOL1        -0.1958
      16    H10     20.527578   21.351611   22.930013 H          1 MOL1         0.0753
      17    H11     21.702369   20.034113   22.961594 H          1 MOL1         0.0753
      18    C7      21.875741   21.331703   21.272798 C.2        1 MOL1         0.6174
      19    O1      22.907728   20.807835   20.902357 O.co2      1 MOL1        -0.6695
      20    O2      21.472636   22.397834   20.851407 O.co2      1 MOL1        -0.6695
@<TRIPOS>BOND
    1     1     2    1
    2     1     3    1
    3     1     4    2
    4     4     5    1
    5     4     6    1
    6     6     7    1
    7     6     8    1
    8     6     9    1
    9     9    10    1
   10     9    11    1
   11     9    12    1
   12    12    13    1
   13    12    14    1
   14    12    15    1
   15    15    16    1
   16    15    17    1
   17    15    18    1
   18    18    19    1
   19    18    20    2
@<TRIPOS>SUBSTRUCTURE
       1 MOL1            1 RESIDUE      1      MOL     
@<SCITEGIC>MOL_PROPERTY
VConf Rank
SciTegic.value.IntegerValue
528

@<SCITEGIC>MOL_PROPERTY
Conf_Id
SciTegic.value.IntegerValue
41

@<SCITEGIC>MOL_PROPERTY
Delta U+W
SciTegic.value.DoubleValue
-0.634

@<SCITEGIC>MOL_PROPERTY
U+W
SciTegic.value.DoubleValue
-52.379

@<SCITEGIC>MOL_PROPERTY
Grad RMS
SciTegic.value.DoubleValue
0.000000

@<SCITEGIC>MOL_PROPERTY
U
SciTegic.value.DoubleValue
7.828

@<SCITEGIC>MOL_PROPERTY
W
SciTegic.value.DoubleValue
-60.207

@<SCITEGIC>MOL_PROPERTY
W(PB)
SciTegic.value.DoubleValue
-62.449

@<SCITEGIC>MOL_PROPERTY
W(SA)
SciTegic.value.DoubleValue
2.242

@<SCITEGIC>MOL_PROPERTY
Valence
SciTegic.value.DoubleValue
9.300

@<SCITEGIC>MOL_PROPERTY
Coulomb
SciTegic.value.DoubleValue
-2.080

@<SCITEGIC>MOL_PROPERTY
VdW
SciTegic.value.DoubleValue
0.608

@<SCITEGIC>MOL_PROPERTY
VdW6
SciTegic.value.DoubleValue
-6.341

@<SCITEGIC>MOL_PROPERTY
VdW12
SciTegic.value.DoubleValue
6.949

@<SCITEGIC>MOL_PROPERTY
Bond
SciTegic.value.DoubleValue
0.103

@<SCITEGIC>MOL_PROPERTY
Angle
SciTegic.value.DoubleValue
2.334

@<SCITEGIC>MOL_PROPERTY
Pdih
SciTegic.value.DoubleValue
6.862

@<SCITEGIC>MOL_PROPERTY
Idih
SciTegic.value.DoubleValue
0.001

@<SCITEGIC>MOL_PROPERTY
Tether
SciTegic.value.DoubleValue
0.000

@<TRIPOS>MOLECULE
guest-s22_confgen4.mol2 : confsearch ligand conformer 529
          20          19           1
SMALL
USER_CHARGES
 
@<TRIPOS>ATOM
       1    C1      18.555455   21.012632   19.781590 C.2        1 MOL1        -0.2535
       2    H1      18.330523   21.189041   18.731103 H          1 MOL1         0.0845
       3    H2      17.992671   21.584757   20.517457 H          1 MOL1         0.0845
       4    C2      19.484645   20.126456   20.149032 C.2        1 MOL1        -0.1324
       5    H3      20.036627   19.563247   19.396850 H          1 MOL1         0.0833
       6    C3      19.851829   19.828990   21.585795 C.3        1 MOL1        -0.1813
       7    H4      19.447873   20.604896   22.249996 H          1 MOL1         0.0753
       8    H5      20.944188   19.855917   21.690587 H          1 MOL1         0.0753
       9    C4      19.315564   18.446784   22.020655 C.3        1 MOL1        -0.1855
      10    H6      18.237144   18.404165   21.814856 H          1 MOL1         0.0755
      11    H7      19.778103   17.663060   21.404950 H          1 MOL1         0.0755
      12    C5      19.543466   18.138746   23.521110 C.3        1 MOL1        -0.1855
      13    H8      19.066712   17.178319   23.761259 H          1 MOL1         0.0755
      14    H9      19.030323   18.896883   24.128003 H          1 MOL1         0.0755
      15    C6      21.036610   18.073399   23.943802 C.3        1 MOL1        -0.1958
      16    H10     21.526162   19.041294   23.787200 H          1 MOL1         0.0753
      17    H11     21.100716   17.863935   25.017916 H          1 MOL1         0.0753
      18    C7      21.841676   16.996134   23.222617 C.2        1 MOL1         0.6174
      19    O1      21.636680   15.834870   23.517317 O.co2      1 MOL1        -0.6695
      20    O2      22.664235   17.346052   22.399266 O.co2      1 MOL1        -0.6695
@<TRIPOS>BOND
    1     1     2    1
    2     1     3    1
    3     1     4    2
    4     4     5    1
    5     4     6    1
    6     6     7    1
    7     6     8    1
    8     6     9    1
    9     9    10    1
   10     9    11    1
   11     9    12    1
   12    12    13    1
   13    12    14    1
   14    12    15    1
   15    15    16    1
   16    15    17    1
   17    15    18    1
   18    18    19    1
   19    18    20    2
@<TRIPOS>SUBSTRUCTURE
       1 MOL1            1 RESIDUE      1      MOL     
@<SCITEGIC>MOL_PROPERTY
VConf Rank
SciTegic.value.IntegerValue
529

@<SCITEGIC>MOL_PROPERTY
Conf_Id
SciTegic.value.IntegerValue
84

@<SCITEGIC>MOL_PROPERTY
Delta U+W
SciTegic.value.DoubleValue
0.942

@<SCITEGIC>MOL_PROPERTY
U+W
SciTegic.value.DoubleValue
-50.803

@<SCITEGIC>MOL_PROPERTY
Grad RMS
SciTegic.value.DoubleValue
0.000000

@<SCITEGIC>MOL_PROPERTY
U
SciTegic.value.DoubleValue
10.196

@<SCITEGIC>MOL_PROPERTY
W
SciTegic.value.DoubleValue
-60.999

@<SCITEGIC>MOL_PROPERTY
W(PB)
SciTegic.value.DoubleValue
-63.182

@<SCITEGIC>MOL_PROPERTY
W(SA)
SciTegic.value.DoubleValue
2.182

@<SCITEGIC>MOL_PROPERTY
Valence
SciTegic.value.DoubleValue
9.837

@<SCITEGIC>MOL_PROPERTY
Coulomb
SciTegic.value.DoubleValue
0.032

@<SCITEGIC>MOL_PROPERTY
VdW
SciTegic.value.DoubleValue
0.328

@<SCITEGIC>MOL_PROPERTY
VdW6
SciTegic.value.DoubleValue
-7.642

@<SCITEGIC>MOL_PROPERTY
VdW12
SciTegic.value.DoubleValue
7.969

@<SCITEGIC>MOL_PROPERTY
Bond
SciTegic.value.DoubleValue
0.151

@<SCITEGIC>MOL_PROPERTY
Angle
SciTegic.value.DoubleValue
2.748

@<SCITEGIC>MOL_PROPERTY
Pdih
SciTegic.value.DoubleValue
6.937

@<SCITEGIC>MOL_PROPERTY
Idih
SciTegic.value.DoubleValue
0.001

@<SCITEGIC>MOL_PROPERTY
Tether
SciTegic.value.DoubleValue
0.000

@<TRIPOS>MOLECULE
guest-s22_confgen4.mol2 : confsearch ligand conformer 530
          20          19           1
SMALL
USER_CHARGES
 
@<TRIPOS>ATOM
       1    C1      19.498810   19.772015   18.646929 C.2        1 MOL1        -0.2535
       2    H1      19.731780   20.455497   17.832166 H          1 MOL1         0.0845
       3    H2      19.763108   18.724258   18.513009 H          1 MOL1         0.0845
       4    C2      18.913940   20.206417   19.766253 C.2        1 MOL1        -0.1324
       5    H3      18.658288   21.259598   19.880653 H          1 MOL1         0.0833
       6    C3      18.559835   19.317598   20.937695 C.3        1 MOL1        -0.1813
       7    H4      18.610538   18.260764   20.642198 H          1 MOL1         0.0753
       8    H5      17.523268   19.510588   21.244886 H          1 MOL1         0.0753
       9    C4      19.507753   19.563231   22.130246 C.3        1 MOL1        -0.1855
      10    H6      20.543196   19.374543   21.814122 H          1 MOL1         0.0755
      11    H7      19.454517   20.619152   22.428984 H          1 MOL1         0.0755
      12    C5      19.156968   18.664555   23.337584 C.3        1 MOL1        -0.1855
      13    H8      19.222976   17.607036   23.046024 H          1 MOL1         0.0755
      14    H9      18.114983   18.846314   23.633898 H          1 MOL1         0.0755
      15    C6      20.078857   18.919093   24.558328 C.3        1 MOL1        -0.1958
      16    H10     20.044712   19.977185   24.844910 H          1 MOL1         0.0753
      17    H11     19.714631   18.345266   25.418582 H          1 MOL1         0.0753
      18    C7      21.534763   18.523147   24.329289 C.2        1 MOL1         0.6174
      19    O1      22.350518   19.406200   24.151155 O.co2      1 MOL1        -0.6695
      20    O2      21.816130   17.340955   24.348329 O.co2      1 MOL1        -0.6695
@<TRIPOS>BOND
    1     1     2    1
    2     1     3    1
    3     1     4    2
    4     4     5    1
    5     4     6    1
    6     6     7    1
    7     6     8    1
    8     6     9    1
    9     9    10    1
   10     9    11    1
   11     9    12    1
   12    12    13    1
   13    12    14    1
   14    12    15    1
   15    15    16    1
   16    15    17    1
   17    15    18    1
   18    18    19    1
   19    18    20    2
@<TRIPOS>SUBSTRUCTURE
       1 MOL1            1 RESIDUE      1      MOL     
@<SCITEGIC>MOL_PROPERTY
VConf Rank
SciTegic.value.IntegerValue
530

@<SCITEGIC>MOL_PROPERTY
Conf_Id
SciTegic.value.IntegerValue
81

@<SCITEGIC>MOL_PROPERTY
Delta U+W
SciTegic.value.DoubleValue
-0.051

@<SCITEGIC>MOL_PROPERTY
U+W
SciTegic.value.DoubleValue
-51.796

@<SCITEGIC>MOL_PROPERTY
Grad RMS
SciTegic.value.DoubleValue
0.000000

@<SCITEGIC>MOL_PROPERTY
U
SciTegic.value.DoubleValue
9.412

@<SCITEGIC>MOL_PROPERTY
W
SciTegic.value.DoubleValue
-61.209

@<SCITEGIC>MOL_PROPERTY
W(PB)
SciTegic.value.DoubleValue
-63.452

@<SCITEGIC>MOL_PROPERTY
W(SA)
SciTegic.value.DoubleValue
2.243

@<SCITEGIC>MOL_PROPERTY
Valence
SciTegic.value.DoubleValue
9.329

@<SCITEGIC>MOL_PROPERTY
Coulomb
SciTegic.value.DoubleValue
-0.323

@<SCITEGIC>MOL_PROPERTY
VdW
SciTegic.value.DoubleValue
0.406

@<SCITEGIC>MOL_PROPERTY
VdW6
SciTegic.value.DoubleValue
-6.640

@<SCITEGIC>MOL_PROPERTY
VdW12
SciTegic.value.DoubleValue
7.046

@<SCITEGIC>MOL_PROPERTY
Bond
SciTegic.value.DoubleValue
0.105

@<SCITEGIC>MOL_PROPERTY
Angle
SciTegic.value.DoubleValue
2.401

@<SCITEGIC>MOL_PROPERTY
Pdih
SciTegic.value.DoubleValue
6.823

@<SCITEGIC>MOL_PROPERTY
Idih
SciTegic.value.DoubleValue
0.000

@<SCITEGIC>MOL_PROPERTY
Tether
SciTegic.value.DoubleValue
0.000

@<TRIPOS>MOLECULE
guest-s22_confgen4.mol2 : confsearch ligand conformer 531
          20          19           1
SMALL
USER_CHARGES
 
@<TRIPOS>ATOM
       1    C1      18.722499   20.339549   19.192901 C.2        1 MOL1        -0.2535
       2    H1      17.684012   20.054112   19.033116 H          1 MOL1         0.0845
       3    H2      19.123194   21.140242   18.573644 H          1 MOL1         0.0845
       4    C2      19.477925   19.735393   20.113773 C.2        1 MOL1        -0.1324
       5    H3      20.515910   20.034623   20.256155 H          1 MOL1         0.0833
       6    C3      18.992185   18.613200   21.006111 C.3        1 MOL1        -0.1813
       7    H4      19.743012   17.813562   21.048178 H          1 MOL1         0.0753
       8    H5      18.093236   18.156652   20.570600 H          1 MOL1         0.0753
       9    C4      18.652530   19.099339   22.435450 C.3        1 MOL1        -0.1855
      10    H6      17.839094   19.835179   22.374664 H          1 MOL1         0.0755
      11    H7      18.255332   18.254006   23.013911 H          1 MOL1         0.0755
      12    C5      19.841108   19.731461   23.204733 C.3        1 MOL1        -0.1855
      13    H8      19.485569   20.064188   24.189652 H          1 MOL1         0.0755
      14    H9      20.176236   20.636790   22.681509 H          1 MOL1         0.0755
      15    C6      21.053165   18.781803   23.407855 C.3        1 MOL1        -0.1958
      16    H10     21.481116   18.489796   22.442127 H          1 MOL1         0.0753
      17    H11     21.844081   19.313515   23.949464 H          1 MOL1         0.0753
      18    C7      20.729001   17.519112   24.200996 C.2        1 MOL1         0.6174
      19    O1      20.697217   16.458495   23.608403 O.co2      1 MOL1        -0.6695
      20    O2      20.533806   17.628025   25.395775 O.co2      1 MOL1        -0.6695
@<TRIPOS>BOND
    1     1     2    1
    2     1     3    1
    3     1     4    2
    4     4     5    1
    5     4     6    1
    6     6     7    1
    7     6     8    1
    8     6     9    1
    9     9    10    1
   10     9    11    1
   11     9    12    1
   12    12    13    1
   13    12    14    1
   14    12    15    1
   15    15    16    1
   16    15    17    1
   17    15    18    1
   18    18    19    1
   19    18    20    2
@<TRIPOS>SUBSTRUCTURE
       1 MOL1            1 RESIDUE      1      MOL     
@<SCITEGIC>MOL_PROPERTY
VConf Rank
SciTegic.value.IntegerValue
531

@<SCITEGIC>MOL_PROPERTY
Conf_Id
SciTegic.value.IntegerValue
86

@<SCITEGIC>MOL_PROPERTY
Delta U+W
SciTegic.value.DoubleValue
1.248

@<SCITEGIC>MOL_PROPERTY
U+W
SciTegic.value.DoubleValue
-50.498

@<SCITEGIC>MOL_PROPERTY
Grad RMS
SciTegic.value.DoubleValue
0.000000

@<SCITEGIC>MOL_PROPERTY
U
SciTegic.value.DoubleValue
10.404

@<SCITEGIC>MOL_PROPERTY
W
SciTegic.value.DoubleValue
-60.901

@<SCITEGIC>MOL_PROPERTY
W(PB)
SciTegic.value.DoubleValue
-63.061

@<SCITEGIC>MOL_PROPERTY
W(SA)
SciTegic.value.DoubleValue
2.159

@<SCITEGIC>MOL_PROPERTY
Valence
SciTegic.value.DoubleValue
10.021

@<SCITEGIC>MOL_PROPERTY
Coulomb
SciTegic.value.DoubleValue
0.094

@<SCITEGIC>MOL_PROPERTY
VdW
SciTegic.value.DoubleValue
0.289

@<SCITEGIC>MOL_PROPERTY
VdW6
SciTegic.value.DoubleValue
-8.409

@<SCITEGIC>MOL_PROPERTY
VdW12
SciTegic.value.DoubleValue
8.698

@<SCITEGIC>MOL_PROPERTY
Bond
SciTegic.value.DoubleValue
0.179

@<SCITEGIC>MOL_PROPERTY
Angle
SciTegic.value.DoubleValue
2.939

@<SCITEGIC>MOL_PROPERTY
Pdih
SciTegic.value.DoubleValue
6.902

@<SCITEGIC>MOL_PROPERTY
Idih
SciTegic.value.DoubleValue
0.001

@<SCITEGIC>MOL_PROPERTY
Tether
SciTegic.value.DoubleValue
0.000

@<TRIPOS>MOLECULE
guest-s22_confgen4.mol2 : confsearch ligand conformer 532
          20          19           1
SMALL
USER_CHARGES
 
@<TRIPOS>ATOM
       1    C1      18.585517   16.676159   20.406970 C.2        1 MOL1        -0.2535
       2    H1      17.622328   16.377815   19.996652 H          1 MOL1         0.0845
       3    H2      19.421749   16.757779   19.714527 H          1 MOL1         0.0845
       4    C2      18.730835   16.934669   21.709306 C.2        1 MOL1        -0.1324
       5    H3      17.880439   16.849181   22.385256 H          1 MOL1         0.0833
       6    C3      20.036009   17.354244   22.351593 C.3        1 MOL1        -0.1813
       7    H4      20.872209   17.220477   21.651924 H          1 MOL1         0.0753
       8    H5      20.241131   16.698449   23.208143 H          1 MOL1         0.0753
       9    C4      20.003923   18.819190   22.842471 C.3        1 MOL1        -0.1855
      10    H6      19.165492   18.954804   23.539296 H          1 MOL1         0.0755
      11    H7      20.920812   19.019697   23.413542 H          1 MOL1         0.0755
      12    C5      19.890007   19.835410   21.681472 C.3        1 MOL1        -0.1855
      13    H8      18.970316   19.640455   21.113819 H          1 MOL1         0.0755
      14    H9      20.726645   19.696921   20.982753 H          1 MOL1         0.0755
      15    C6      19.869799   21.305405   22.175171 C.3        1 MOL1        -0.1958
      16    H10     19.665301   21.972776   21.329750 H          1 MOL1         0.0753
      17    H11     19.058132   21.450892   22.898226 H          1 MOL1         0.0753
      18    C7      21.178338   21.764137   22.812364 C.2        1 MOL1         0.6174
      19    O1      22.112719   22.021828   22.079113 O.co2      1 MOL1        -0.6695
      20    O2      21.226007   21.862869   24.022764 O.co2      1 MOL1        -0.6695
@<TRIPOS>BOND
    1     1     2    1
    2     1     3    1
    3     1     4    2
    4     4     5    1
    5     4     6    1
    6     6     7    1
    7     6     8    1
    8     6     9    1
    9     9    10    1
   10     9    11    1
   11     9    12    1
   12    12    13    1
   13    12    14    1
   14    12    15    1
   15    15    16    1
   16    15    17    1
   17    15    18    1
   18    18    19    1
   19    18    20    2
@<TRIPOS>SUBSTRUCTURE
       1 MOL1            1 RESIDUE      1      MOL     
@<SCITEGIC>MOL_PROPERTY
VConf Rank
SciTegic.value.IntegerValue
532

@<SCITEGIC>MOL_PROPERTY
Conf_Id
SciTegic.value.IntegerValue
28

@<SCITEGIC>MOL_PROPERTY
Delta U+W
SciTegic.value.DoubleValue
0.446

@<SCITEGIC>MOL_PROPERTY
U+W
SciTegic.value.DoubleValue
-51.299

@<SCITEGIC>MOL_PROPERTY
Grad RMS
SciTegic.value.DoubleValue
0.000000

@<SCITEGIC>MOL_PROPERTY
U
SciTegic.value.DoubleValue
9.295

@<SCITEGIC>MOL_PROPERTY
W
SciTegic.value.DoubleValue
-60.594

@<SCITEGIC>MOL_PROPERTY
W(PB)
SciTegic.value.DoubleValue
-62.806

@<SCITEGIC>MOL_PROPERTY
W(SA)
SciTegic.value.DoubleValue
2.212

@<SCITEGIC>MOL_PROPERTY
Valence
SciTegic.value.DoubleValue
9.495

@<SCITEGIC>MOL_PROPERTY
Coulomb
SciTegic.value.DoubleValue
-0.610

@<SCITEGIC>MOL_PROPERTY
VdW
SciTegic.value.DoubleValue
0.409

@<SCITEGIC>MOL_PROPERTY
VdW6
SciTegic.value.DoubleValue
-7.332

@<SCITEGIC>MOL_PROPERTY
VdW12
SciTegic.value.DoubleValue
7.741

@<SCITEGIC>MOL_PROPERTY
Bond
SciTegic.value.DoubleValue
0.126

@<SCITEGIC>MOL_PROPERTY
Angle
SciTegic.value.DoubleValue
2.497

@<SCITEGIC>MOL_PROPERTY
Pdih
SciTegic.value.DoubleValue
6.872

@<SCITEGIC>MOL_PROPERTY
Idih
SciTegic.value.DoubleValue
0.000

@<SCITEGIC>MOL_PROPERTY
Tether
SciTegic.value.DoubleValue
0.000

@<TRIPOS>MOLECULE
guest-s22_confgen4.mol2 : confsearch ligand conformer 533
          20          19           1
SMALL
USER_CHARGES
 
@<TRIPOS>ATOM
       1    C1      21.076324   18.920598   19.306888 C.2        1 MOL1        -0.2535
       2    H1      20.093691   19.369156   19.177576 H          1 MOL1         0.0845
       3    H2      21.709884   18.862357   18.423514 H          1 MOL1         0.0845
       4    C2      21.505838   18.460175   20.487356 C.2        1 MOL1        -0.1324
       5    H3      22.501844   18.023192   20.554875 H          1 MOL1         0.0833
       6    C3      20.740498   18.470536   21.800216 C.3        1 MOL1        -0.1813
       7    H4      21.296674   19.084428   22.520261 H          1 MOL1         0.0753
       8    H5      20.737789   17.453028   22.213042 H          1 MOL1         0.0753
       9    C4      19.280475   18.977620   21.701214 C.3        1 MOL1        -0.1855
      10    H6      19.275377   20.026227   21.373235 H          1 MOL1         0.0755
      11    H7      18.754042   18.403233   20.926849 H          1 MOL1         0.0755
      12    C5      18.488781   18.842774   23.025637 C.3        1 MOL1        -0.1855
      13    H8      18.455243   17.785451   23.321158 H          1 MOL1         0.0755
      14    H9      17.447516   19.144663   22.846642 H          1 MOL1         0.0755
      15    C6      19.054654   19.682815   24.203252 C.3        1 MOL1        -0.1958
      16    H10     18.440118   19.515927   25.095525 H          1 MOL1         0.0753
      17    H11     20.068595   19.356090   24.460294 H          1 MOL1         0.0753
      18    C7      19.076305   21.186428   23.943279 C.2        1 MOL1         0.6174
      19    O1      18.014637   21.777484   23.912228 O.co2      1 MOL1        -0.6695
      20    O2      20.153418   21.730562   23.799746 O.co2      1 MOL1        -0.6695
@<TRIPOS>BOND
    1     1     2    1
    2     1     3    1
    3     1     4    2
    4     4     5    1
    5     4     6    1
    6     6     7    1
    7     6     8    1
    8     6     9    1
    9     9    10    1
   10     9    11    1
   11     9    12    1
   12    12    13    1
   13    12    14    1
   14    12    15    1
   15    15    16    1
   16    15    17    1
   17    15    18    1
   18    18    19    1
   19    18    20    2
@<TRIPOS>SUBSTRUCTURE
       1 MOL1            1 RESIDUE      1      MOL     
@<SCITEGIC>MOL_PROPERTY
VConf Rank
SciTegic.value.IntegerValue
533

@<SCITEGIC>MOL_PROPERTY
Conf_Id
SciTegic.value.IntegerValue
53

@<SCITEGIC>MOL_PROPERTY
Delta U+W
SciTegic.value.DoubleValue
0.549

@<SCITEGIC>MOL_PROPERTY
U+W
SciTegic.value.DoubleValue
-51.197

@<SCITEGIC>MOL_PROPERTY
Grad RMS
SciTegic.value.DoubleValue
0.000000

@<SCITEGIC>MOL_PROPERTY
U
SciTegic.value.DoubleValue
10.870

@<SCITEGIC>MOL_PROPERTY
W
SciTegic.value.DoubleValue
-62.067

@<SCITEGIC>MOL_PROPERTY
W(PB)
SciTegic.value.DoubleValue
-64.228

@<SCITEGIC>MOL_PROPERTY
W(SA)
SciTegic.value.DoubleValue
2.161

@<SCITEGIC>MOL_PROPERTY
Valence
SciTegic.value.DoubleValue
8.803

@<SCITEGIC>MOL_PROPERTY
Coulomb
SciTegic.value.DoubleValue
1.020

@<SCITEGIC>MOL_PROPERTY
VdW
SciTegic.value.DoubleValue
1.048

@<SCITEGIC>MOL_PROPERTY
VdW6
SciTegic.value.DoubleValue
-8.312

@<SCITEGIC>MOL_PROPERTY
VdW12
SciTegic.value.DoubleValue
9.360

@<SCITEGIC>MOL_PROPERTY
Bond
SciTegic.value.DoubleValue
0.212

@<SCITEGIC>MOL_PROPERTY
Angle
SciTegic.value.DoubleValue
3.379

@<SCITEGIC>MOL_PROPERTY
Pdih
SciTegic.value.DoubleValue
5.211

@<SCITEGIC>MOL_PROPERTY
Idih
SciTegic.value.DoubleValue
0.001

@<SCITEGIC>MOL_PROPERTY
Tether
SciTegic.value.DoubleValue
0.000

@<TRIPOS>MOLECULE
guest-s22_confgen4.mol2 : confsearch ligand conformer 534
          20          19           1
SMALL
USER_CHARGES
 
@<TRIPOS>ATOM
       1    C1      17.164554   18.865367   23.269141 C.2        1 MOL1        -0.2535
       2    H1      17.423249   17.812250   23.354698 H          1 MOL1         0.0845
       3    H2      16.105863   19.110650   23.206424 H          1 MOL1         0.0845
       4    C2      18.093515   19.827241   23.247139 C.2        1 MOL1        -0.1324
       5    H3      17.780294   20.867480   23.162891 H          1 MOL1         0.0833
       6    C3      19.598639   19.629405   23.320306 C.3        1 MOL1        -0.1813
       7    H4      19.926736   19.804689   24.353277 H          1 MOL1         0.0753
       8    H5      20.091068   20.415665   22.733885 H          1 MOL1         0.0753
       9    C4      20.124171   18.249442   22.845656 C.3        1 MOL1        -0.1855
      10    H6      21.208417   18.210357   23.018052 H          1 MOL1         0.0755
      11    H7      19.697021   17.459341   23.477009 H          1 MOL1         0.0755
      12    C5      19.841566   17.923800   21.355372 C.3        1 MOL1        -0.1855
      13    H8      18.758072   17.887212   21.184325 H          1 MOL1         0.0755
      14    H9      20.218158   16.914746   21.138563 H          1 MOL1         0.0755
      15    C6      20.477470   18.918918   20.346567 C.3        1 MOL1        -0.1958
      16    H10     20.221724   18.612920   19.325526 H          1 MOL1         0.0753
      17    H11     20.061316   19.923690   20.481660 H          1 MOL1         0.0753
      18    C7      21.998873   19.003484   20.427857 C.2        1 MOL1         0.6174
      19    O1      22.496217   20.009541   20.894392 O.co2      1 MOL1        -0.6695
      20    O2      22.647646   18.066591   20.004971 O.co2      1 MOL1        -0.6695
@<TRIPOS>BOND
    1     1     2    1
    2     1     3    1
    3     1     4    2
    4     4     5    1
    5     4     6    1
    6     6     7    1
    7     6     8    1
    8     6     9    1
    9     9    10    1
   10     9    11    1
   11     9    12    1
   12    12    13    1
   13    12    14    1
   14    12    15    1
   15    15    16    1
   16    15    17    1
   17    15    18    1
   18    18    19    1
   19    18    20    2
@<TRIPOS>SUBSTRUCTURE
       1 MOL1            1 RESIDUE      1      MOL     
@<SCITEGIC>MOL_PROPERTY
VConf Rank
SciTegic.value.IntegerValue
534

@<SCITEGIC>MOL_PROPERTY
Conf_Id
SciTegic.value.IntegerValue
66

@<SCITEGIC>MOL_PROPERTY
Delta U+W
SciTegic.value.DoubleValue
1.737

@<SCITEGIC>MOL_PROPERTY
U+W
SciTegic.value.DoubleValue
-50.008

@<SCITEGIC>MOL_PROPERTY
Grad RMS
SciTegic.value.DoubleValue
0.000000

@<SCITEGIC>MOL_PROPERTY
U
SciTegic.value.DoubleValue
11.091

@<SCITEGIC>MOL_PROPERTY
W
SciTegic.value.DoubleValue
-61.099

@<SCITEGIC>MOL_PROPERTY
W(PB)
SciTegic.value.DoubleValue
-63.213

@<SCITEGIC>MOL_PROPERTY
W(SA)
SciTegic.value.DoubleValue
2.114

@<SCITEGIC>MOL_PROPERTY
Valence
SciTegic.value.DoubleValue
9.664

@<SCITEGIC>MOL_PROPERTY
Coulomb
SciTegic.value.DoubleValue
0.658

@<SCITEGIC>MOL_PROPERTY
VdW
SciTegic.value.DoubleValue
0.769

@<SCITEGIC>MOL_PROPERTY
VdW6
SciTegic.value.DoubleValue
-9.171

@<SCITEGIC>MOL_PROPERTY
VdW12
SciTegic.value.DoubleValue
9.940

@<SCITEGIC>MOL_PROPERTY
Bond
SciTegic.value.DoubleValue
0.244

@<SCITEGIC>MOL_PROPERTY
Angle
SciTegic.value.DoubleValue
3.658

@<SCITEGIC>MOL_PROPERTY
Pdih
SciTegic.value.DoubleValue
5.762

@<SCITEGIC>MOL_PROPERTY
Idih
SciTegic.value.DoubleValue
0.001

@<SCITEGIC>MOL_PROPERTY
Tether
SciTegic.value.DoubleValue
0.000

@<TRIPOS>MOLECULE
guest-s22_confgen4.mol2 : confsearch ligand conformer 535
          20          19           1
SMALL
USER_CHARGES
 
@<TRIPOS>ATOM
       1    C1      18.034046   16.873074   22.475058 C.2        1 MOL1        -0.2535
       2    H1      18.652096   16.918550   23.368998 H          1 MOL1         0.0845
       3    H2      17.010335   16.524712   22.599938 H          1 MOL1         0.0845
       4    C2      18.497264   17.220215   21.269321 C.2        1 MOL1        -0.1324
       5    H3      17.835093   17.152907   20.406569 H          1 MOL1         0.0833
       6    C3      19.894083   17.726629   20.948323 C.3        1 MOL1        -0.1813
       7    H4      19.827853   18.459194   20.134313 H          1 MOL1         0.0753
       8    H5      20.480069   16.896831   20.531624 H          1 MOL1         0.0753
       9    C4      20.675416   18.357113   22.130830 C.3        1 MOL1        -0.1855
      10    H6      20.796493   17.610789   22.926968 H          1 MOL1         0.0755
      11    H7      21.692676   18.596457   21.792414 H          1 MOL1         0.0755
      12    C5      20.034211   19.639032   22.720951 C.3        1 MOL1        -0.1855
      13    H8      20.617463   19.949485   23.598799 H          1 MOL1         0.0755
      14    H9      19.021302   19.423650   23.085948 H          1 MOL1         0.0755
      15    C6      19.977454   20.821328   21.719017 C.3        1 MOL1        -0.1958
      16    H10     20.974211   21.016840   21.306220 H          1 MOL1         0.0753
      17    H11     19.316713   20.581619   20.878301 H          1 MOL1         0.0753
      18    C7      19.469536   22.110006   22.355865 C.2        1 MOL1         0.6174
      19    O1      18.277131   22.340736   22.314790 O.co2      1 MOL1        -0.6695
      20    O2      20.278653   22.843212   22.889410 O.co2      1 MOL1        -0.6695
@<TRIPOS>BOND
    1     1     2    1
    2     1     3    1
    3     1     4    2
    4     4     5    1
    5     4     6    1
    6     6     7    1
    7     6     8    1
    8     6     9    1
    9     9    10    1
   10     9    11    1
   11     9    12    1
   12    12    13    1
   13    12    14    1
   14    12    15    1
   15    15    16    1
   16    15    17    1
   17    15    18    1
   18    18    19    1
   19    18    20    2
@<TRIPOS>SUBSTRUCTURE
       1 MOL1            1 RESIDUE      1      MOL     
@<SCITEGIC>MOL_PROPERTY
VConf Rank
SciTegic.value.IntegerValue
535

@<SCITEGIC>MOL_PROPERTY
Conf_Id
SciTegic.value.IntegerValue
64

@<SCITEGIC>MOL_PROPERTY
Delta U+W
SciTegic.value.DoubleValue
0.366

@<SCITEGIC>MOL_PROPERTY
U+W
SciTegic.value.DoubleValue
-51.379

@<SCITEGIC>MOL_PROPERTY
Grad RMS
SciTegic.value.DoubleValue
0.000000

@<SCITEGIC>MOL_PROPERTY
U
SciTegic.value.DoubleValue
10.000

@<SCITEGIC>MOL_PROPERTY
W
SciTegic.value.DoubleValue
-61.379

@<SCITEGIC>MOL_PROPERTY
W(PB)
SciTegic.value.DoubleValue
-63.541

@<SCITEGIC>MOL_PROPERTY
W(SA)
SciTegic.value.DoubleValue
2.162

@<SCITEGIC>MOL_PROPERTY
Valence
SciTegic.value.DoubleValue
9.398

@<SCITEGIC>MOL_PROPERTY
Coulomb
SciTegic.value.DoubleValue
-0.504

@<SCITEGIC>MOL_PROPERTY
VdW
SciTegic.value.DoubleValue
1.105

@<SCITEGIC>MOL_PROPERTY
VdW6
SciTegic.value.DoubleValue
-7.975

@<SCITEGIC>MOL_PROPERTY
VdW12
SciTegic.value.DoubleValue
9.080

@<SCITEGIC>MOL_PROPERTY
Bond
SciTegic.value.DoubleValue
0.216

@<SCITEGIC>MOL_PROPERTY
Angle
SciTegic.value.DoubleValue
3.417

@<SCITEGIC>MOL_PROPERTY
Pdih
SciTegic.value.DoubleValue
5.765

@<SCITEGIC>MOL_PROPERTY
Idih
SciTegic.value.DoubleValue
0.001

@<SCITEGIC>MOL_PROPERTY
Tether
SciTegic.value.DoubleValue
0.000

@<TRIPOS>MOLECULE
guest-s22_confgen4.mol2 : confsearch ligand conformer 536
          20          19           1
SMALL
USER_CHARGES
 
@<TRIPOS>ATOM
       1    C1      17.301212   20.432292   21.507897 C.2        1 MOL1        -0.2535
       2    H1      16.945037   19.488230   21.098867 H          1 MOL1         0.0845
       3    H2      16.998072   21.345364   20.998476 H          1 MOL1         0.0845
       4    C2      18.083158   20.472630   22.590000 C.2        1 MOL1        -0.1324
       5    H3      18.430901   21.428049   22.981972 H          1 MOL1         0.0833
       6    C3      18.545713   19.247621   23.349851 C.3        1 MOL1        -0.1813
       7    H4      17.994226   18.356790   23.019765 H          1 MOL1         0.0753
       8    H5      18.314257   19.377831   24.415364 H          1 MOL1         0.0753
       9    C4      20.063450   19.001212   23.195907 C.3        1 MOL1        -0.1855
      10    H6      20.614903   19.892500   23.525435 H          1 MOL1         0.0755
      11    H7      20.359580   18.182488   23.865893 H          1 MOL1         0.0755
      12    C5      20.465457   18.642591   21.746989 C.3        1 MOL1        -0.1855
      13    H8      20.198546   19.465871   21.070086 H          1 MOL1         0.0755
      14    H9      19.900283   17.761297   21.413542 H          1 MOL1         0.0755
      15    C6      21.982147   18.355270   21.624037 C.3        1 MOL1        -0.1958
      16    H10     22.560078   19.231378   21.941872 H          1 MOL1         0.0753
      17    H11     22.264915   17.524088   22.281048 H          1 MOL1         0.0753
      18    C7      22.403746   17.999212   20.202920 C.2        1 MOL1         0.6174
      19    O1      22.353572   16.832983   19.865072 O.co2      1 MOL1        -0.6695
      20    O2      22.757875   18.898916   19.466839 O.co2      1 MOL1        -0.6695
@<TRIPOS>BOND
    1     1     2    1
    2     1     3    1
    3     1     4    2
    4     4     5    1
    5     4     6    1
    6     6     7    1
    7     6     8    1
    8     6     9    1
    9     9    10    1
   10     9    11    1
   11     9    12    1
   12    12    13    1
   13    12    14    1
   14    12    15    1
   15    15    16    1
   16    15    17    1
   17    15    18    1
   18    18    19    1
   19    18    20    2
@<TRIPOS>SUBSTRUCTURE
       1 MOL1            1 RESIDUE      1      MOL     
@<SCITEGIC>MOL_PROPERTY
VConf Rank
SciTegic.value.IntegerValue
536

@<SCITEGIC>MOL_PROPERTY
Conf_Id
SciTegic.value.IntegerValue
42

@<SCITEGIC>MOL_PROPERTY
Delta U+W
SciTegic.value.DoubleValue
-0.601

@<SCITEGIC>MOL_PROPERTY
U+W
SciTegic.value.DoubleValue
-52.347

@<SCITEGIC>MOL_PROPERTY
Grad RMS
SciTegic.value.DoubleValue
0.000000

@<SCITEGIC>MOL_PROPERTY
U
SciTegic.value.DoubleValue
8.428

@<SCITEGIC>MOL_PROPERTY
W
SciTegic.value.DoubleValue
-60.774

@<SCITEGIC>MOL_PROPERTY
W(PB)
SciTegic.value.DoubleValue
-62.982

@<SCITEGIC>MOL_PROPERTY
W(SA)
SciTegic.value.DoubleValue
2.208

@<SCITEGIC>MOL_PROPERTY
Valence
SciTegic.value.DoubleValue
9.231

@<SCITEGIC>MOL_PROPERTY
Coulomb
SciTegic.value.DoubleValue
-1.304

@<SCITEGIC>MOL_PROPERTY
VdW
SciTegic.value.DoubleValue
0.501

@<SCITEGIC>MOL_PROPERTY
VdW6
SciTegic.value.DoubleValue
-6.515

@<SCITEGIC>MOL_PROPERTY
VdW12
SciTegic.value.DoubleValue
7.016

@<SCITEGIC>MOL_PROPERTY
Bond
SciTegic.value.DoubleValue
0.103

@<SCITEGIC>MOL_PROPERTY
Angle
SciTegic.value.DoubleValue
2.328

@<SCITEGIC>MOL_PROPERTY
Pdih
SciTegic.value.DoubleValue
6.799

@<SCITEGIC>MOL_PROPERTY
Idih
SciTegic.value.DoubleValue
0.000

@<SCITEGIC>MOL_PROPERTY
Tether
SciTegic.value.DoubleValue
0.000

@<TRIPOS>MOLECULE
guest-s22_confgen4.mol2 : confsearch ligand conformer 537
          20          19           1
SMALL
USER_CHARGES
 
@<TRIPOS>ATOM
       1    C1      22.019976   18.147753   23.625629 C.2        1 MOL1        -0.2535
       2    H1      22.546626   17.801056   22.738028 H          1 MOL1         0.0845
       3    H2      22.082889   17.529291   24.519297 H          1 MOL1         0.0845
       4    C2      21.319511   19.285010   23.621191 C.2        1 MOL1        -0.1324
       5    H3      20.797127   19.612790   24.519568 H          1 MOL1         0.0833
       6    C3      21.184952   20.195054   22.418853 C.3        1 MOL1        -0.1813
       7    H4      21.889882   19.900127   21.629738 H          1 MOL1         0.0753
       8    H5      21.457165   21.218026   22.710811 H          1 MOL1         0.0753
       9    C4      19.748089   20.205064   21.850273 C.3        1 MOL1        -0.1855
      10    H6      19.045511   20.506853   22.639352 H          1 MOL1         0.0755
      11    H7      19.682288   20.969273   21.063891 H          1 MOL1         0.0755
      12    C5      19.328296   18.835882   21.265136 C.3        1 MOL1        -0.1855
      13    H8      19.349198   18.069109   22.051887 H          1 MOL1         0.0755
      14    H9      20.059186   18.527744   20.505476 H          1 MOL1         0.0755
      15    C6      17.917131   18.869627   20.623033 C.3        1 MOL1        -0.1958
      16    H10     17.870394   19.646583   19.850452 H          1 MOL1         0.0753
      17    H11     17.718802   17.913656   20.124258 H          1 MOL1         0.0753
      18    C7      16.787705   19.107395   21.621368 C.2        1 MOL1         0.6174
      19    O1      16.288543   20.214334   21.673215 O.co2      1 MOL1        -0.6695
      20    O2      16.424700   18.172927   22.308459 O.co2      1 MOL1        -0.6695
@<TRIPOS>BOND
    1     1     2    1
    2     1     3    1
    3     1     4    2
    4     4     5    1
    5     4     6    1
    6     6     7    1
    7     6     8    1
    8     6     9    1
    9     9    10    1
   10     9    11    1
   11     9    12    1
   12    12    13    1
   13    12    14    1
   14    12    15    1
   15    15    16    1
   16    15    17    1
   17    15    18    1
   18    18    19    1
   19    18    20    2
@<TRIPOS>SUBSTRUCTURE
       1 MOL1            1 RESIDUE      1      MOL     
@<SCITEGIC>MOL_PROPERTY
VConf Rank
SciTegic.value.IntegerValue
537

@<SCITEGIC>MOL_PROPERTY
Conf_Id
SciTegic.value.IntegerValue
68

@<SCITEGIC>MOL_PROPERTY
Delta U+W
SciTegic.value.DoubleValue
0.492

@<SCITEGIC>MOL_PROPERTY
U+W
SciTegic.value.DoubleValue
-51.253

@<SCITEGIC>MOL_PROPERTY
Grad RMS
SciTegic.value.DoubleValue
0.000000

@<SCITEGIC>MOL_PROPERTY
U
SciTegic.value.DoubleValue
10.179

@<SCITEGIC>MOL_PROPERTY
W
SciTegic.value.DoubleValue
-61.432

@<SCITEGIC>MOL_PROPERTY
W(PB)
SciTegic.value.DoubleValue
-63.627

@<SCITEGIC>MOL_PROPERTY
W(SA)
SciTegic.value.DoubleValue
2.195

@<SCITEGIC>MOL_PROPERTY
Valence
SciTegic.value.DoubleValue
9.483

@<SCITEGIC>MOL_PROPERTY
Coulomb
SciTegic.value.DoubleValue
0.361

@<SCITEGIC>MOL_PROPERTY
VdW
SciTegic.value.DoubleValue
0.335

@<SCITEGIC>MOL_PROPERTY
VdW6
SciTegic.value.DoubleValue
-7.385

@<SCITEGIC>MOL_PROPERTY
VdW12
SciTegic.value.DoubleValue
7.720

@<SCITEGIC>MOL_PROPERTY
Bond
SciTegic.value.DoubleValue
0.125

@<SCITEGIC>MOL_PROPERTY
Angle
SciTegic.value.DoubleValue
2.487

@<SCITEGIC>MOL_PROPERTY
Pdih
SciTegic.value.DoubleValue
6.870

@<SCITEGIC>MOL_PROPERTY
Idih
SciTegic.value.DoubleValue
0.001

@<SCITEGIC>MOL_PROPERTY
Tether
SciTegic.value.DoubleValue
0.000

@<TRIPOS>MOLECULE
guest-s22_confgen4.mol2 : confsearch ligand conformer 538
          20          19           1
SMALL
USER_CHARGES
 
@<TRIPOS>ATOM
       1    C1      19.981959   20.133624   25.146206 C.2        1 MOL1        -0.2535
       2    H1      19.842858   21.212413   25.097668 H          1 MOL1         0.0845
       3    H2      20.655036   19.749016   25.910550 H          1 MOL1         0.0845
       4    C2      19.355915   19.310988   24.300609 C.2        1 MOL1        -0.1324
       5    H3      19.507309   18.234084   24.368457 H          1 MOL1         0.0833
       6    C3      18.403090   19.772415   23.218486 C.3        1 MOL1        -0.1813
       7    H4      18.050898   20.788235   23.443408 H          1 MOL1         0.0753
       8    H5      17.510392   19.132893   23.208516 H          1 MOL1         0.0753
       9    C4      19.059024   19.774493   21.819226 C.3        1 MOL1        -0.1855
      10    H6      18.366461   20.238830   21.104039 H          1 MOL1         0.0755
      11    H7      19.957508   20.406861   21.840105 H          1 MOL1         0.0755
      12    C5      19.423844   18.354902   21.323848 C.3        1 MOL1        -0.1855
      13    H8      18.528702   17.719215   21.354378 H          1 MOL1         0.0755
      14    H9      20.160077   17.898185   21.999264 H          1 MOL1         0.0755
      15    C6      19.991181   18.356093   19.880594 C.3        1 MOL1        -0.1958
      16    H10     20.122724   17.323017   19.537876 H          1 MOL1         0.0753
      17    H11     19.279814   18.830243   19.193642 H          1 MOL1         0.0753
      18    C7      21.339683   19.057601   19.745438 C.2        1 MOL1         0.6174
      19    O1      22.333543   18.463028   20.113990 O.co2      1 MOL1        -0.6695
      20    O2      21.363455   20.170654   19.257920 O.co2      1 MOL1        -0.6695
@<TRIPOS>BOND
    1     1     2    1
    2     1     3    1
    3     1     4    2
    4     4     5    1
    5     4     6    1
    6     6     7    1
    7     6     8    1
    8     6     9    1
    9     9    10    1
   10     9    11    1
   11     9    12    1
   12    12    13    1
   13    12    14    1
   14    12    15    1
   15    15    16    1
   16    15    17    1
   17    15    18    1
   18    18    19    1
   19    18    20    2
@<TRIPOS>SUBSTRUCTURE
       1 MOL1            1 RESIDUE      1      MOL     
@<SCITEGIC>MOL_PROPERTY
VConf Rank
SciTegic.value.IntegerValue
538

@<SCITEGIC>MOL_PROPERTY
Conf_Id
SciTegic.value.IntegerValue
87

@<SCITEGIC>MOL_PROPERTY
Delta U+W
SciTegic.value.DoubleValue
0.339

@<SCITEGIC>MOL_PROPERTY
U+W
SciTegic.value.DoubleValue
-51.407

@<SCITEGIC>MOL_PROPERTY
Grad RMS
SciTegic.value.DoubleValue
0.000000

@<SCITEGIC>MOL_PROPERTY
U
SciTegic.value.DoubleValue
10.461

@<SCITEGIC>MOL_PROPERTY
W
SciTegic.value.DoubleValue
-61.867

@<SCITEGIC>MOL_PROPERTY
W(PB)
SciTegic.value.DoubleValue
-64.045

@<SCITEGIC>MOL_PROPERTY
W(SA)
SciTegic.value.DoubleValue
2.178

@<SCITEGIC>MOL_PROPERTY
Valence
SciTegic.value.DoubleValue
9.555

@<SCITEGIC>MOL_PROPERTY
Coulomb
SciTegic.value.DoubleValue
0.483

@<SCITEGIC>MOL_PROPERTY
VdW
SciTegic.value.DoubleValue
0.423

@<SCITEGIC>MOL_PROPERTY
VdW6
SciTegic.value.DoubleValue
-7.223

@<SCITEGIC>MOL_PROPERTY
VdW12
SciTegic.value.DoubleValue
7.646

@<SCITEGIC>MOL_PROPERTY
Bond
SciTegic.value.DoubleValue
0.126

@<SCITEGIC>MOL_PROPERTY
Angle
SciTegic.value.DoubleValue
2.492

@<SCITEGIC>MOL_PROPERTY
Pdih
SciTegic.value.DoubleValue
6.936

@<SCITEGIC>MOL_PROPERTY
Idih
SciTegic.value.DoubleValue
0.001

@<SCITEGIC>MOL_PROPERTY
Tether
SciTegic.value.DoubleValue
0.000

@<TRIPOS>MOLECULE
guest-s22_confgen4.mol2 : confsearch ligand conformer 539
          20          19           1
SMALL
USER_CHARGES
 
@<TRIPOS>ATOM
       1    C1      19.358302   16.186760   21.260034 C.2        1 MOL1        -0.2535
       2    H1      20.348619   15.948937   20.875159 H          1 MOL1         0.0845
       3    H2      18.838884   15.412882   21.822473 H          1 MOL1         0.0845
       4    C2      18.800900   17.382697   21.053274 C.2        1 MOL1        -0.1324
       5    H3      17.805124   17.598707   21.438708 H          1 MOL1         0.0833
       6    C3      19.459392   18.498957   20.270996 C.3        1 MOL1        -0.1813
       7    H4      18.706774   19.226974   19.940097 H          1 MOL1         0.0753
       8    H5      19.887164   18.074638   19.352643 H          1 MOL1         0.0753
       9    C4      20.587503   19.219620   21.050210 C.3        1 MOL1        -0.1855
      10    H6      21.237405   18.481087   21.539223 H          1 MOL1         0.0755
      11    H7      21.221081   19.741492   20.320168 H          1 MOL1         0.0755
      12    C5      20.100754   20.266995   22.083255 C.3        1 MOL1        -0.1855
      13    H8      19.440143   20.995611   21.593612 H          1 MOL1         0.0755
      14    H9      20.973597   20.832999   22.437196 H          1 MOL1         0.0755
      15    C6      19.380900   19.660220   23.314879 C.3        1 MOL1        -0.1958
      16    H10     18.425690   19.213770   23.021048 H          1 MOL1         0.0753
      17    H11     19.991769   18.864719   23.757983 H          1 MOL1         0.0753
      18    C7      19.090522   20.693931   24.396893 C.2        1 MOL1         0.6174
      19    O1      18.045288   21.310901   24.335876 O.co2      1 MOL1        -0.6695
      20    O2      19.926543   20.870413   25.261071 O.co2      1 MOL1        -0.6695
@<TRIPOS>BOND
    1     1     2    1
    2     1     3    1
    3     1     4    2
    4     4     5    1
    5     4     6    1
    6     6     7    1
    7     6     8    1
    8     6     9    1
    9     9    10    1
   10     9    11    1
   11     9    12    1
   12    12    13    1
   13    12    14    1
   14    12    15    1
   15    15    16    1
   16    15    17    1
   17    15    18    1
   18    18    19    1
   19    18    20    2
@<TRIPOS>SUBSTRUCTURE
       1 MOL1            1 RESIDUE      1      MOL     
@<SCITEGIC>MOL_PROPERTY
VConf Rank
SciTegic.value.IntegerValue
539

@<SCITEGIC>MOL_PROPERTY
Conf_Id
SciTegic.value.IntegerValue
51

@<SCITEGIC>MOL_PROPERTY
Delta U+W
SciTegic.value.DoubleValue
1.709

@<SCITEGIC>MOL_PROPERTY
U+W
SciTegic.value.DoubleValue
-50.036

@<SCITEGIC>MOL_PROPERTY
Grad RMS
SciTegic.value.DoubleValue
0.000000

@<SCITEGIC>MOL_PROPERTY
U
SciTegic.value.DoubleValue
10.643

@<SCITEGIC>MOL_PROPERTY
W
SciTegic.value.DoubleValue
-60.679

@<SCITEGIC>MOL_PROPERTY
W(PB)
SciTegic.value.DoubleValue
-62.882

@<SCITEGIC>MOL_PROPERTY
W(SA)
SciTegic.value.DoubleValue
2.203

@<SCITEGIC>MOL_PROPERTY
Valence
SciTegic.value.DoubleValue
11.231

@<SCITEGIC>MOL_PROPERTY
Coulomb
SciTegic.value.DoubleValue
-1.077

@<SCITEGIC>MOL_PROPERTY
VdW
SciTegic.value.DoubleValue
0.489

@<SCITEGIC>MOL_PROPERTY
VdW6
SciTegic.value.DoubleValue
-7.546

@<SCITEGIC>MOL_PROPERTY
VdW12
SciTegic.value.DoubleValue
8.035

@<SCITEGIC>MOL_PROPERTY
Bond
SciTegic.value.DoubleValue
0.159

@<SCITEGIC>MOL_PROPERTY
Angle
SciTegic.value.DoubleValue
3.005

@<SCITEGIC>MOL_PROPERTY
Pdih
SciTegic.value.DoubleValue
8.065

@<SCITEGIC>MOL_PROPERTY
Idih
SciTegic.value.DoubleValue
0.002

@<SCITEGIC>MOL_PROPERTY
Tether
SciTegic.value.DoubleValue
0.000

@<TRIPOS>MOLECULE
guest-s22_confgen4.mol2 : confsearch ligand conformer 540
          20          19           1
SMALL
USER_CHARGES
 
@<TRIPOS>ATOM
       1    C1      22.325877   18.303285   21.909720 C.2        1 MOL1        -0.2535
       2    H1      22.758112   18.940735   21.140143 H          1 MOL1         0.0845
       3    H2      22.703366   17.285336   21.989098 H          1 MOL1         0.0845
       4    C2      21.366944   18.750248   22.724818 C.2        1 MOL1        -0.1324
       5    H3      20.953172   18.099998   23.494729 H          1 MOL1         0.0833
       6    C3      20.804777   20.155054   22.679100 C.3        1 MOL1        -0.1813
       7    H4      21.641293   20.861801   22.594509 H          1 MOL1         0.0753
       8    H5      20.306005   20.396248   23.627250 H          1 MOL1         0.0753
       9    C4      19.836684   20.396664   21.494367 C.3        1 MOL1        -0.1855
      10    H6      19.764546   21.480995   21.333870 H          1 MOL1         0.0755
      11    H7      20.263327   19.983319   20.570218 H          1 MOL1         0.0755
      12    C5      18.399754   19.856426   21.705271 C.3        1 MOL1        -0.1855
      13    H8      17.765655   20.238283   20.893118 H          1 MOL1         0.0755
      14    H9      17.981687   20.260731   22.637362 H          1 MOL1         0.0755
      15    C6      18.296223   18.309696   21.718608 C.3        1 MOL1        -0.1958
      16    H10     18.793652   17.888202   20.837002 H          1 MOL1         0.0753
      17    H11     18.793568   17.898288   22.602619 H          1 MOL1         0.0753
      18    C7      16.854403   17.815117   21.731658 C.2        1 MOL1         0.6174
      19    O1      16.308699   17.664624   22.807040 O.co2      1 MOL1        -0.6695
      20    O2      16.307500   17.612730   20.665441 O.co2      1 MOL1        -0.6695
@<TRIPOS>BOND
    1     1     2    1
    2     1     3    1
    3     1     4    2
    4     4     5    1
    5     4     6    1
    6     6     7    1
    7     6     8    1
    8     6     9    1
    9     9    10    1
   10     9    11    1
   11     9    12    1
   12    12    13    1
   13    12    14    1
   14    12    15    1
   15    15    16    1
   16    15    17    1
   17    15    18    1
   18    18    19    1
   19    18    20    2
@<TRIPOS>SUBSTRUCTURE
       1 MOL1            1 RESIDUE      1      MOL     
@<SCITEGIC>MOL_PROPERTY
VConf Rank
SciTegic.value.IntegerValue
540

@<SCITEGIC>MOL_PROPERTY
Conf_Id
SciTegic.value.IntegerValue
91

@<SCITEGIC>MOL_PROPERTY
Delta U+W
SciTegic.value.DoubleValue
1.604

@<SCITEGIC>MOL_PROPERTY
U+W
SciTegic.value.DoubleValue
-50.141

@<SCITEGIC>MOL_PROPERTY
Grad RMS
SciTegic.value.DoubleValue
0.000000

@<SCITEGIC>MOL_PROPERTY
U
SciTegic.value.DoubleValue
10.644

@<SCITEGIC>MOL_PROPERTY
W
SciTegic.value.DoubleValue
-60.786

@<SCITEGIC>MOL_PROPERTY
W(PB)
SciTegic.value.DoubleValue
-62.965

@<SCITEGIC>MOL_PROPERTY
W(SA)
SciTegic.value.DoubleValue
2.179

@<SCITEGIC>MOL_PROPERTY
Valence
SciTegic.value.DoubleValue
11.230

@<SCITEGIC>MOL_PROPERTY
Coulomb
SciTegic.value.DoubleValue
-1.075

@<SCITEGIC>MOL_PROPERTY
VdW
SciTegic.value.DoubleValue
0.489

@<SCITEGIC>MOL_PROPERTY
VdW6
SciTegic.value.DoubleValue
-7.547

@<SCITEGIC>MOL_PROPERTY
VdW12
SciTegic.value.DoubleValue
8.036

@<SCITEGIC>MOL_PROPERTY
Bond
SciTegic.value.DoubleValue
0.159

@<SCITEGIC>MOL_PROPERTY
Angle
SciTegic.value.DoubleValue
3.006

@<SCITEGIC>MOL_PROPERTY
Pdih
SciTegic.value.DoubleValue
8.064

@<SCITEGIC>MOL_PROPERTY
Idih
SciTegic.value.DoubleValue
0.002

@<SCITEGIC>MOL_PROPERTY
Tether
SciTegic.value.DoubleValue
0.000

@<TRIPOS>MOLECULE
guest-s22_confgen4.mol2 : confsearch ligand conformer 541
          20          19           1
SMALL
USER_CHARGES
 
@<TRIPOS>ATOM
       1    C1      18.048382   17.898807   18.832575 C.2        1 MOL1        -0.2535
       2    H1      18.938913   17.331238   18.567225 H          1 MOL1         0.0845
       3    H2      17.348386   18.135298   18.032978 H          1 MOL1         0.0845
       4    C2      17.821036   18.293597   20.088005 C.2        1 MOL1        -0.1324
       5    H3      16.923647   18.861592   20.332407 H          1 MOL1         0.0833
       6    C3      18.745638   18.002033   21.248928 C.3        1 MOL1        -0.1813
       7    H4      19.468119   17.221821   20.973071 H          1 MOL1         0.0753
       8    H5      18.163139   17.608940   22.092917 H          1 MOL1         0.0753
       9    C4      19.503692   19.271599   21.689868 C.3        1 MOL1        -0.1855
      10    H6      20.081279   19.663039   20.841013 H          1 MOL1         0.0755
      11    H7      18.780742   20.050071   21.970022 H          1 MOL1         0.0755
      12    C5      20.450899   18.992173   22.877232 C.3        1 MOL1        -0.1855
      13    H8      21.174614   18.213976   22.597609 H          1 MOL1         0.0755
      14    H9      19.874019   18.599496   23.726077 H          1 MOL1         0.0755
      15    C6      21.213651   20.269137   23.319918 C.3        1 MOL1        -0.1958
      16    H10     21.796749   20.662828   22.479135 H          1 MOL1         0.0753
      17    H11     20.497467   21.048118   23.606586 H          1 MOL1         0.0753
      18    C7      22.176073   20.080279   24.493542 C.2        1 MOL1         0.6174
      19    O1      22.790611   21.058577   24.869592 O.co2      1 MOL1        -0.6695
      20    O2      22.296017   18.983320   25.004367 O.co2      1 MOL1        -0.6695
@<TRIPOS>BOND
    1     1     2    1
    2     1     3    1
    3     1     4    2
    4     4     5    1
    5     4     6    1
    6     6     7    1
    7     6     8    1
    8     6     9    1
    9     9    10    1
   10     9    11    1
   11     9    12    1
   12    12    13    1
   13    12    14    1
   14    12    15    1
   15    15    16    1
   16    15    17    1
   17    15    18    1
   18    18    19    1
   19    18    20    2
@<TRIPOS>SUBSTRUCTURE
       1 MOL1            1 RESIDUE      1      MOL     
@<SCITEGIC>MOL_PROPERTY
VConf Rank
SciTegic.value.IntegerValue
541

@<SCITEGIC>MOL_PROPERTY
Conf_Id
SciTegic.value.IntegerValue
33

@<SCITEGIC>MOL_PROPERTY
Delta U+W
SciTegic.value.DoubleValue
0.000

@<SCITEGIC>MOL_PROPERTY
U+W
SciTegic.value.DoubleValue
-51.745

@<SCITEGIC>MOL_PROPERTY
Grad RMS
SciTegic.value.DoubleValue
0.000000

@<SCITEGIC>MOL_PROPERTY
U
SciTegic.value.DoubleValue
7.593

@<SCITEGIC>MOL_PROPERTY
W
SciTegic.value.DoubleValue
-59.338

@<SCITEGIC>MOL_PROPERTY
W(PB)
SciTegic.value.DoubleValue
-61.574

@<SCITEGIC>MOL_PROPERTY
W(SA)
SciTegic.value.DoubleValue
2.236

@<SCITEGIC>MOL_PROPERTY
Valence
SciTegic.value.DoubleValue
9.570

@<SCITEGIC>MOL_PROPERTY
Coulomb
SciTegic.value.DoubleValue
-3.091

@<SCITEGIC>MOL_PROPERTY
VdW
SciTegic.value.DoubleValue
1.114

@<SCITEGIC>MOL_PROPERTY
VdW6
SciTegic.value.DoubleValue
-6.064

@<SCITEGIC>MOL_PROPERTY
VdW12
SciTegic.value.DoubleValue
7.178

@<SCITEGIC>MOL_PROPERTY
Bond
SciTegic.value.DoubleValue
0.117

@<SCITEGIC>MOL_PROPERTY
Angle
SciTegic.value.DoubleValue
2.692

@<SCITEGIC>MOL_PROPERTY
Pdih
SciTegic.value.DoubleValue
6.761

@<SCITEGIC>MOL_PROPERTY
Idih
SciTegic.value.DoubleValue
0.000

@<SCITEGIC>MOL_PROPERTY
Tether
SciTegic.value.DoubleValue
0.000

@<TRIPOS>MOLECULE
guest-s22_confgen4.mol2 : confsearch ligand conformer 542
          20          19           1
SMALL
USER_CHARGES
 
@<TRIPOS>ATOM
       1    C1      17.874281   22.107852   22.271977 C.2        1 MOL1        -0.2535
       2    H1      16.965617   21.599101   21.954045 H          1 MOL1         0.0845
       3    H2      17.838152   23.192798   22.354715 H          1 MOL1         0.0845
       4    C2      18.992287   21.431510   22.548202 C.2        1 MOL1        -0.1324
       5    H3      19.891473   21.959997   22.864109 H          1 MOL1         0.0833
       6    C3      19.117544   19.926955   22.456832 C.3        1 MOL1        -0.1813
       7    H4      18.122557   19.466666   22.388043 H          1 MOL1         0.0753
       8    H5      19.579800   19.547807   23.376949 H          1 MOL1         0.0753
       9    C4      19.961404   19.514025   21.229966 C.3        1 MOL1        -0.1855
      10    H6      19.527916   19.974781   20.331561 H          1 MOL1         0.0755
      11    H7      20.977729   19.919837   21.326887 H          1 MOL1         0.0755
      12    C5      20.030248   17.983251   21.015087 C.3        1 MOL1        -0.1855
      13    H8      20.548462   17.783678   20.066868 H          1 MOL1         0.0755
      14    H9      19.014987   17.577729   20.904677 H          1 MOL1         0.0755
      15    C6      20.767445   17.230979   22.153332 C.3        1 MOL1        -0.1958
      16    H10     21.767526   17.655405   22.301937 H          1 MOL1         0.0753
      17    H11     20.225408   17.334996   23.099968 H          1 MOL1         0.0753
      18    C7      20.923442   15.741204   21.870131 C.2        1 MOL1         0.6174
      19    O1      20.035861   14.992845   22.229115 O.co2      1 MOL1        -0.6695
      20    O2      21.919226   15.370633   21.280364 O.co2      1 MOL1        -0.6695
@<TRIPOS>BOND
    1     1     2    1
    2     1     3    1
    3     1     4    2
    4     4     5    1
    5     4     6    1
    6     6     7    1
    7     6     8    1
    8     6     9    1
    9     9    10    1
   10     9    11    1
   11     9    12    1
   12    12    13    1
   13    12    14    1
   14    12    15    1
   15    15    16    1
   16    15    17    1
   17    15    18    1
   18    18    19    1
   19    18    20    2
@<TRIPOS>SUBSTRUCTURE
       1 MOL1            1 RESIDUE      1      MOL     
@<SCITEGIC>MOL_PROPERTY
VConf Rank
SciTegic.value.IntegerValue
542

@<SCITEGIC>MOL_PROPERTY
Conf_Id
SciTegic.value.IntegerValue
37

@<SCITEGIC>MOL_PROPERTY
Delta U+W
SciTegic.value.DoubleValue
-0.384

@<SCITEGIC>MOL_PROPERTY
U+W
SciTegic.value.DoubleValue
-52.130

@<SCITEGIC>MOL_PROPERTY
Grad RMS
SciTegic.value.DoubleValue
0.000000

@<SCITEGIC>MOL_PROPERTY
U
SciTegic.value.DoubleValue
7.491

@<SCITEGIC>MOL_PROPERTY
W
SciTegic.value.DoubleValue
-59.621

@<SCITEGIC>MOL_PROPERTY
W(PB)
SciTegic.value.DoubleValue
-61.853

@<SCITEGIC>MOL_PROPERTY
W(SA)
SciTegic.value.DoubleValue
2.232

@<SCITEGIC>MOL_PROPERTY
Valence
SciTegic.value.DoubleValue
9.604

@<SCITEGIC>MOL_PROPERTY
Coulomb
SciTegic.value.DoubleValue
-2.799

@<SCITEGIC>MOL_PROPERTY
VdW
SciTegic.value.DoubleValue
0.686

@<SCITEGIC>MOL_PROPERTY
VdW6
SciTegic.value.DoubleValue
-6.435

@<SCITEGIC>MOL_PROPERTY
VdW12
SciTegic.value.DoubleValue
7.121

@<SCITEGIC>MOL_PROPERTY
Bond
SciTegic.value.DoubleValue
0.124

@<SCITEGIC>MOL_PROPERTY
Angle
SciTegic.value.DoubleValue
2.493

@<SCITEGIC>MOL_PROPERTY
Pdih
SciTegic.value.DoubleValue
6.986

@<SCITEGIC>MOL_PROPERTY
Idih
SciTegic.value.DoubleValue
0.001

@<SCITEGIC>MOL_PROPERTY
Tether
SciTegic.value.DoubleValue
0.000

@<TRIPOS>MOLECULE
guest-s22_confgen4.mol2 : confsearch ligand conformer 543
          20          19           1
SMALL
USER_CHARGES
 
@<TRIPOS>ATOM
       1    C1      19.849627   15.925467   23.193920 C.2        1 MOL1        -0.2535
       2    H1      19.887410   14.919371   23.608085 H          1 MOL1         0.0845
       3    H2      18.921852   16.477316   23.328992 H          1 MOL1         0.0845
       4    C2      20.904881   16.440388   22.552664 C.2        1 MOL1        -0.1324
       5    H3      21.807387   15.838430   22.448950 H          1 MOL1         0.0833
       6    C3      21.001605   17.820819   21.924913 C.3        1 MOL1        -0.1813
       7    H4      21.248812   17.707976   20.860823 H          1 MOL1         0.0753
       8    H5      21.852264   18.352741   22.371649 H          1 MOL1         0.0753
       9    C4      19.730885   18.691919   22.060705 C.3        1 MOL1        -0.1855
      10    H6      18.879894   18.174378   21.596967 H          1 MOL1         0.0755
      11    H7      19.489877   18.826117   23.124187 H          1 MOL1         0.0755
      12    C5      19.911790   20.075150   21.398158 C.3        1 MOL1        -0.1855
      13    H8      20.153243   19.947740   20.333699 H          1 MOL1         0.0755
      14    H9      20.761981   20.598136   21.857794 H          1 MOL1         0.0755
      15    C6      18.640678   20.949353   21.532797 C.3        1 MOL1        -0.1958
      16    H10     17.784452   20.447172   21.066649 H          1 MOL1         0.0753
      17    H11     18.393164   21.097499   22.590810 H          1 MOL1         0.0753
      18    C7      18.794593   22.321193   20.885995 C.2        1 MOL1         0.6174
      19    O1      18.492651   22.440312   19.714974 O.co2      1 MOL1        -0.6695
      20    O2      19.231015   23.229666   21.564861 O.co2      1 MOL1        -0.6695
@<TRIPOS>BOND
    1     1     2    1
    2     1     3    1
    3     1     4    2
    4     4     5    1
    5     4     6    1
    6     6     7    1
    7     6     8    1
    8     6     9    1
    9     9    10    1
   10     9    11    1
   11     9    12    1
   12    12    13    1
   13    12    14    1
   14    12    15    1
   15    15    16    1
   16    15    17    1
   17    15    18    1
   18    18    19    1
   19    18    20    2
@<TRIPOS>SUBSTRUCTURE
       1 MOL1            1 RESIDUE      1      MOL     
@<SCITEGIC>MOL_PROPERTY
VConf Rank
SciTegic.value.IntegerValue
543

@<SCITEGIC>MOL_PROPERTY
Conf_Id
SciTegic.value.IntegerValue
44

@<SCITEGIC>MOL_PROPERTY
Delta U+W
SciTegic.value.DoubleValue
-1.440

@<SCITEGIC>MOL_PROPERTY
U+W
SciTegic.value.DoubleValue
-53.185

@<SCITEGIC>MOL_PROPERTY
Grad RMS
SciTegic.value.DoubleValue
0.000000

@<SCITEGIC>MOL_PROPERTY
U
SciTegic.value.DoubleValue
6.572

@<SCITEGIC>MOL_PROPERTY
W
SciTegic.value.DoubleValue
-59.757

@<SCITEGIC>MOL_PROPERTY
W(PB)
SciTegic.value.DoubleValue
-62.007

@<SCITEGIC>MOL_PROPERTY
W(SA)
SciTegic.value.DoubleValue
2.249

@<SCITEGIC>MOL_PROPERTY
Valence
SciTegic.value.DoubleValue
7.989

@<SCITEGIC>MOL_PROPERTY
Coulomb
SciTegic.value.DoubleValue
-2.697

@<SCITEGIC>MOL_PROPERTY
VdW
SciTegic.value.DoubleValue
1.281

@<SCITEGIC>MOL_PROPERTY
VdW6
SciTegic.value.DoubleValue
-6.467

@<SCITEGIC>MOL_PROPERTY
VdW12
SciTegic.value.DoubleValue
7.748

@<SCITEGIC>MOL_PROPERTY
Bond
SciTegic.value.DoubleValue
0.136

@<SCITEGIC>MOL_PROPERTY
Angle
SciTegic.value.DoubleValue
2.854

@<SCITEGIC>MOL_PROPERTY
Pdih
SciTegic.value.DoubleValue
4.997

@<SCITEGIC>MOL_PROPERTY
Idih
SciTegic.value.DoubleValue
0.001

@<SCITEGIC>MOL_PROPERTY
Tether
SciTegic.value.DoubleValue
0.000

@<TRIPOS>MOLECULE
guest-s22_confgen4.mol2 : confsearch ligand conformer 544
          20          19           1
SMALL
USER_CHARGES
 
@<TRIPOS>ATOM
       1    C1      21.491257   18.189685   24.814760 C.2        1 MOL1        -0.2535
       2    H1      21.279832   19.232373   25.046447 H          1 MOL1         0.0845
       3    H2      22.220993   17.675997   25.438350 H          1 MOL1         0.0845
       4    C2      20.883478   17.562381   23.804407 C.2        1 MOL1        -0.1324
       5    H3      21.109918   16.518376   23.588967 H          1 MOL1         0.0833
       6    C3      19.859978   18.209156   22.897750 C.3        1 MOL1        -0.1813
       7    H4      19.502115   19.144360   23.347112 H          1 MOL1         0.0753
       8    H5      18.987429   17.549500   22.800566 H          1 MOL1         0.0753
       9    C4      20.455607   18.490145   21.499811 C.3        1 MOL1        -0.1855
      10    H6      21.294663   19.193432   21.592362 H          1 MOL1         0.0755
      11    H7      20.875780   17.557708   21.098441 H          1 MOL1         0.0755
      12    C5      19.422911   19.041097   20.487727 C.3        1 MOL1        -0.1855
      13    H8      18.587809   18.334132   20.386855 H          1 MOL1         0.0755
      14    H9      19.897792   19.102942   19.498704 H          1 MOL1         0.0755
      15    C6      18.873414   20.441587   20.864210 C.3        1 MOL1        -0.1958
      16    H10     18.312920   20.397183   21.804730 H          1 MOL1         0.0753
      17    H11     19.700894   21.145979   21.010859 H          1 MOL1         0.0753
      18    C7      17.946323   21.016372   19.799289 C.2        1 MOL1         0.6174
      19    O1      18.436659   21.690817   18.915304 O.co2      1 MOL1        -0.6695
      20    O2      16.761011   20.758122   19.870386 O.co2      1 MOL1        -0.6695
@<TRIPOS>BOND
    1     1     2    1
    2     1     3    1
    3     1     4    2
    4     4     5    1
    5     4     6    1
    6     6     7    1
    7     6     8    1
    8     6     9    1
    9     9    10    1
   10     9    11    1
   11     9    12    1
   12    12    13    1
   13    12    14    1
   14    12    15    1
   15    15    16    1
   16    15    17    1
   17    15    18    1
   18    18    19    1
   19    18    20    2
@<TRIPOS>SUBSTRUCTURE
       1 MOL1            1 RESIDUE      1      MOL     
@<SCITEGIC>MOL_PROPERTY
VConf Rank
SciTegic.value.IntegerValue
544

@<SCITEGIC>MOL_PROPERTY
Conf_Id
SciTegic.value.IntegerValue
38

@<SCITEGIC>MOL_PROPERTY
Delta U+W
SciTegic.value.DoubleValue
-0.381

@<SCITEGIC>MOL_PROPERTY
U+W
SciTegic.value.DoubleValue
-52.126

@<SCITEGIC>MOL_PROPERTY
Grad RMS
SciTegic.value.DoubleValue
0.000000

@<SCITEGIC>MOL_PROPERTY
U
SciTegic.value.DoubleValue
7.601

@<SCITEGIC>MOL_PROPERTY
W
SciTegic.value.DoubleValue
-59.727

@<SCITEGIC>MOL_PROPERTY
W(PB)
SciTegic.value.DoubleValue
-61.964

@<SCITEGIC>MOL_PROPERTY
W(SA)
SciTegic.value.DoubleValue
2.236

@<SCITEGIC>MOL_PROPERTY
Valence
SciTegic.value.DoubleValue
9.602

@<SCITEGIC>MOL_PROPERTY
Coulomb
SciTegic.value.DoubleValue
-2.686

@<SCITEGIC>MOL_PROPERTY
VdW
SciTegic.value.DoubleValue
0.685

@<SCITEGIC>MOL_PROPERTY
VdW6
SciTegic.value.DoubleValue
-6.453

@<SCITEGIC>MOL_PROPERTY
VdW12
SciTegic.value.DoubleValue
7.139

@<SCITEGIC>MOL_PROPERTY
Bond
SciTegic.value.DoubleValue
0.125

@<SCITEGIC>MOL_PROPERTY
Angle
SciTegic.value.DoubleValue
2.485

@<SCITEGIC>MOL_PROPERTY
Pdih
SciTegic.value.DoubleValue
6.991

@<SCITEGIC>MOL_PROPERTY
Idih
SciTegic.value.DoubleValue
0.001

@<SCITEGIC>MOL_PROPERTY
Tether
SciTegic.value.DoubleValue
0.000

@<TRIPOS>MOLECULE
guest-s22_confgen4.mol2 : confsearch ligand conformer 545
          20          19           1
SMALL
USER_CHARGES
 
@<TRIPOS>ATOM
       1    C1      22.417813   18.341448   19.890895 C.2        1 MOL1        -0.2535
       2    H1      22.232322   17.274767   20.006485 H          1 MOL1         0.0845
       3    H2      22.973537   18.660774   19.010855 H          1 MOL1         0.0845
       4    C2      21.980521   19.227089   20.789828 C.2        1 MOL1        -0.1324
       5    H3      22.176058   20.290672   20.654857 H          1 MOL1         0.0833
       6    C3      21.204278   18.858846   22.034614 C.3        1 MOL1        -0.1813
       7    H4      21.647458   19.359988   22.905575 H          1 MOL1         0.0753
       8    H5      21.275178   17.778631   22.221292 H          1 MOL1         0.0753
       9    C4      19.720516   19.262376   21.905664 C.3        1 MOL1        -0.1855
      10    H6      19.652307   20.343491   21.721356 H          1 MOL1         0.0755
      11    H7      19.282001   18.762967   21.030698 H          1 MOL1         0.0755
      12    C5      18.913064   18.895563   23.171287 C.3        1 MOL1        -0.1855
      13    H8      19.342727   19.401949   24.046878 H          1 MOL1         0.0755
      14    H9      18.999888   17.816267   23.356118 H          1 MOL1         0.0755
      15    C6      17.412129   19.265922   23.049122 C.3        1 MOL1        -0.1958
      16    H10     16.975255   18.789875   22.162906 H          1 MOL1         0.0753
      17    H11     16.867269   18.879241   23.918365 H          1 MOL1         0.0753
      18    C7      17.147898   20.767150   22.975880 C.2        1 MOL1         0.6174
      19    O1      16.851547   21.247980   21.899800 O.co2      1 MOL1        -0.6695
      20    O2      17.234949   21.414234   24.000966 O.co2      1 MOL1        -0.6695
@<TRIPOS>BOND
    1     1     2    1
    2     1     3    1
    3     1     4    2
    4     4     5    1
    5     4     6    1
    6     6     7    1
    7     6     8    1
    8     6     9    1
    9     9    10    1
   10     9    11    1
   11     9    12    1
   12    12    13    1
   13    12    14    1
   14    12    15    1
   15    15    16    1
   16    15    17    1
   17    15    18    1
   18    18    19    1
   19    18    20    2
@<TRIPOS>SUBSTRUCTURE
       1 MOL1            1 RESIDUE      1      MOL     
@<SCITEGIC>MOL_PROPERTY
VConf Rank
SciTegic.value.IntegerValue
545

@<SCITEGIC>MOL_PROPERTY
Conf_Id
SciTegic.value.IntegerValue
58

@<SCITEGIC>MOL_PROPERTY
Delta U+W
SciTegic.value.DoubleValue
0.019

@<SCITEGIC>MOL_PROPERTY
U+W
SciTegic.value.DoubleValue
-51.727

@<SCITEGIC>MOL_PROPERTY
Grad RMS
SciTegic.value.DoubleValue
0.000000

@<SCITEGIC>MOL_PROPERTY
U
SciTegic.value.DoubleValue
8.963

@<SCITEGIC>MOL_PROPERTY
W
SciTegic.value.DoubleValue
-60.690

@<SCITEGIC>MOL_PROPERTY
W(PB)
SciTegic.value.DoubleValue
-62.934

@<SCITEGIC>MOL_PROPERTY
W(SA)
SciTegic.value.DoubleValue
2.244

@<SCITEGIC>MOL_PROPERTY
Valence
SciTegic.value.DoubleValue
9.327

@<SCITEGIC>MOL_PROPERTY
Coulomb
SciTegic.value.DoubleValue
-0.780

@<SCITEGIC>MOL_PROPERTY
VdW
SciTegic.value.DoubleValue
0.417

@<SCITEGIC>MOL_PROPERTY
VdW6
SciTegic.value.DoubleValue
-6.635

@<SCITEGIC>MOL_PROPERTY
VdW12
SciTegic.value.DoubleValue
7.052

@<SCITEGIC>MOL_PROPERTY
Bond
SciTegic.value.DoubleValue
0.105

@<SCITEGIC>MOL_PROPERTY
Angle
SciTegic.value.DoubleValue
2.399

@<SCITEGIC>MOL_PROPERTY
Pdih
SciTegic.value.DoubleValue
6.822

@<SCITEGIC>MOL_PROPERTY
Idih
SciTegic.value.DoubleValue
0.000

@<SCITEGIC>MOL_PROPERTY
Tether
SciTegic.value.DoubleValue
0.000

@<TRIPOS>MOLECULE
guest-s22_confgen4.mol2 : confsearch ligand conformer 546
          20          19           1
SMALL
USER_CHARGES
 
@<TRIPOS>ATOM
       1    C1      16.630995   19.243666   23.772566 C.2        1 MOL1        -0.2535
       2    H1      16.159599   18.588500   23.041730 H          1 MOL1         0.0845
       3    H2      15.977561   19.859134   24.388592 H          1 MOL1         0.0845
       4    C2      17.958495   19.295317   23.909473 C.2        1 MOL1        -0.1324
       5    H3      18.410430   19.958743   24.646549 H          1 MOL1         0.0833
       6    C3      18.927854   18.471284   23.091576 C.3        1 MOL1        -0.1813
       7    H4      18.395375   17.663716   22.570961 H          1 MOL1         0.0753
       8    H5      19.655917   17.991059   23.758985 H          1 MOL1         0.0753
       9    C4      19.670693   19.346205   22.060211 C.3        1 MOL1        -0.1855
      10    H6      18.938963   19.828573   21.397516 H          1 MOL1         0.0755
      11    H7      20.204250   20.151678   22.583625 H          1 MOL1         0.0755
      12    C5      20.668102   18.519565   21.217495 C.3        1 MOL1        -0.1855
      13    H8      20.128525   17.707962   20.710800 H          1 MOL1         0.0755
      14    H9      21.407981   18.044257   21.876552 H          1 MOL1         0.0755
      15    C6      21.403022   19.375940   20.153818 C.3        1 MOL1        -0.1958
      16    H10     22.004981   18.723696   19.510234 H          1 MOL1         0.0753
      17    H11     20.676416   19.879626   19.504816 H          1 MOL1         0.0753
      18    C7      22.340210   20.426341   20.743057 C.2        1 MOL1         0.6174
      19    O1      23.405404   20.054092   21.194594 O.co2      1 MOL1        -0.6695
      20    O2      21.986313   21.588843   20.725287 O.co2      1 MOL1        -0.6695
@<TRIPOS>BOND
    1     1     2    1
    2     1     3    1
    3     1     4    2
    4     4     5    1
    5     4     6    1
    6     6     7    1
    7     6     8    1
    8     6     9    1
    9     9    10    1
   10     9    11    1
   11     9    12    1
   12    12    13    1
   13    12    14    1
   14    12    15    1
   15    15    16    1
   16    15    17    1
   17    15    18    1
   18    18    19    1
   19    18    20    2
@<TRIPOS>SUBSTRUCTURE
       1 MOL1            1 RESIDUE      1      MOL     
@<SCITEGIC>MOL_PROPERTY
VConf Rank
SciTegic.value.IntegerValue
546

@<SCITEGIC>MOL_PROPERTY
Conf_Id
SciTegic.value.IntegerValue
54

@<SCITEGIC>MOL_PROPERTY
Delta U+W
SciTegic.value.DoubleValue
-0.048

@<SCITEGIC>MOL_PROPERTY
U+W
SciTegic.value.DoubleValue
-51.793

@<SCITEGIC>MOL_PROPERTY
Grad RMS
SciTegic.value.DoubleValue
0.000000

@<SCITEGIC>MOL_PROPERTY
U
SciTegic.value.DoubleValue
8.964

@<SCITEGIC>MOL_PROPERTY
W
SciTegic.value.DoubleValue
-60.756

@<SCITEGIC>MOL_PROPERTY
W(PB)
SciTegic.value.DoubleValue
-63.007

@<SCITEGIC>MOL_PROPERTY
W(SA)
SciTegic.value.DoubleValue
2.251

@<SCITEGIC>MOL_PROPERTY
Valence
SciTegic.value.DoubleValue
9.327

@<SCITEGIC>MOL_PROPERTY
Coulomb
SciTegic.value.DoubleValue
-0.780

@<SCITEGIC>MOL_PROPERTY
VdW
SciTegic.value.DoubleValue
0.417

@<SCITEGIC>MOL_PROPERTY
VdW6
SciTegic.value.DoubleValue
-6.635

@<SCITEGIC>MOL_PROPERTY
VdW12
SciTegic.value.DoubleValue
7.052

@<SCITEGIC>MOL_PROPERTY
Bond
SciTegic.value.DoubleValue
0.105

@<SCITEGIC>MOL_PROPERTY
Angle
SciTegic.value.DoubleValue
2.399

@<SCITEGIC>MOL_PROPERTY
Pdih
SciTegic.value.DoubleValue
6.822

@<SCITEGIC>MOL_PROPERTY
Idih
SciTegic.value.DoubleValue
0.000

@<SCITEGIC>MOL_PROPERTY
Tether
SciTegic.value.DoubleValue
0.000

@<TRIPOS>MOLECULE
guest-s22_confgen4.mol2 : confsearch ligand conformer 547
          20          19           1
SMALL
USER_CHARGES
 
@<TRIPOS>ATOM
       1    C1      20.287616   17.181195   24.739942 C.2        1 MOL1        -0.2535
       2    H1      19.797585   16.292273   25.133484 H          1 MOL1         0.0845
       3    H2      21.368955   17.247163   24.848852 H          1 MOL1         0.0845
       4    C2      19.586379   18.149495   24.144684 C.2        1 MOL1        -0.1324
       5    H3      18.504247   18.064998   24.049272 H          1 MOL1         0.0833
       6    C3      20.197745   19.414553   23.581028 C.3        1 MOL1        -0.1813
       7    H4      21.185619   19.580575   24.031663 H          1 MOL1         0.0753
       8    H5      19.584289   20.282408   23.857693 H          1 MOL1         0.0753
       9    C4      20.358083   19.357812   22.045036 C.3        1 MOL1        -0.1855
      10    H6      20.928566   20.238178   21.718713 H          1 MOL1         0.0755
      11    H7      20.957440   18.478253   21.772484 H          1 MOL1         0.0755
      12    C5      19.002812   19.320033   21.299437 C.3        1 MOL1        -0.1855
      13    H8      18.397243   20.191985   21.583027 H          1 MOL1         0.0755
      14    H9      18.439349   18.429635   21.607976 H          1 MOL1         0.0755
      15    C6      19.171673   19.291248   19.758062 C.3        1 MOL1        -0.1958
      16    H10     19.802688   18.444476   19.462040 H          1 MOL1         0.0753
      17    H11     18.194228   19.139279   19.285343 H          1 MOL1         0.0753
      18    C7      19.766326   20.569817   19.174552 C.2        1 MOL1         0.6174
      19    O1      20.927449   20.553633   18.815970 O.co2      1 MOL1        -0.6695
      20    O2      19.047908   21.545953   19.084272 O.co2      1 MOL1        -0.6695
@<TRIPOS>BOND
    1     1     2    1
    2     1     3    1
    3     1     4    2
    4     4     5    1
    5     4     6    1
    6     6     7    1
    7     6     8    1
    8     6     9    1
    9     9    10    1
   10     9    11    1
   11     9    12    1
   12    12    13    1
   13    12    14    1
   14    12    15    1
   15    15    16    1
   16    15    17    1
   17    15    18    1
   18    18    19    1
   19    18    20    2
@<TRIPOS>SUBSTRUCTURE
       1 MOL1            1 RESIDUE      1      MOL     
@<SCITEGIC>MOL_PROPERTY
VConf Rank
SciTegic.value.IntegerValue
547

@<SCITEGIC>MOL_PROPERTY
Conf_Id
SciTegic.value.IntegerValue
27

@<SCITEGIC>MOL_PROPERTY
Delta U+W
SciTegic.value.DoubleValue
0.478

@<SCITEGIC>MOL_PROPERTY
U+W
SciTegic.value.DoubleValue
-51.267

@<SCITEGIC>MOL_PROPERTY
Grad RMS
SciTegic.value.DoubleValue
0.000000

@<SCITEGIC>MOL_PROPERTY
U
SciTegic.value.DoubleValue
9.192

@<SCITEGIC>MOL_PROPERTY
W
SciTegic.value.DoubleValue
-60.459

@<SCITEGIC>MOL_PROPERTY
W(PB)
SciTegic.value.DoubleValue
-62.649

@<SCITEGIC>MOL_PROPERTY
W(SA)
SciTegic.value.DoubleValue
2.190

@<SCITEGIC>MOL_PROPERTY
Valence
SciTegic.value.DoubleValue
9.572

@<SCITEGIC>MOL_PROPERTY
Coulomb
SciTegic.value.DoubleValue
-0.884

@<SCITEGIC>MOL_PROPERTY
VdW
SciTegic.value.DoubleValue
0.504

@<SCITEGIC>MOL_PROPERTY
VdW6
SciTegic.value.DoubleValue
-7.168

@<SCITEGIC>MOL_PROPERTY
VdW12
SciTegic.value.DoubleValue
7.672

@<SCITEGIC>MOL_PROPERTY
Bond
SciTegic.value.DoubleValue
0.127

@<SCITEGIC>MOL_PROPERTY
Angle
SciTegic.value.DoubleValue
2.504

@<SCITEGIC>MOL_PROPERTY
Pdih
SciTegic.value.DoubleValue
6.941

@<SCITEGIC>MOL_PROPERTY
Idih
SciTegic.value.DoubleValue
0.001

@<SCITEGIC>MOL_PROPERTY
Tether
SciTegic.value.DoubleValue
0.000

@<TRIPOS>MOLECULE
guest-s22_confgen4.mol2 : confsearch ligand conformer 548
          20          19           1
SMALL
USER_CHARGES
 
@<TRIPOS>ATOM
       1    C1      19.876663   18.699703   25.273955 C.2        1 MOL1        -0.2535
       2    H1      20.933905   18.632894   25.525513 H          1 MOL1         0.0845
       3    H2      19.167408   18.248942   25.966032 H          1 MOL1         0.0845
       4    C2      19.462105   19.307215   24.159169 C.2        1 MOL1        -0.1324
       5    H3      18.398862   19.365500   23.928063 H          1 MOL1         0.0833
       6    C3      20.388176   19.960576   23.155521 C.3        1 MOL1        -0.1813
       7    H4      21.358657   20.166937   23.626835 H          1 MOL1         0.0753
       8    H5      19.981874   20.934039   22.849990 H          1 MOL1         0.0753
       9    C4      20.621033   19.077930   21.908615 C.3        1 MOL1        -0.1855
      10    H6      21.397749   19.542975   21.286262 H          1 MOL1         0.0755
      11    H7      21.012517   18.100191   22.221781 H          1 MOL1         0.0755
      12    C5      19.341916   18.883498   21.062389 C.3        1 MOL1        -0.1855
      13    H8      18.937220   19.862877   20.771880 H          1 MOL1         0.0755
      14    H9      18.568599   18.383193   21.661019 H          1 MOL1         0.0755
      15    C6      19.616192   18.045458   19.789391 C.3        1 MOL1        -0.1958
      16    H10     20.374810   18.536603   19.168254 H          1 MOL1         0.0753
      17    H11     20.009819   17.059227   20.063282 H          1 MOL1         0.0753
      18    C7      18.369075   17.837969   18.937515 C.2        1 MOL1         0.6174
      19    O1      17.678055   16.863392   19.159666 O.co2      1 MOL1        -0.6695
      20    O2      18.112032   18.665865   18.085918 O.co2      1 MOL1        -0.6695
@<TRIPOS>BOND
    1     1     2    1
    2     1     3    1
    3     1     4    2
    4     4     5    1
    5     4     6    1
    6     6     7    1
    7     6     8    1
    8     6     9    1
    9     9    10    1
   10     9    11    1
   11     9    12    1
   12    12    13    1
   13    12    14    1
   14    12    15    1
   15    15    16    1
   16    15    17    1
   17    15    18    1
   18    18    19    1
   19    18    20    2
@<TRIPOS>SUBSTRUCTURE
       1 MOL1            1 RESIDUE      1      MOL     
@<SCITEGIC>MOL_PROPERTY
VConf Rank
SciTegic.value.IntegerValue
548

@<SCITEGIC>MOL_PROPERTY
Conf_Id
SciTegic.value.IntegerValue
41

@<SCITEGIC>MOL_PROPERTY
Delta U+W
SciTegic.value.DoubleValue
-0.634

@<SCITEGIC>MOL_PROPERTY
U+W
SciTegic.value.DoubleValue
-52.379

@<SCITEGIC>MOL_PROPERTY
Grad RMS
SciTegic.value.DoubleValue
0.000000

@<SCITEGIC>MOL_PROPERTY
U
SciTegic.value.DoubleValue
7.828

@<SCITEGIC>MOL_PROPERTY
W
SciTegic.value.DoubleValue
-60.207

@<SCITEGIC>MOL_PROPERTY
W(PB)
SciTegic.value.DoubleValue
-62.449

@<SCITEGIC>MOL_PROPERTY
W(SA)
SciTegic.value.DoubleValue
2.242

@<SCITEGIC>MOL_PROPERTY
Valence
SciTegic.value.DoubleValue
9.300

@<SCITEGIC>MOL_PROPERTY
Coulomb
SciTegic.value.DoubleValue
-2.080

@<SCITEGIC>MOL_PROPERTY
VdW
SciTegic.value.DoubleValue
0.608

@<SCITEGIC>MOL_PROPERTY
VdW6
SciTegic.value.DoubleValue
-6.341

@<SCITEGIC>MOL_PROPERTY
VdW12
SciTegic.value.DoubleValue
6.949

@<SCITEGIC>MOL_PROPERTY
Bond
SciTegic.value.DoubleValue
0.103

@<SCITEGIC>MOL_PROPERTY
Angle
SciTegic.value.DoubleValue
2.334

@<SCITEGIC>MOL_PROPERTY
Pdih
SciTegic.value.DoubleValue
6.862

@<SCITEGIC>MOL_PROPERTY
Idih
SciTegic.value.DoubleValue
0.001

@<SCITEGIC>MOL_PROPERTY
Tether
SciTegic.value.DoubleValue
0.000

@<TRIPOS>MOLECULE
guest-s22_confgen4.mol2 : confsearch ligand conformer 549
          20          19           1
SMALL
USER_CHARGES
 
@<TRIPOS>ATOM
       1    C1      17.858516   17.399899   24.457009 C.2        1 MOL1        -0.2535
       2    H1      17.680362   16.550195   25.113898 H          1 MOL1         0.0845
       3    H2      17.304408   18.314957   24.659949 H          1 MOL1         0.0845
       4    C2      18.725474   17.319427   23.444278 C.2        1 MOL1        -0.1324
       5    H3      19.270809   16.394403   23.258252 H          1 MOL1         0.0833
       6    C3      19.023939   18.455160   22.491058 C.3        1 MOL1        -0.1813
       7    H4      18.261973   19.240632   22.584949 H          1 MOL1         0.0753
       8    H5      18.972552   18.081985   21.460013 H          1 MOL1         0.0753
       9    C4      20.420989   19.055911   22.764051 C.3        1 MOL1        -0.1855
      10    H6      20.487072   19.331620   23.825549 H          1 MOL1         0.0755
      11    H7      21.189743   18.289009   22.596310 H          1 MOL1         0.0755
      12    C5      20.733656   20.308717   21.909119 C.3        1 MOL1        -0.1855
      13    H8      21.706385   20.714768   22.219453 H          1 MOL1         0.0755
      14    H9      19.991588   21.088945   22.125884 H          1 MOL1         0.0755
      15    C6      20.767396   20.049437   20.378088 C.3        1 MOL1        -0.1958
      16    H10     19.787462   19.713488   20.020495 H          1 MOL1         0.0753
      17    H11     20.982457   20.988900   19.855725 H          1 MOL1         0.0753
      18    C7      21.821015   19.035760   19.940957 C.2        1 MOL1         0.6174
      19    O1      22.988625   19.371405   19.978844 O.co2      1 MOL1        -0.6695
      20    O2      21.446780   17.944959   19.557481 O.co2      1 MOL1        -0.6695
@<TRIPOS>BOND
    1     1     2    1
    2     1     3    1
    3     1     4    2
    4     4     5    1
    5     4     6    1
    6     6     7    1
    7     6     8    1
    8     6     9    1
    9     9    10    1
   10     9    11    1
   11     9    12    1
   12    12    13    1
   13    12    14    1
   14    12    15    1
   15    15    16    1
   16    15    17    1
   17    15    18    1
   18    18    19    1
   19    18    20    2
@<TRIPOS>SUBSTRUCTURE
       1 MOL1            1 RESIDUE      1      MOL     
@<SCITEGIC>MOL_PROPERTY
VConf Rank
SciTegic.value.IntegerValue
549

@<SCITEGIC>MOL_PROPERTY
Conf_Id
SciTegic.value.IntegerValue
84

@<SCITEGIC>MOL_PROPERTY
Delta U+W
SciTegic.value.DoubleValue
0.942

@<SCITEGIC>MOL_PROPERTY
U+W
SciTegic.value.DoubleValue
-50.803

@<SCITEGIC>MOL_PROPERTY
Grad RMS
SciTegic.value.DoubleValue
0.000000

@<SCITEGIC>MOL_PROPERTY
U
SciTegic.value.DoubleValue
10.196

@<SCITEGIC>MOL_PROPERTY
W
SciTegic.value.DoubleValue
-60.999

@<SCITEGIC>MOL_PROPERTY
W(PB)
SciTegic.value.DoubleValue
-63.182

@<SCITEGIC>MOL_PROPERTY
W(SA)
SciTegic.value.DoubleValue
2.182

@<SCITEGIC>MOL_PROPERTY
Valence
SciTegic.value.DoubleValue
9.837

@<SCITEGIC>MOL_PROPERTY
Coulomb
SciTegic.value.DoubleValue
0.032

@<SCITEGIC>MOL_PROPERTY
VdW
SciTegic.value.DoubleValue
0.328

@<SCITEGIC>MOL_PROPERTY
VdW6
SciTegic.value.DoubleValue
-7.642

@<SCITEGIC>MOL_PROPERTY
VdW12
SciTegic.value.DoubleValue
7.969

@<SCITEGIC>MOL_PROPERTY
Bond
SciTegic.value.DoubleValue
0.151

@<SCITEGIC>MOL_PROPERTY
Angle
SciTegic.value.DoubleValue
2.748

@<SCITEGIC>MOL_PROPERTY
Pdih
SciTegic.value.DoubleValue
6.937

@<SCITEGIC>MOL_PROPERTY
Idih
SciTegic.value.DoubleValue
0.001

@<SCITEGIC>MOL_PROPERTY
Tether
SciTegic.value.DoubleValue
0.000

@<TRIPOS>MOLECULE
guest-s22_confgen4.mol2 : confsearch ligand conformer 550
          20          19           1
SMALL
USER_CHARGES
 
@<TRIPOS>ATOM
       1    C1      19.020613   21.699600   19.708271 C.2        1 MOL1        -0.2535
       2    H1      18.262672   22.313121   19.224143 H          1 MOL1         0.0845
       3    H2      19.925418   22.198936   20.051161 H          1 MOL1         0.0845
       4    C2      18.842386   20.386586   19.875289 C.2        1 MOL1        -0.1324
       5    H3      17.928847   19.906253   19.525485 H          1 MOL1         0.0833
       6    C3      19.849104   19.471736   20.536525 C.3        1 MOL1        -0.1813
       7    H4      20.822273   19.974438   20.620326 H          1 MOL1         0.0753
       8    H5      20.005074   18.583406   19.909926 H          1 MOL1         0.0753
       9    C4      19.372311   19.039183   21.938890 C.3        1 MOL1        -0.1855
      10    H6      19.212212   19.932828   22.558121 H          1 MOL1         0.0755
      11    H7      18.400949   18.532688   21.855417 H          1 MOL1         0.0755
      12    C5      20.388949   18.100571   22.627213 C.3        1 MOL1        -0.1855
      13    H8      21.358142   18.609291   22.725091 H          1 MOL1         0.0755
      14    H9      20.556783   17.220136   21.992204 H          1 MOL1         0.0755
      15    C6      19.913143   17.628825   24.025765 C.3        1 MOL1        -0.1958
      16    H10     18.933187   17.142438   23.948520 H          1 MOL1         0.0753
      17    H11     20.610304   16.878093   24.416077 H          1 MOL1         0.0753
      18    C7      19.821615   18.747534   25.059692 C.2        1 MOL1         0.6174
      19    O1      18.720150   19.159181   25.366766 O.co2      1 MOL1        -0.6695
      20    O2      20.855440   19.168568   25.540361 O.co2      1 MOL1        -0.6695
@<TRIPOS>BOND
    1     1     2    1
    2     1     3    1
    3     1     4    2
    4     4     5    1
    5     4     6    1
    6     6     7    1
    7     6     8    1
    8     6     9    1
    9     9    10    1
   10     9    11    1
   11     9    12    1
   12    12    13    1
   13    12    14    1
   14    12    15    1
   15    15    16    1
   16    15    17    1
   17    15    18    1
   18    18    19    1
   19    18    20    2
@<TRIPOS>SUBSTRUCTURE
       1 MOL1            1 RESIDUE      1      MOL     
@<SCITEGIC>MOL_PROPERTY
VConf Rank
SciTegic.value.IntegerValue
550

@<SCITEGIC>MOL_PROPERTY
Conf_Id
SciTegic.value.IntegerValue
81

@<SCITEGIC>MOL_PROPERTY
Delta U+W
SciTegic.value.DoubleValue
-0.051

@<SCITEGIC>MOL_PROPERTY
U+W
SciTegic.value.DoubleValue
-51.796

@<SCITEGIC>MOL_PROPERTY
Grad RMS
SciTegic.value.DoubleValue
0.000000

@<SCITEGIC>MOL_PROPERTY
U
SciTegic.value.DoubleValue
9.412

@<SCITEGIC>MOL_PROPERTY
W
SciTegic.value.DoubleValue
-61.209

@<SCITEGIC>MOL_PROPERTY
W(PB)
SciTegic.value.DoubleValue
-63.452

@<SCITEGIC>MOL_PROPERTY
W(SA)
SciTegic.value.DoubleValue
2.243

@<SCITEGIC>MOL_PROPERTY
Valence
SciTegic.value.DoubleValue
9.329

@<SCITEGIC>MOL_PROPERTY
Coulomb
SciTegic.value.DoubleValue
-0.323

@<SCITEGIC>MOL_PROPERTY
VdW
SciTegic.value.DoubleValue
0.406

@<SCITEGIC>MOL_PROPERTY
VdW6
SciTegic.value.DoubleValue
-6.640

@<SCITEGIC>MOL_PROPERTY
VdW12
SciTegic.value.DoubleValue
7.046

@<SCITEGIC>MOL_PROPERTY
Bond
SciTegic.value.DoubleValue
0.105

@<SCITEGIC>MOL_PROPERTY
Angle
SciTegic.value.DoubleValue
2.401

@<SCITEGIC>MOL_PROPERTY
Pdih
SciTegic.value.DoubleValue
6.823

@<SCITEGIC>MOL_PROPERTY
Idih
SciTegic.value.DoubleValue
0.000

@<SCITEGIC>MOL_PROPERTY
Tether
SciTegic.value.DoubleValue
0.000

@<TRIPOS>MOLECULE
guest-s22_confgen4.mol2 : confsearch ligand conformer 551
          20          19           1
SMALL
USER_CHARGES
 
@<TRIPOS>ATOM
       1    C1      17.500322   18.555846   24.405131 C.2        1 MOL1        -0.2535
       2    H1      17.721160   19.257956   25.207460 H          1 MOL1         0.0845
       3    H2      16.532889   18.057137   24.427665 H          1 MOL1         0.0845
       4    C2      18.378218   18.315179   23.427861 C.2        1 MOL1        -0.1324
       5    H3      18.138457   17.606869   22.635375 H          1 MOL1         0.0833
       6    C3      19.741931   18.965514   23.333636 C.3        1 MOL1        -0.1813
       7    H4      20.501995   18.212779   23.087418 H          1 MOL1         0.0753
       8    H5      20.027888   19.369584   24.314029 H          1 MOL1         0.0753
       9    C4      19.778119   20.115793   22.299104 C.3        1 MOL1        -0.1855
      10    H6      19.072012   20.896428   22.613518 H          1 MOL1         0.0755
      11    H7      20.773460   20.580447   22.318170 H          1 MOL1         0.0755
      12    C5      19.439645   19.692117   20.846512 C.3        1 MOL1        -0.1855
      13    H8      19.467584   20.583361   20.204573 H          1 MOL1         0.0755
      14    H9      18.407350   19.320241   20.804424 H          1 MOL1         0.0755
      15    C6      20.392519   18.619843   20.251156 C.3        1 MOL1        -0.1958
      16    H10     20.332389   17.688250   20.825230 H          1 MOL1         0.0753
      17    H11     20.073144   18.376674   19.231120 H          1 MOL1         0.0753
      18    C7      21.852996   19.056015   20.178314 C.2        1 MOL1         0.6174
      19    O1      22.646158   18.544540   20.944064 O.co2      1 MOL1        -0.6695
      20    O2      22.161990   19.884465   19.344256 O.co2      1 MOL1        -0.6695
@<TRIPOS>BOND
    1     1     2    1
    2     1     3    1
    3     1     4    2
    4     4     5    1
    5     4     6    1
    6     6     7    1
    7     6     8    1
    8     6     9    1
    9     9    10    1
   10     9    11    1
   11     9    12    1
   12    12    13    1
   13    12    14    1
   14    12    15    1
   15    15    16    1
   16    15    17    1
   17    15    18    1
   18    18    19    1
   19    18    20    2
@<TRIPOS>SUBSTRUCTURE
       1 MOL1            1 RESIDUE      1      MOL     
@<SCITEGIC>MOL_PROPERTY
VConf Rank
SciTegic.value.IntegerValue
551

@<SCITEGIC>MOL_PROPERTY
Conf_Id
SciTegic.value.IntegerValue
86

@<SCITEGIC>MOL_PROPERTY
Delta U+W
SciTegic.value.DoubleValue
1.248

@<SCITEGIC>MOL_PROPERTY
U+W
SciTegic.value.DoubleValue
-50.498

@<SCITEGIC>MOL_PROPERTY
Grad RMS
SciTegic.value.DoubleValue
0.000000

@<SCITEGIC>MOL_PROPERTY
U
SciTegic.value.DoubleValue
10.404

@<SCITEGIC>MOL_PROPERTY
W
SciTegic.value.DoubleValue
-60.901

@<SCITEGIC>MOL_PROPERTY
W(PB)
SciTegic.value.DoubleValue
-63.061

@<SCITEGIC>MOL_PROPERTY
W(SA)
SciTegic.value.DoubleValue
2.159

@<SCITEGIC>MOL_PROPERTY
Valence
SciTegic.value.DoubleValue
10.021

@<SCITEGIC>MOL_PROPERTY
Coulomb
SciTegic.value.DoubleValue
0.094

@<SCITEGIC>MOL_PROPERTY
VdW
SciTegic.value.DoubleValue
0.289

@<SCITEGIC>MOL_PROPERTY
VdW6
SciTegic.value.DoubleValue
-8.409

@<SCITEGIC>MOL_PROPERTY
VdW12
SciTegic.value.DoubleValue
8.698

@<SCITEGIC>MOL_PROPERTY
Bond
SciTegic.value.DoubleValue
0.179

@<SCITEGIC>MOL_PROPERTY
Angle
SciTegic.value.DoubleValue
2.939

@<SCITEGIC>MOL_PROPERTY
Pdih
SciTegic.value.DoubleValue
6.902

@<SCITEGIC>MOL_PROPERTY
Idih
SciTegic.value.DoubleValue
0.001

@<SCITEGIC>MOL_PROPERTY
Tether
SciTegic.value.DoubleValue
0.000

@<TRIPOS>MOLECULE
guest-s22_confgen4.mol2 : confsearch ligand conformer 552
          20          19           1
SMALL
USER_CHARGES
 
@<TRIPOS>ATOM
       1    C1      21.769706   21.494617   21.974810 C.2        1 MOL1        -0.2535
       2    H1      21.842573   22.475688   21.508660 H          1 MOL1         0.0845
       3    H2      21.790294   21.453747   23.062619 H          1 MOL1         0.0845
       4    C2      21.655951   20.386747   21.237445 C.2        1 MOL1        -0.1324
       5    H3      21.635033   20.449697   20.149792 H          1 MOL1         0.0833
       6    C3      21.549624   18.990491   21.812960 C.3        1 MOL1        -0.1813
       7    H4      21.780213   18.996010   22.886952 H          1 MOL1         0.0753
       8    H5      22.303274   18.348560   21.337820 H          1 MOL1         0.0753
       9    C4      20.152893   18.368431   21.588806 C.3        1 MOL1        -0.1855
      10    H6      19.919829   18.366104   20.515215 H          1 MOL1         0.0755
      11    H7      20.180605   17.316681   21.905137 H          1 MOL1         0.0755
      12    C5      19.038171   19.108606   22.365423 C.3        1 MOL1        -0.1855
      13    H8      19.004788   20.158570   22.045219 H          1 MOL1         0.0755
      14    H9      19.273542   19.114039   23.438699 H          1 MOL1         0.0755
      15    C6      17.639011   18.475847   22.148627 C.3        1 MOL1        -0.1958
      16    H10     16.875110   19.106924   22.617816 H          1 MOL1         0.0753
      17    H11     17.403641   18.434970   21.078250 H          1 MOL1         0.0753
      18    C7      17.494598   17.073742   22.733411 C.2        1 MOL1         0.6174
      19    O1      17.358251   16.966385   23.936329 O.co2      1 MOL1        -0.6695
      20    O2      17.510597   16.127302   21.971123 O.co2      1 MOL1        -0.6695
@<TRIPOS>BOND
    1     1     2    1
    2     1     3    1
    3     1     4    2
    4     4     5    1
    5     4     6    1
    6     6     7    1
    7     6     8    1
    8     6     9    1
    9     9    10    1
   10     9    11    1
   11     9    12    1
   12    12    13    1
   13    12    14    1
   14    12    15    1
   15    15    16    1
   16    15    17    1
   17    15    18    1
   18    18    19    1
   19    18    20    2
@<TRIPOS>SUBSTRUCTURE
       1 MOL1            1 RESIDUE      1      MOL     
@<SCITEGIC>MOL_PROPERTY
VConf Rank
SciTegic.value.IntegerValue
552

@<SCITEGIC>MOL_PROPERTY
Conf_Id
SciTegic.value.IntegerValue
28

@<SCITEGIC>MOL_PROPERTY
Delta U+W
SciTegic.value.DoubleValue
0.446

@<SCITEGIC>MOL_PROPERTY
U+W
SciTegic.value.DoubleValue
-51.299

@<SCITEGIC>MOL_PROPERTY
Grad RMS
SciTegic.value.DoubleValue
0.000000

@<SCITEGIC>MOL_PROPERTY
U
SciTegic.value.DoubleValue
9.295

@<SCITEGIC>MOL_PROPERTY
W
SciTegic.value.DoubleValue
-60.594

@<SCITEGIC>MOL_PROPERTY
W(PB)
SciTegic.value.DoubleValue
-62.806

@<SCITEGIC>MOL_PROPERTY
W(SA)
SciTegic.value.DoubleValue
2.212

@<SCITEGIC>MOL_PROPERTY
Valence
SciTegic.value.DoubleValue
9.495

@<SCITEGIC>MOL_PROPERTY
Coulomb
SciTegic.value.DoubleValue
-0.610

@<SCITEGIC>MOL_PROPERTY
VdW
SciTegic.value.DoubleValue
0.409

@<SCITEGIC>MOL_PROPERTY
VdW6
SciTegic.value.DoubleValue
-7.332

@<SCITEGIC>MOL_PROPERTY
VdW12
SciTegic.value.DoubleValue
7.741

@<SCITEGIC>MOL_PROPERTY
Bond
SciTegic.value.DoubleValue
0.126

@<SCITEGIC>MOL_PROPERTY
Angle
SciTegic.value.DoubleValue
2.497

@<SCITEGIC>MOL_PROPERTY
Pdih
SciTegic.value.DoubleValue
6.872

@<SCITEGIC>MOL_PROPERTY
Idih
SciTegic.value.DoubleValue
0.000

@<SCITEGIC>MOL_PROPERTY
Tether
SciTegic.value.DoubleValue
0.000

@<TRIPOS>MOLECULE
guest-s22_confgen4.mol2 : confsearch ligand conformer 553
          20          19           1
SMALL
USER_CHARGES
 
@<TRIPOS>ATOM
       1    C1      16.857438   20.305067   22.040673 C.2        1 MOL1        -0.2535
       2    H1      16.815861   19.226232   22.174389 H          1 MOL1         0.0845
       3    H2      15.916134   20.846387   22.118518 H          1 MOL1         0.0845
       4    C2      18.001015   20.954746   21.795472 C.2        1 MOL1        -0.1324
       5    H3      17.979441   22.037382   21.673104 H          1 MOL1         0.0833
       6    C3      19.384238   20.340426   21.658509 C.3        1 MOL1        -0.1813
       7    H4      20.025288   20.751340   22.448993 H          1 MOL1         0.0753
       8    H5      19.825108   20.676006   20.710473 H          1 MOL1         0.0753
       9    C4      19.419785   18.792964   21.710461 C.3        1 MOL1        -0.1855
      10    H6      19.063159   18.448277   22.690859 H          1 MOL1         0.0755
      11    H7      18.720518   18.393804   20.963205 H          1 MOL1         0.0755
      12    C5      20.821491   18.197636   21.427858 C.3        1 MOL1        -0.1855
      13    H8      21.150044   18.505282   20.425963 H          1 MOL1         0.0755
      14    H9      20.740836   17.102094   21.401538 H          1 MOL1         0.0755
      15    C6      21.909840   18.591381   22.463773 C.3        1 MOL1        -0.1958
      16    H10     22.864713   18.135653   22.177089 H          1 MOL1         0.0753
      17    H11     22.071624   19.675228   22.462961 H          1 MOL1         0.0753
      18    C7      21.604643   18.143343   23.890314 C.2        1 MOL1         0.6174
      19    O1      21.664621   16.955847   24.142721 O.co2      1 MOL1        -0.6695
      20    O2      21.335907   18.993649   24.715916 O.co2      1 MOL1        -0.6695
@<TRIPOS>BOND
    1     1     2    1
    2     1     3    1
    3     1     4    2
    4     4     5    1
    5     4     6    1
    6     6     7    1
    7     6     8    1
    8     6     9    1
    9     9    10    1
   10     9    11    1
   11     9    12    1
   12    12    13    1
   13    12    14    1
   14    12    15    1
   15    15    16    1
   16    15    17    1
   17    15    18    1
   18    18    19    1
   19    18    20    2
@<TRIPOS>SUBSTRUCTURE
       1 MOL1            1 RESIDUE      1      MOL     
@<SCITEGIC>MOL_PROPERTY
VConf Rank
SciTegic.value.IntegerValue
553

@<SCITEGIC>MOL_PROPERTY
Conf_Id
SciTegic.value.IntegerValue
53

@<SCITEGIC>MOL_PROPERTY
Delta U+W
SciTegic.value.DoubleValue
0.549

@<SCITEGIC>MOL_PROPERTY
U+W
SciTegic.value.DoubleValue
-51.197

@<SCITEGIC>MOL_PROPERTY
Grad RMS
SciTegic.value.DoubleValue
0.000000

@<SCITEGIC>MOL_PROPERTY
U
SciTegic.value.DoubleValue
10.870

@<SCITEGIC>MOL_PROPERTY
W
SciTegic.value.DoubleValue
-62.067

@<SCITEGIC>MOL_PROPERTY
W(PB)
SciTegic.value.DoubleValue
-64.228

@<SCITEGIC>MOL_PROPERTY
W(SA)
SciTegic.value.DoubleValue
2.161

@<SCITEGIC>MOL_PROPERTY
Valence
SciTegic.value.DoubleValue
8.803

@<SCITEGIC>MOL_PROPERTY
Coulomb
SciTegic.value.DoubleValue
1.020

@<SCITEGIC>MOL_PROPERTY
VdW
SciTegic.value.DoubleValue
1.048

@<SCITEGIC>MOL_PROPERTY
VdW6
SciTegic.value.DoubleValue
-8.312

@<SCITEGIC>MOL_PROPERTY
VdW12
SciTegic.value.DoubleValue
9.360

@<SCITEGIC>MOL_PROPERTY
Bond
SciTegic.value.DoubleValue
0.212

@<SCITEGIC>MOL_PROPERTY
Angle
SciTegic.value.DoubleValue
3.379

@<SCITEGIC>MOL_PROPERTY
Pdih
SciTegic.value.DoubleValue
5.211

@<SCITEGIC>MOL_PROPERTY
Idih
SciTegic.value.DoubleValue
0.001

@<SCITEGIC>MOL_PROPERTY
Tether
SciTegic.value.DoubleValue
0.000

@<TRIPOS>MOLECULE
guest-s22_confgen4.mol2 : confsearch ligand conformer 554
          20          19           1
SMALL
USER_CHARGES
 
@<TRIPOS>ATOM
       1    C1      21.733812   18.528019   23.957337 C.2        1 MOL1        -0.2535
       2    H1      22.199686   19.266363   23.308410 H          1 MOL1         0.0845
       3    H2      22.397629   17.850394   24.491280 H          1 MOL1         0.0845
       4    C2      20.407285   18.448147   24.107681 C.2        1 MOL1        -0.1324
       5    H3      19.991882   17.691539   24.772728 H          1 MOL1         0.0833
       6    C3      19.367843   19.320753   23.423570 C.3        1 MOL1        -0.1813
       7    H4      19.059370   20.111795   24.119628 H          1 MOL1         0.0753
       8    H5      18.459648   18.728193   23.254351 H          1 MOL1         0.0753
       9    C4      19.801613   19.964062   22.080525 C.3        1 MOL1        -0.1855
      10    H6      18.994338   20.622415   21.731644 H          1 MOL1         0.0755
      11    H7      20.664021   20.621366   22.252358 H          1 MOL1         0.0755
      12    C5      20.144390   18.951998   20.955765 C.3        1 MOL1        -0.1855
      13    H8      20.998718   18.334826   21.261997 H          1 MOL1         0.0755
      14    H9      20.474629   19.510433   20.069136 H          1 MOL1         0.0755
      15    C6      18.970597   18.020393   20.547545 C.3        1 MOL1        -0.1958
      16    H10     19.305745   17.341084   19.755220 H          1 MOL1         0.0753
      17    H11     18.669294   17.387849   21.390223 H          1 MOL1         0.0753
      18    C7      17.741465   18.757668   20.024012 C.2        1 MOL1         0.6174
      19    O1      16.748653   18.792839   20.724187 O.co2      1 MOL1        -0.6695
      20    O2      17.803948   19.262651   18.920112 O.co2      1 MOL1        -0.6695
@<TRIPOS>BOND
    1     1     2    1
    2     1     3    1
    3     1     4    2
    4     4     5    1
    5     4     6    1
    6     6     7    1
    7     6     8    1
    8     6     9    1
    9     9    10    1
   10     9    11    1
   11     9    12    1
   12    12    13    1
   13    12    14    1
   14    12    15    1
   15    15    16    1
   16    15    17    1
   17    15    18    1
   18    18    19    1
   19    18    20    2
@<TRIPOS>SUBSTRUCTURE
       1 MOL1            1 RESIDUE      1      MOL     
@<SCITEGIC>MOL_PROPERTY
VConf Rank
SciTegic.value.IntegerValue
554

@<SCITEGIC>MOL_PROPERTY
Conf_Id
SciTegic.value.IntegerValue
66

@<SCITEGIC>MOL_PROPERTY
Delta U+W
SciTegic.value.DoubleValue
1.737

@<SCITEGIC>MOL_PROPERTY
U+W
SciTegic.value.DoubleValue
-50.008

@<SCITEGIC>MOL_PROPERTY
Grad RMS
SciTegic.value.DoubleValue
0.000000

@<SCITEGIC>MOL_PROPERTY
U
SciTegic.value.DoubleValue
11.091

@<SCITEGIC>MOL_PROPERTY
W
SciTegic.value.DoubleValue
-61.099

@<SCITEGIC>MOL_PROPERTY
W(PB)
SciTegic.value.DoubleValue
-63.213

@<SCITEGIC>MOL_PROPERTY
W(SA)
SciTegic.value.DoubleValue
2.114

@<SCITEGIC>MOL_PROPERTY
Valence
SciTegic.value.DoubleValue
9.664

@<SCITEGIC>MOL_PROPERTY
Coulomb
SciTegic.value.DoubleValue
0.658

@<SCITEGIC>MOL_PROPERTY
VdW
SciTegic.value.DoubleValue
0.769

@<SCITEGIC>MOL_PROPERTY
VdW6
SciTegic.value.DoubleValue
-9.171

@<SCITEGIC>MOL_PROPERTY
VdW12
SciTegic.value.DoubleValue
9.940

@<SCITEGIC>MOL_PROPERTY
Bond
SciTegic.value.DoubleValue
0.244

@<SCITEGIC>MOL_PROPERTY
Angle
SciTegic.value.DoubleValue
3.658

@<SCITEGIC>MOL_PROPERTY
Pdih
SciTegic.value.DoubleValue
5.762

@<SCITEGIC>MOL_PROPERTY
Idih
SciTegic.value.DoubleValue
0.001

@<SCITEGIC>MOL_PROPERTY
Tether
SciTegic.value.DoubleValue
0.000

@<TRIPOS>MOLECULE
guest-s22_confgen4.mol2 : confsearch ligand conformer 555
          20          19           1
SMALL
USER_CHARGES
 
@<TRIPOS>ATOM
       1    C1      17.837577   20.305476   23.644564 C.2        1 MOL1        -0.2535
       2    H1      18.787656   20.467484   24.148832 H          1 MOL1         0.0845
       3    H2      17.099383   21.102408   23.714609 H          1 MOL1         0.0845
       4    C2      17.570673   19.181814   22.970009 C.2        1 MOL1        -0.1324
       5    H3      16.601013   19.071045   22.485415 H          1 MOL1         0.0833
       6    C3      18.502234   17.995020   22.784777 C.3        1 MOL1        -0.1813
       7    H4      18.329034   17.559049   21.793020 H          1 MOL1         0.0753
       8    H5      18.210577   17.207392   23.491999 H          1 MOL1         0.0753
       9    C4      20.016514   18.289369   22.947971 C.3        1 MOL1        -0.1855
      10    H6      20.206579   18.671992   23.959390 H          1 MOL1         0.0755
      11    H7      20.568131   17.341772   22.881571 H          1 MOL1         0.0755
      12    C5      20.600413   19.277572   21.906233 C.3        1 MOL1        -0.1855
      13    H8      21.649138   19.478907   22.164726 H          1 MOL1         0.0755
      14    H9      20.079354   20.242320   21.964163 H          1 MOL1         0.0755
      15    C6      20.540652   18.749348   20.449412 C.3        1 MOL1        -0.1958
      16    H10     21.012943   17.762002   20.384298 H          1 MOL1         0.0753
      17    H11     19.500484   18.636285   20.123667 H          1 MOL1         0.0753
      18    C7      21.239736   19.672957   19.458214 C.2        1 MOL1         0.6174
      19    O1      20.580005   20.534377   18.910982 O.co2      1 MOL1        -0.6695
      20    O2      22.430002   19.515791   19.269804 O.co2      1 MOL1        -0.6695
@<TRIPOS>BOND
    1     1     2    1
    2     1     3    1
    3     1     4    2
    4     4     5    1
    5     4     6    1
    6     6     7    1
    7     6     8    1
    8     6     9    1
    9     9    10    1
   10     9    11    1
   11     9    12    1
   12    12    13    1
   13    12    14    1
   14    12    15    1
   15    15    16    1
   16    15    17    1
   17    15    18    1
   18    18    19    1
   19    18    20    2
@<TRIPOS>SUBSTRUCTURE
       1 MOL1            1 RESIDUE      1      MOL     
@<SCITEGIC>MOL_PROPERTY
VConf Rank
SciTegic.value.IntegerValue
555

@<SCITEGIC>MOL_PROPERTY
Conf_Id
SciTegic.value.IntegerValue
64

@<SCITEGIC>MOL_PROPERTY
Delta U+W
SciTegic.value.DoubleValue
0.366

@<SCITEGIC>MOL_PROPERTY
U+W
SciTegic.value.DoubleValue
-51.379

@<SCITEGIC>MOL_PROPERTY
Grad RMS
SciTegic.value.DoubleValue
0.000000

@<SCITEGIC>MOL_PROPERTY
U
SciTegic.value.DoubleValue
10.000

@<SCITEGIC>MOL_PROPERTY
W
SciTegic.value.DoubleValue
-61.379

@<SCITEGIC>MOL_PROPERTY
W(PB)
SciTegic.value.DoubleValue
-63.541

@<SCITEGIC>MOL_PROPERTY
W(SA)
SciTegic.value.DoubleValue
2.162

@<SCITEGIC>MOL_PROPERTY
Valence
SciTegic.value.DoubleValue
9.398

@<SCITEGIC>MOL_PROPERTY
Coulomb
SciTegic.value.DoubleValue
-0.504

@<SCITEGIC>MOL_PROPERTY
VdW
SciTegic.value.DoubleValue
1.105

@<SCITEGIC>MOL_PROPERTY
VdW6
SciTegic.value.DoubleValue
-7.975

@<SCITEGIC>MOL_PROPERTY
VdW12
SciTegic.value.DoubleValue
9.080

@<SCITEGIC>MOL_PROPERTY
Bond
SciTegic.value.DoubleValue
0.216

@<SCITEGIC>MOL_PROPERTY
Angle
SciTegic.value.DoubleValue
3.417

@<SCITEGIC>MOL_PROPERTY
Pdih
SciTegic.value.DoubleValue
5.765

@<SCITEGIC>MOL_PROPERTY
Idih
SciTegic.value.DoubleValue
0.001

@<SCITEGIC>MOL_PROPERTY
Tether
SciTegic.value.DoubleValue
0.000

@<TRIPOS>MOLECULE
guest-s22_confgen4.mol2 : confsearch ligand conformer 556
          20          19           1
SMALL
USER_CHARGES
 
@<TRIPOS>ATOM
       1    C1      19.117893   20.348933   19.418598 C.2        1 MOL1        -0.2535
       2    H1      18.088560   20.318338   19.772088 H          1 MOL1         0.0845
       3    H2      19.295419   20.110728   18.371293 H          1 MOL1         0.0845
       4    C2      20.126830   20.662089   20.235906 C.2        1 MOL1        -0.1324
       5    H3      21.150328   20.684597   19.862628 H          1 MOL1         0.0833
       6    C3      19.958354   21.003510   21.701179 C.3        1 MOL1        -0.1813
       7    H4      18.897830   21.156704   21.943039 H          1 MOL1         0.0753
       8    H5      20.463777   21.956215   21.907926 H          1 MOL1         0.0753
       9    C4      20.546842   19.915688   22.627605 C.3        1 MOL1        -0.1855
      10    H6      21.607364   19.762068   22.385163 H          1 MOL1         0.0755
      11    H7      20.510192   20.275493   23.664948 H          1 MOL1         0.0755
      12    C5      19.787125   18.573086   22.528443 C.3        1 MOL1        -0.1855
      13    H8      19.839236   18.188849   21.500399 H          1 MOL1         0.0755
      14    H9      18.723703   18.732100   22.754576 H          1 MOL1         0.0755
      15    C6      20.363838   17.511623   23.497318 C.3        1 MOL1        -0.1958
      16    H10     21.422809   17.332751   23.275567 H          1 MOL1         0.0753
      17    H11     20.304982   17.870883   24.531704 H          1 MOL1         0.0753
      18    C7      19.630780   16.177310   23.417748 C.2        1 MOL1         0.6174
      19    O1      18.658292   16.014055   24.127934 O.co2      1 MOL1        -0.6695
      20    O2      20.042973   15.341592   22.637773 O.co2      1 MOL1        -0.6695
@<TRIPOS>BOND
    1     1     2    1
    2     1     3    1
    3     1     4    2
    4     4     5    1
    5     4     6    1
    6     6     7    1
    7     6     8    1
    8     6     9    1
    9     9    10    1
   10     9    11    1
   11     9    12    1
   12    12    13    1
   13    12    14    1
   14    12    15    1
   15    15    16    1
   16    15    17    1
   17    15    18    1
   18    18    19    1
   19    18    20    2
@<TRIPOS>SUBSTRUCTURE
       1 MOL1            1 RESIDUE      1      MOL     
@<SCITEGIC>MOL_PROPERTY
VConf Rank
SciTegic.value.IntegerValue
556

@<SCITEGIC>MOL_PROPERTY
Conf_Id
SciTegic.value.IntegerValue
42

@<SCITEGIC>MOL_PROPERTY
Delta U+W
SciTegic.value.DoubleValue
-0.601

@<SCITEGIC>MOL_PROPERTY
U+W
SciTegic.value.DoubleValue
-52.347

@<SCITEGIC>MOL_PROPERTY
Grad RMS
SciTegic.value.DoubleValue
0.000000

@<SCITEGIC>MOL_PROPERTY
U
SciTegic.value.DoubleValue
8.428

@<SCITEGIC>MOL_PROPERTY
W
SciTegic.value.DoubleValue
-60.774

@<SCITEGIC>MOL_PROPERTY
W(PB)
SciTegic.value.DoubleValue
-62.982

@<SCITEGIC>MOL_PROPERTY
W(SA)
SciTegic.value.DoubleValue
2.208

@<SCITEGIC>MOL_PROPERTY
Valence
SciTegic.value.DoubleValue
9.231

@<SCITEGIC>MOL_PROPERTY
Coulomb
SciTegic.value.DoubleValue
-1.304

@<SCITEGIC>MOL_PROPERTY
VdW
SciTegic.value.DoubleValue
0.501

@<SCITEGIC>MOL_PROPERTY
VdW6
SciTegic.value.DoubleValue
-6.515

@<SCITEGIC>MOL_PROPERTY
VdW12
SciTegic.value.DoubleValue
7.016

@<SCITEGIC>MOL_PROPERTY
Bond
SciTegic.value.DoubleValue
0.103

@<SCITEGIC>MOL_PROPERTY
Angle
SciTegic.value.DoubleValue
2.328

@<SCITEGIC>MOL_PROPERTY
Pdih
SciTegic.value.DoubleValue
6.799

@<SCITEGIC>MOL_PROPERTY
Idih
SciTegic.value.DoubleValue
0.000

@<SCITEGIC>MOL_PROPERTY
Tether
SciTegic.value.DoubleValue
0.000

@<TRIPOS>MOLECULE
guest-s22_confgen4.mol2 : confsearch ligand conformer 557
          20          19           1
SMALL
USER_CHARGES
 
@<TRIPOS>ATOM
       1    C1      19.863659   19.804814   19.110353 C.2        1 MOL1        -0.2535
       2    H1      20.952241   19.788941   19.098856 H          1 MOL1         0.0845
       3    H2      19.366228   20.531423   18.470276 H          1 MOL1         0.0845
       4    C2      19.162162   18.969701   19.881399 C.2        1 MOL1        -0.1324
       5    H3      18.073017   19.003868   19.880359 H          1 MOL1         0.0833
       6    C3      19.782171   17.935529   20.796814 C.3        1 MOL1        -0.1813
       7    H4      20.856942   17.834066   20.593882 H          1 MOL1         0.0753
       8    H5      19.333503   16.955486   20.587000 H          1 MOL1         0.0753
       9    C4      19.568116   18.271930   22.289789 C.3        1 MOL1        -0.1855
      10    H6      18.492214   18.366269   22.491960 H          1 MOL1         0.0755
      11    H7      19.928265   17.431549   22.898716 H          1 MOL1         0.0755
      12    C5      20.301590   19.563779   22.721544 C.3        1 MOL1        -0.1855
      13    H8      19.920862   20.420838   22.148963 H          1 MOL1         0.0755
      14    H9      21.368835   19.472034   22.479054 H          1 MOL1         0.0755
      15    C6      20.151950   19.855830   24.237175 C.3        1 MOL1        -0.1958
      16    H10     20.505565   19.000229   24.825079 H          1 MOL1         0.0753
      17    H11     20.782487   20.710397   24.509443 H          1 MOL1         0.0753
      18    C7      18.725138   20.185177   24.666766 C.2        1 MOL1         0.6174
      19    O1      18.082305   19.325285   25.236431 O.co2      1 MOL1        -0.6695
      20    O2      18.300721   21.300407   24.436056 O.co2      1 MOL1        -0.6695
@<TRIPOS>BOND
    1     1     2    1
    2     1     3    1
    3     1     4    2
    4     4     5    1
    5     4     6    1
    6     6     7    1
    7     6     8    1
    8     6     9    1
    9     9    10    1
   10     9    11    1
   11     9    12    1
   12    12    13    1
   13    12    14    1
   14    12    15    1
   15    15    16    1
   16    15    17    1
   17    15    18    1
   18    18    19    1
   19    18    20    2
@<TRIPOS>SUBSTRUCTURE
       1 MOL1            1 RESIDUE      1      MOL     
@<SCITEGIC>MOL_PROPERTY
VConf Rank
SciTegic.value.IntegerValue
557

@<SCITEGIC>MOL_PROPERTY
Conf_Id
SciTegic.value.IntegerValue
68

@<SCITEGIC>MOL_PROPERTY
Delta U+W
SciTegic.value.DoubleValue
0.492

@<SCITEGIC>MOL_PROPERTY
U+W
SciTegic.value.DoubleValue
-51.253

@<SCITEGIC>MOL_PROPERTY
Grad RMS
SciTegic.value.DoubleValue
0.000000

@<SCITEGIC>MOL_PROPERTY
U
SciTegic.value.DoubleValue
10.179

@<SCITEGIC>MOL_PROPERTY
W
SciTegic.value.DoubleValue
-61.432

@<SCITEGIC>MOL_PROPERTY
W(PB)
SciTegic.value.DoubleValue
-63.627

@<SCITEGIC>MOL_PROPERTY
W(SA)
SciTegic.value.DoubleValue
2.195

@<SCITEGIC>MOL_PROPERTY
Valence
SciTegic.value.DoubleValue
9.483

@<SCITEGIC>MOL_PROPERTY
Coulomb
SciTegic.value.DoubleValue
0.361

@<SCITEGIC>MOL_PROPERTY
VdW
SciTegic.value.DoubleValue
0.335

@<SCITEGIC>MOL_PROPERTY
VdW6
SciTegic.value.DoubleValue
-7.385

@<SCITEGIC>MOL_PROPERTY
VdW12
SciTegic.value.DoubleValue
7.720

@<SCITEGIC>MOL_PROPERTY
Bond
SciTegic.value.DoubleValue
0.125

@<SCITEGIC>MOL_PROPERTY
Angle
SciTegic.value.DoubleValue
2.487

@<SCITEGIC>MOL_PROPERTY
Pdih
SciTegic.value.DoubleValue
6.870

@<SCITEGIC>MOL_PROPERTY
Idih
SciTegic.value.DoubleValue
0.001

@<SCITEGIC>MOL_PROPERTY
Tether
SciTegic.value.DoubleValue
0.000

@<TRIPOS>MOLECULE
guest-s22_confgen4.mol2 : confsearch ligand conformer 558
          20          19           1
SMALL
USER_CHARGES
 
@<TRIPOS>ATOM
       1    C1      19.736138   16.160109   22.917998 C.2        1 MOL1        -0.2535
       2    H1      19.003756   16.109631   23.722087 H          1 MOL1         0.0845
       3    H2      20.583653   15.478686   22.968578 H          1 MOL1         0.0845
       4    C2      19.605478   17.025265   21.908974 C.2        1 MOL1        -0.1324
       5    H3      20.348828   17.057244   21.112949 H          1 MOL1         0.0833
       6    C3      18.452953   17.996860   21.769439 C.3        1 MOL1        -0.1813
       7    H4      17.611079   17.664931   22.392006 H          1 MOL1         0.0753
       8    H5      18.087656   17.997640   20.733797 H          1 MOL1         0.0753
       9    C4      18.841017   19.433298   22.186853 C.3        1 MOL1        -0.1855
      10    H6      17.937361   20.057916   22.188943 H          1 MOL1         0.0755
      11    H7      19.216242   19.422664   23.219661 H          1 MOL1         0.0755
      12    C5      19.894769   20.068323   21.248728 C.3        1 MOL1        -0.1855
      13    H8      19.529516   20.028354   20.213691 H          1 MOL1         0.0755
      14    H9      20.825566   19.485646   21.279061 H          1 MOL1         0.0755
      15    C6      20.206485   21.542425   21.615761 C.3        1 MOL1        -0.1958
      16    H10     20.865924   21.977579   20.855638 H          1 MOL1         0.0753
      17    H11     19.284850   22.136857   21.614292 H          1 MOL1         0.0753
      18    C7      20.893184   21.712432   22.967937 C.2        1 MOL1         0.6174
      19    O1      22.080596   21.464087   23.041993 O.co2      1 MOL1        -0.6695
      20    O2      20.228420   22.106844   23.905835 O.co2      1 MOL1        -0.6695
@<TRIPOS>BOND
    1     1     2    1
    2     1     3    1
    3     1     4    2
    4     4     5    1
    5     4     6    1
    6     6     7    1
    7     6     8    1
    8     6     9    1
    9     9    10    1
   10     9    11    1
   11     9    12    1
   12    12    13    1
   13    12    14    1
   14    12    15    1
   15    15    16    1
   16    15    17    1
   17    15    18    1
   18    18    19    1
   19    18    20    2
@<TRIPOS>SUBSTRUCTURE
       1 MOL1            1 RESIDUE      1      MOL     
@<SCITEGIC>MOL_PROPERTY
VConf Rank
SciTegic.value.IntegerValue
558

@<SCITEGIC>MOL_PROPERTY
Conf_Id
SciTegic.value.IntegerValue
87

@<SCITEGIC>MOL_PROPERTY
Delta U+W
SciTegic.value.DoubleValue
0.339

@<SCITEGIC>MOL_PROPERTY
U+W
SciTegic.value.DoubleValue
-51.407

@<SCITEGIC>MOL_PROPERTY
Grad RMS
SciTegic.value.DoubleValue
0.000000

@<SCITEGIC>MOL_PROPERTY
U
SciTegic.value.DoubleValue
10.461

@<SCITEGIC>MOL_PROPERTY
W
SciTegic.value.DoubleValue
-61.867

@<SCITEGIC>MOL_PROPERTY
W(PB)
SciTegic.value.DoubleValue
-64.045

@<SCITEGIC>MOL_PROPERTY
W(SA)
SciTegic.value.DoubleValue
2.178

@<SCITEGIC>MOL_PROPERTY
Valence
SciTegic.value.DoubleValue
9.555

@<SCITEGIC>MOL_PROPERTY
Coulomb
SciTegic.value.DoubleValue
0.483

@<SCITEGIC>MOL_PROPERTY
VdW
SciTegic.value.DoubleValue
0.423

@<SCITEGIC>MOL_PROPERTY
VdW6
SciTegic.value.DoubleValue
-7.223

@<SCITEGIC>MOL_PROPERTY
VdW12
SciTegic.value.DoubleValue
7.646

@<SCITEGIC>MOL_PROPERTY
Bond
SciTegic.value.DoubleValue
0.126

@<SCITEGIC>MOL_PROPERTY
Angle
SciTegic.value.DoubleValue
2.492

@<SCITEGIC>MOL_PROPERTY
Pdih
SciTegic.value.DoubleValue
6.936

@<SCITEGIC>MOL_PROPERTY
Idih
SciTegic.value.DoubleValue
0.001

@<SCITEGIC>MOL_PROPERTY
Tether
SciTegic.value.DoubleValue
0.000

@<TRIPOS>MOLECULE
guest-s22_confgen4.mol2 : confsearch ligand conformer 559
          20          19           1
SMALL
USER_CHARGES
 
@<TRIPOS>ATOM
       1    C1      19.778052   17.066286   19.826142 C.2        1 MOL1        -0.2535
       2    H1      18.843272   17.209986   19.286741 H          1 MOL1         0.0845
       3    H2      20.666969   16.841270   19.239444 H          1 MOL1         0.0845
       4    C2      19.834880   17.164254   21.156888 C.2        1 MOL1        -0.1324
       5    H3      20.777938   17.008157   21.679444 H          1 MOL1         0.0833
       6    C3      18.638119   17.461296   22.035031 C.3        1 MOL1        -0.1813
       7    H4      18.840094   17.154457   23.069918 H          1 MOL1         0.0753
       8    H5      17.797282   16.839685   21.698873 H          1 MOL1         0.0753
       9    C4      18.196267   18.945417   21.998703 C.3        1 MOL1        -0.1855
      10    H6      18.175328   19.305920   20.961142 H          1 MOL1         0.0755
      11    H7      17.158854   18.997021   22.356256 H          1 MOL1         0.0755
      12    C5      19.043784   19.900216   22.876868 C.3        1 MOL1        -0.1855
      13    H8      19.073922   19.529068   23.910493 H          1 MOL1         0.0755
      14    H9      18.536615   20.874292   22.914886 H          1 MOL1         0.0755
      15    C6      20.489541   20.122912   22.363589 C.3        1 MOL1        -0.1958
      16    H10     21.075024   19.202224   22.450901 H          1 MOL1         0.0753
      17    H11     20.477178   20.403988   21.303794 H          1 MOL1         0.0753
      18    C7      21.228110   21.210991   23.134453 C.2        1 MOL1         0.6174
      19    O1      21.841599   20.891143   24.133562 O.co2      1 MOL1        -0.6695
      20    O2      21.153525   22.353726   22.727667 O.co2      1 MOL1        -0.6695
@<TRIPOS>BOND
    1     1     2    1
    2     1     3    1
    3     1     4    2
    4     4     5    1
    5     4     6    1
    6     6     7    1
    7     6     8    1
    8     6     9    1
    9     9    10    1
   10     9    11    1
   11     9    12    1
   12    12    13    1
   13    12    14    1
   14    12    15    1
   15    15    16    1
   16    15    17    1
   17    15    18    1
   18    18    19    1
   19    18    20    2
@<TRIPOS>SUBSTRUCTURE
       1 MOL1            1 RESIDUE      1      MOL     
@<SCITEGIC>MOL_PROPERTY
VConf Rank
SciTegic.value.IntegerValue
559

@<SCITEGIC>MOL_PROPERTY
Conf_Id
SciTegic.value.IntegerValue
51

@<SCITEGIC>MOL_PROPERTY
Delta U+W
SciTegic.value.DoubleValue
1.709

@<SCITEGIC>MOL_PROPERTY
U+W
SciTegic.value.DoubleValue
-50.036

@<SCITEGIC>MOL_PROPERTY
Grad RMS
SciTegic.value.DoubleValue
0.000000

@<SCITEGIC>MOL_PROPERTY
U
SciTegic.value.DoubleValue
10.643

@<SCITEGIC>MOL_PROPERTY
W
SciTegic.value.DoubleValue
-60.679

@<SCITEGIC>MOL_PROPERTY
W(PB)
SciTegic.value.DoubleValue
-62.882

@<SCITEGIC>MOL_PROPERTY
W(SA)
SciTegic.value.DoubleValue
2.203

@<SCITEGIC>MOL_PROPERTY
Valence
SciTegic.value.DoubleValue
11.231

@<SCITEGIC>MOL_PROPERTY
Coulomb
SciTegic.value.DoubleValue
-1.077

@<SCITEGIC>MOL_PROPERTY
VdW
SciTegic.value.DoubleValue
0.489

@<SCITEGIC>MOL_PROPERTY
VdW6
SciTegic.value.DoubleValue
-7.546

@<SCITEGIC>MOL_PROPERTY
VdW12
SciTegic.value.DoubleValue
8.035

@<SCITEGIC>MOL_PROPERTY
Bond
SciTegic.value.DoubleValue
0.159

@<SCITEGIC>MOL_PROPERTY
Angle
SciTegic.value.DoubleValue
3.005

@<SCITEGIC>MOL_PROPERTY
Pdih
SciTegic.value.DoubleValue
8.065

@<SCITEGIC>MOL_PROPERTY
Idih
SciTegic.value.DoubleValue
0.002

@<SCITEGIC>MOL_PROPERTY
Tether
SciTegic.value.DoubleValue
0.000

@<TRIPOS>MOLECULE
guest-s22_confgen4.mol2 : confsearch ligand conformer 560
          20          19           1
SMALL
USER_CHARGES
 
@<TRIPOS>ATOM
       1    C1      18.608608   18.824688   19.324282 C.2        1 MOL1        -0.2535
       2    H1      19.087970   19.642574   18.788847 H          1 MOL1         0.0845
       3    H2      17.589514   18.567731   19.040662 H          1 MOL1         0.0845
       4    C2      19.243850   18.162112   20.294424 C.2        1 MOL1        -0.1324
       5    H3      18.750560   17.340565   20.812613 H          1 MOL1         0.0833
       6    C3      20.662982   18.457042   20.731095 C.3        1 MOL1        -0.1813
       7    H4      21.284963   18.577632   19.833873 H          1 MOL1         0.0753
       8    H5      21.081687   17.596791   21.270159 H          1 MOL1         0.0753
       9    C4      20.792422   19.737177   21.593457 C.3        1 MOL1        -0.1855
      10    H6      21.842072   20.059681   21.562442 H          1 MOL1         0.0755
      11    H7      20.213017   20.554297   21.142308 H          1 MOL1         0.0755
      12    C5      20.398073   19.563859   23.081931 C.3        1 MOL1        -0.1855
      13    H8      20.697744   20.470690   23.625388 H          1 MOL1         0.0755
      14    H9      20.969144   18.736908   23.525855 H          1 MOL1         0.0755
      15    C6      18.883265   19.332756   23.316914 C.3        1 MOL1        -0.1958
      16    H10     18.297072   20.101134   22.798942 H          1 MOL1         0.0753
      17    H11     18.575487   18.361562   22.916741 H          1 MOL1         0.0753
      18    C7      18.504196   19.361601   24.793090 C.2        1 MOL1         0.6174
      19    O1      18.559657   18.322332   25.420572 O.co2      1 MOL1        -0.6695
      20    O2      18.182962   20.426646   25.282345 O.co2      1 MOL1        -0.6695
@<TRIPOS>BOND
    1     1     2    1
    2     1     3    1
    3     1     4    2
    4     4     5    1
    5     4     6    1
    6     6     7    1
    7     6     8    1
    8     6     9    1
    9     9    10    1
   10     9    11    1
   11     9    12    1
   12    12    13    1
   13    12    14    1
   14    12    15    1
   15    15    16    1
   16    15    17    1
   17    15    18    1
   18    18    19    1
   19    18    20    2
@<TRIPOS>SUBSTRUCTURE
       1 MOL1            1 RESIDUE      1      MOL     
@<SCITEGIC>MOL_PROPERTY
VConf Rank
SciTegic.value.IntegerValue
560

@<SCITEGIC>MOL_PROPERTY
Conf_Id
SciTegic.value.IntegerValue
91

@<SCITEGIC>MOL_PROPERTY
Delta U+W
SciTegic.value.DoubleValue
1.604

@<SCITEGIC>MOL_PROPERTY
U+W
SciTegic.value.DoubleValue
-50.141

@<SCITEGIC>MOL_PROPERTY
Grad RMS
SciTegic.value.DoubleValue
0.000000

@<SCITEGIC>MOL_PROPERTY
U
SciTegic.value.DoubleValue
10.644

@<SCITEGIC>MOL_PROPERTY
W
SciTegic.value.DoubleValue
-60.786

@<SCITEGIC>MOL_PROPERTY
W(PB)
SciTegic.value.DoubleValue
-62.965

@<SCITEGIC>MOL_PROPERTY
W(SA)
SciTegic.value.DoubleValue
2.179

@<SCITEGIC>MOL_PROPERTY
Valence
SciTegic.value.DoubleValue
11.230

@<SCITEGIC>MOL_PROPERTY
Coulomb
SciTegic.value.DoubleValue
-1.075

@<SCITEGIC>MOL_PROPERTY
VdW
SciTegic.value.DoubleValue
0.489

@<SCITEGIC>MOL_PROPERTY
VdW6
SciTegic.value.DoubleValue
-7.547

@<SCITEGIC>MOL_PROPERTY
VdW12
SciTegic.value.DoubleValue
8.036

@<SCITEGIC>MOL_PROPERTY
Bond
SciTegic.value.DoubleValue
0.159

@<SCITEGIC>MOL_PROPERTY
Angle
SciTegic.value.DoubleValue
3.006

@<SCITEGIC>MOL_PROPERTY
Pdih
SciTegic.value.DoubleValue
8.064

@<SCITEGIC>MOL_PROPERTY
Idih
SciTegic.value.DoubleValue
0.002

@<SCITEGIC>MOL_PROPERTY
Tether
SciTegic.value.DoubleValue
0.000

@<TRIPOS>MOLECULE
guest-s22_confgen4.mol2 : confsearch ligand conformer 561
          20          19           1
SMALL
USER_CHARGES
 
@<TRIPOS>ATOM
       1    C1      20.901617   22.182675   20.342784 C.2        1 MOL1        -0.2535
       2    H1      20.243140   21.964283   19.503556 H          1 MOL1         0.0845
       3    H2      21.705982   22.897059   20.175665 H          1 MOL1         0.0845
       4    C2      20.734273   21.597472   21.531558 C.2        1 MOL1        -0.1324
       5    H3      21.405044   21.829464   22.358543 H          1 MOL1         0.0833
       6    C3      19.641216   20.598003   21.838041 C.3        1 MOL1        -0.1813
       7    H4      18.873137   20.621727   21.052995 H          1 MOL1         0.0753
       8    H5      19.142413   20.875128   22.776413 H          1 MOL1         0.0753
       9    C4      20.210498   19.168787   21.956924 C.3        1 MOL1        -0.1855
      10    H6      20.711899   18.898174   21.017376 H          1 MOL1         0.0755
      11    H7      20.975368   19.144532   22.745306 H          1 MOL1         0.0755
      12    C5      19.107351   18.135151   22.272798 C.3        1 MOL1        -0.1855
      13    H8      18.342192   18.158480   21.484425 H          1 MOL1         0.0755
      14    H9      18.604692   18.405937   23.211698 H          1 MOL1         0.0755
      15    C6      19.680224   16.697754   22.391562 C.3        1 MOL1        -0.1958
      16    H10     20.177848   16.418509   21.455450 H          1 MOL1         0.0753
      17    H11     20.440156   16.665577   23.181103 H          1 MOL1         0.0753
      18    C7      18.651976   15.609358   22.703679 C.2        1 MOL1         0.6174
      19    O1      19.063412   14.470729   22.805579 O.co2      1 MOL1        -0.6695
      20    O2      17.480637   15.907141   22.837611 O.co2      1 MOL1        -0.6695
@<TRIPOS>BOND
    1     1     2    1
    2     1     3    1
    3     1     4    2
    4     4     5    1
    5     4     6    1
    6     6     7    1
    7     6     8    1
    8     6     9    1
    9     9    10    1
   10     9    11    1
   11     9    12    1
   12    12    13    1
   13    12    14    1
   14    12    15    1
   15    15    16    1
   16    15    17    1
   17    15    18    1
   18    18    19    1
   19    18    20    2
@<TRIPOS>SUBSTRUCTURE
       1 MOL1            1 RESIDUE      1      MOL     
@<SCITEGIC>MOL_PROPERTY
VConf Rank
SciTegic.value.IntegerValue
561

@<SCITEGIC>MOL_PROPERTY
Conf_Id
SciTegic.value.IntegerValue
33

@<SCITEGIC>MOL_PROPERTY
Delta U+W
SciTegic.value.DoubleValue
0.000

@<SCITEGIC>MOL_PROPERTY
U+W
SciTegic.value.DoubleValue
-51.745

@<SCITEGIC>MOL_PROPERTY
Grad RMS
SciTegic.value.DoubleValue
0.000000

@<SCITEGIC>MOL_PROPERTY
U
SciTegic.value.DoubleValue
7.593

@<SCITEGIC>MOL_PROPERTY
W
SciTegic.value.DoubleValue
-59.338

@<SCITEGIC>MOL_PROPERTY
W(PB)
SciTegic.value.DoubleValue
-61.574

@<SCITEGIC>MOL_PROPERTY
W(SA)
SciTegic.value.DoubleValue
2.236

@<SCITEGIC>MOL_PROPERTY
Valence
SciTegic.value.DoubleValue
9.570

@<SCITEGIC>MOL_PROPERTY
Coulomb
SciTegic.value.DoubleValue
-3.091

@<SCITEGIC>MOL_PROPERTY
VdW
SciTegic.value.DoubleValue
1.114

@<SCITEGIC>MOL_PROPERTY
VdW6
SciTegic.value.DoubleValue
-6.064

@<SCITEGIC>MOL_PROPERTY
VdW12
SciTegic.value.DoubleValue
7.178

@<SCITEGIC>MOL_PROPERTY
Bond
SciTegic.value.DoubleValue
0.117

@<SCITEGIC>MOL_PROPERTY
Angle
SciTegic.value.DoubleValue
2.692

@<SCITEGIC>MOL_PROPERTY
Pdih
SciTegic.value.DoubleValue
6.761

@<SCITEGIC>MOL_PROPERTY
Idih
SciTegic.value.DoubleValue
0.000

@<SCITEGIC>MOL_PROPERTY
Tether
SciTegic.value.DoubleValue
0.000

@<TRIPOS>MOLECULE
guest-s22_confgen4.mol2 : confsearch ligand conformer 562
          20          19           1
SMALL
USER_CHARGES
 
@<TRIPOS>ATOM
       1    C1      22.294157   18.388872   19.462751 C.2        1 MOL1        -0.2535
       2    H1      22.817588   17.769665   20.189513 H          1 MOL1         0.0845
       3    H2      22.822959   18.639120   18.544599 H          1 MOL1         0.0845
       4    C2      21.052932   18.828414   19.685988 C.2        1 MOL1        -0.1324
       5    H3      20.546944   19.447926   18.945844 H          1 MOL1         0.0833
       6    C3      20.256598   18.521697   20.934788 C.3        1 MOL1        -0.1813
       7    H4      20.727031   17.700888   21.492965 H          1 MOL1         0.0753
       8    H5      19.255197   18.177198   20.647444 H          1 MOL1         0.0753
       9    C4      20.148886   19.766661   21.843783 C.3        1 MOL1        -0.1855
      10    H6      21.160567   20.143364   22.048567 H          1 MOL1         0.0755
      11    H7      19.621289   20.569237   21.310391 H          1 MOL1         0.0755
      12    C5      19.444139   19.487012   23.192601 C.3        1 MOL1        -0.1855
      13    H8      19.511172   20.387786   23.818386 H          1 MOL1         0.0755
      14    H9      19.978498   18.693604   23.733301 H          1 MOL1         0.0755
      15    C6      17.951153   19.095708   23.041445 C.3        1 MOL1        -0.1958
      16    H10     17.415784   19.860256   22.465921 H          1 MOL1         0.0753
      17    H11     17.852528   18.149726   22.497263 H          1 MOL1         0.0753
      18    C7      17.245932   18.933936   24.383258 C.2        1 MOL1         0.6174
      19    O1      17.266154   17.840973   24.914041 O.co2      1 MOL1        -0.6695
      20    O2      16.711859   19.910006   24.871918 O.co2      1 MOL1        -0.6695
@<TRIPOS>BOND
    1     1     2    1
    2     1     3    1
    3     1     4    2
    4     4     5    1
    5     4     6    1
    6     6     7    1
    7     6     8    1
    8     6     9    1
    9     9    10    1
   10     9    11    1
   11     9    12    1
   12    12    13    1
   13    12    14    1
   14    12    15    1
   15    15    16    1
   16    15    17    1
   17    15    18    1
   18    18    19    1
   19    18    20    2
@<TRIPOS>SUBSTRUCTURE
       1 MOL1            1 RESIDUE      1      MOL     
@<SCITEGIC>MOL_PROPERTY
VConf Rank
SciTegic.value.IntegerValue
562

@<SCITEGIC>MOL_PROPERTY
Conf_Id
SciTegic.value.IntegerValue
37

@<SCITEGIC>MOL_PROPERTY
Delta U+W
SciTegic.value.DoubleValue
-0.384

@<SCITEGIC>MOL_PROPERTY
U+W
SciTegic.value.DoubleValue
-52.130

@<SCITEGIC>MOL_PROPERTY
Grad RMS
SciTegic.value.DoubleValue
0.000000

@<SCITEGIC>MOL_PROPERTY
U
SciTegic.value.DoubleValue
7.491

@<SCITEGIC>MOL_PROPERTY
W
SciTegic.value.DoubleValue
-59.621

@<SCITEGIC>MOL_PROPERTY
W(PB)
SciTegic.value.DoubleValue
-61.853

@<SCITEGIC>MOL_PROPERTY
W(SA)
SciTegic.value.DoubleValue
2.232

@<SCITEGIC>MOL_PROPERTY
Valence
SciTegic.value.DoubleValue
9.604

@<SCITEGIC>MOL_PROPERTY
Coulomb
SciTegic.value.DoubleValue
-2.799

@<SCITEGIC>MOL_PROPERTY
VdW
SciTegic.value.DoubleValue
0.686

@<SCITEGIC>MOL_PROPERTY
VdW6
SciTegic.value.DoubleValue
-6.435

@<SCITEGIC>MOL_PROPERTY
VdW12
SciTegic.value.DoubleValue
7.121

@<SCITEGIC>MOL_PROPERTY
Bond
SciTegic.value.DoubleValue
0.124

@<SCITEGIC>MOL_PROPERTY
Angle
SciTegic.value.DoubleValue
2.493

@<SCITEGIC>MOL_PROPERTY
Pdih
SciTegic.value.DoubleValue
6.986

@<SCITEGIC>MOL_PROPERTY
Idih
SciTegic.value.DoubleValue
0.001

@<SCITEGIC>MOL_PROPERTY
Tether
SciTegic.value.DoubleValue
0.000

@<TRIPOS>MOLECULE
guest-s22_confgen4.mol2 : confsearch ligand conformer 563
          20          19           1
SMALL
USER_CHARGES
 
@<TRIPOS>ATOM
       1    C1      18.327772   21.205548   19.831199 C.2        1 MOL1        -0.2535
       2    H1      17.866539   21.930423   19.162610 H          1 MOL1         0.0845
       3    H2      17.844516   20.234096   19.910524 H          1 MOL1         0.0845
       4    C2      19.436054   21.514441   20.513994 C.2        1 MOL1        -0.1324
       5    H3      19.874290   22.504849   20.392874 H          1 MOL1         0.0833
       6    C3      20.189469   20.613897   21.478565 C.3        1 MOL1        -0.1813
       7    H4      20.247354   21.112993   22.455134 H          1 MOL1         0.0753
       8    H5      21.227599   20.517421   21.133437 H          1 MOL1         0.0753
       9    C4      19.583935   19.203055   21.665213 C.3        1 MOL1        -0.1855
      10    H6      18.551617   19.292166   22.030541 H          1 MOL1         0.0755
      11    H7      19.542473   18.690142   20.694497 H          1 MOL1         0.0755
      12    C5      20.407051   18.353812   22.658334 C.3        1 MOL1        -0.1855
      13    H8      20.452374   18.861731   23.631767 H          1 MOL1         0.0755
      14    H9      21.441201   18.260948   22.298453 H          1 MOL1         0.0755
      15    C6      19.802716   16.940557   22.846942 C.3        1 MOL1        -0.1958
      16    H10     18.773835   17.015120   23.219028 H          1 MOL1         0.0753
      17    H11     19.762609   16.414360   21.885635 H          1 MOL1         0.0753
      18    C7      20.598364   16.082148   23.823705 C.2        1 MOL1         0.6174
      19    O1      20.304276   16.131424   25.001725 O.co2      1 MOL1        -0.6695
      20    O2      21.504016   15.402010   23.383417 O.co2      1 MOL1        -0.6695
@<TRIPOS>BOND
    1     1     2    1
    2     1     3    1
    3     1     4    2
    4     4     5    1
    5     4     6    1
    6     6     7    1
    7     6     8    1
    8     6     9    1
    9     9    10    1
   10     9    11    1
   11     9    12    1
   12    12    13    1
   13    12    14    1
   14    12    15    1
   15    15    16    1
   16    15    17    1
   17    15    18    1
   18    18    19    1
   19    18    20    2
@<TRIPOS>SUBSTRUCTURE
       1 MOL1            1 RESIDUE      1      MOL     
@<SCITEGIC>MOL_PROPERTY
VConf Rank
SciTegic.value.IntegerValue
563

@<SCITEGIC>MOL_PROPERTY
Conf_Id
SciTegic.value.IntegerValue
44

@<SCITEGIC>MOL_PROPERTY
Delta U+W
SciTegic.value.DoubleValue
-1.440

@<SCITEGIC>MOL_PROPERTY
U+W
SciTegic.value.DoubleValue
-53.185

@<SCITEGIC>MOL_PROPERTY
Grad RMS
SciTegic.value.DoubleValue
0.000000

@<SCITEGIC>MOL_PROPERTY
U
SciTegic.value.DoubleValue
6.572

@<SCITEGIC>MOL_PROPERTY
W
SciTegic.value.DoubleValue
-59.757

@<SCITEGIC>MOL_PROPERTY
W(PB)
SciTegic.value.DoubleValue
-62.007

@<SCITEGIC>MOL_PROPERTY
W(SA)
SciTegic.value.DoubleValue
2.249

@<SCITEGIC>MOL_PROPERTY
Valence
SciTegic.value.DoubleValue
7.989

@<SCITEGIC>MOL_PROPERTY
Coulomb
SciTegic.value.DoubleValue
-2.697

@<SCITEGIC>MOL_PROPERTY
VdW
SciTegic.value.DoubleValue
1.281

@<SCITEGIC>MOL_PROPERTY
VdW6
SciTegic.value.DoubleValue
-6.467

@<SCITEGIC>MOL_PROPERTY
VdW12
SciTegic.value.DoubleValue
7.748

@<SCITEGIC>MOL_PROPERTY
Bond
SciTegic.value.DoubleValue
0.136

@<SCITEGIC>MOL_PROPERTY
Angle
SciTegic.value.DoubleValue
2.854

@<SCITEGIC>MOL_PROPERTY
Pdih
SciTegic.value.DoubleValue
4.997

@<SCITEGIC>MOL_PROPERTY
Idih
SciTegic.value.DoubleValue
0.001

@<SCITEGIC>MOL_PROPERTY
Tether
SciTegic.value.DoubleValue
0.000

@<TRIPOS>MOLECULE
guest-s22_confgen4.mol2 : confsearch ligand conformer 564
          20          19           1
SMALL
USER_CHARGES
 
@<TRIPOS>ATOM
       1    C1      16.759497   19.359570   20.295041 C.2        1 MOL1        -0.2535
       2    H1      17.379728   19.942039   19.615613 H          1 MOL1         0.0845
       3    H2      15.679754   19.441349   20.182251 H          1 MOL1         0.0845
       4    C2      17.298006   18.576287   21.233227 C.2        1 MOL1        -0.1324
       5    H3      16.659162   18.001849   21.903700 H          1 MOL1         0.0833
       6    C3      18.786094   18.411436   21.448437 C.3        1 MOL1        -0.1813
       7    H4      19.333402   18.796851   20.578662 H          1 MOL1         0.0753
       8    H5      19.028851   17.343446   21.528427 H          1 MOL1         0.0753
       9    C4      19.246441   19.144909   22.728303 C.3        1 MOL1        -0.1855
      10    H6      19.052862   20.221478   22.624761 H          1 MOL1         0.0755
      11    H7      18.636185   18.800401   23.574463 H          1 MOL1         0.0755
      12    C5      20.737824   18.913991   23.070027 C.3        1 MOL1        -0.1855
      13    H8      20.930816   17.838229   23.183439 H          1 MOL1         0.0755
      14    H9      20.950175   19.371556   24.046267 H          1 MOL1         0.0755
      15    C6      21.712678   19.507274   22.019916 C.3        1 MOL1        -0.1958
      16    H10     21.590351   19.007253   21.052592 H          1 MOL1         0.0753
      17    H11     21.500613   20.571984   21.865585 H          1 MOL1         0.0753
      18    C7      23.174555   19.370970   22.430120 C.2        1 MOL1         0.6174
      19    O1      23.675109   20.269918   23.076707 O.co2      1 MOL1        -0.6695
      20    O2      23.768681   18.360560   22.109498 O.co2      1 MOL1        -0.6695
@<TRIPOS>BOND
    1     1     2    1
    2     1     3    1
    3     1     4    2
    4     4     5    1
    5     4     6    1
    6     6     7    1
    7     6     8    1
    8     6     9    1
    9     9    10    1
   10     9    11    1
   11     9    12    1
   12    12    13    1
   13    12    14    1
   14    12    15    1
   15    15    16    1
   16    15    17    1
   17    15    18    1
   18    18    19    1
   19    18    20    2
@<TRIPOS>SUBSTRUCTURE
       1 MOL1            1 RESIDUE      1      MOL     
@<SCITEGIC>MOL_PROPERTY
VConf Rank
SciTegic.value.IntegerValue
564

@<SCITEGIC>MOL_PROPERTY
Conf_Id
SciTegic.value.IntegerValue
38

@<SCITEGIC>MOL_PROPERTY
Delta U+W
SciTegic.value.DoubleValue
-0.381

@<SCITEGIC>MOL_PROPERTY
U+W
SciTegic.value.DoubleValue
-52.126

@<SCITEGIC>MOL_PROPERTY
Grad RMS
SciTegic.value.DoubleValue
0.000000

@<SCITEGIC>MOL_PROPERTY
U
SciTegic.value.DoubleValue
7.601

@<SCITEGIC>MOL_PROPERTY
W
SciTegic.value.DoubleValue
-59.727

@<SCITEGIC>MOL_PROPERTY
W(PB)
SciTegic.value.DoubleValue
-61.964

@<SCITEGIC>MOL_PROPERTY
W(SA)
SciTegic.value.DoubleValue
2.236

@<SCITEGIC>MOL_PROPERTY
Valence
SciTegic.value.DoubleValue
9.602

@<SCITEGIC>MOL_PROPERTY
Coulomb
SciTegic.value.DoubleValue
-2.686

@<SCITEGIC>MOL_PROPERTY
VdW
SciTegic.value.DoubleValue
0.685

@<SCITEGIC>MOL_PROPERTY
VdW6
SciTegic.value.DoubleValue
-6.453

@<SCITEGIC>MOL_PROPERTY
VdW12
SciTegic.value.DoubleValue
7.139

@<SCITEGIC>MOL_PROPERTY
Bond
SciTegic.value.DoubleValue
0.125

@<SCITEGIC>MOL_PROPERTY
Angle
SciTegic.value.DoubleValue
2.485

@<SCITEGIC>MOL_PROPERTY
Pdih
SciTegic.value.DoubleValue
6.991

@<SCITEGIC>MOL_PROPERTY
Idih
SciTegic.value.DoubleValue
0.001

@<SCITEGIC>MOL_PROPERTY
Tether
SciTegic.value.DoubleValue
0.000

@<TRIPOS>MOLECULE
guest-s22_confgen4.mol2 : confsearch ligand conformer 565
          20          19           1
SMALL
USER_CHARGES
 
@<TRIPOS>ATOM
       1    C1      20.260360   16.282808   23.963936 C.2        1 MOL1        -0.2535
       2    H1      20.670331   16.839869   24.804879 H          1 MOL1         0.0845
       3    H2      19.865484   15.288653   24.166410 H          1 MOL1         0.0845
       4    C2      20.238615   16.796093   22.731163 C.2        1 MOL1        -0.1324
       5    H3      19.822834   16.222215   21.903243 H          1 MOL1         0.0833
       6    C3      20.768390   18.167051   22.374145 C.3        1 MOL1        -0.1813
       7    H4      21.419716   18.091204   21.493153 H          1 MOL1         0.0753
       8    H5      21.387269   18.560402   23.192073 H          1 MOL1         0.0753
       9    C4      19.616119   19.150858   22.081900 C.3        1 MOL1        -0.1855
      10    H6      19.000103   18.756270   21.261988 H          1 MOL1         0.0755
      11    H7      18.964170   19.220388   22.963603 H          1 MOL1         0.0755
      12    C5      20.140595   20.556777   21.712241 C.3        1 MOL1        -0.1855
      13    H8      20.784716   20.492322   20.824182 H          1 MOL1         0.0755
      14    H9      20.767461   20.936204   22.530566 H          1 MOL1         0.0755
      15    C6      18.996346   21.568611   21.444315 C.3        1 MOL1        -0.1958
      16    H10     18.328032   21.623445   22.312190 H          1 MOL1         0.0753
      17    H11     19.418460   22.570776   21.304812 H          1 MOL1         0.0753
      18    C7      18.162627   21.248409   20.206878 C.2        1 MOL1         0.6174
      19    O1      17.052348   20.780414   20.365721 O.co2      1 MOL1        -0.6695
      20    O2      18.642736   21.486461   19.116042 O.co2      1 MOL1        -0.6695
@<TRIPOS>BOND
    1     1     2    1
    2     1     3    1
    3     1     4    2
    4     4     5    1
    5     4     6    1
    6     6     7    1
    7     6     8    1
    8     6     9    1
    9     9    10    1
   10     9    11    1
   11     9    12    1
   12    12    13    1
   13    12    14    1
   14    12    15    1
   15    15    16    1
   16    15    17    1
   17    15    18    1
   18    18    19    1
   19    18    20    2
@<TRIPOS>SUBSTRUCTURE
       1 MOL1            1 RESIDUE      1      MOL     
@<SCITEGIC>MOL_PROPERTY
VConf Rank
SciTegic.value.IntegerValue
565

@<SCITEGIC>MOL_PROPERTY
Conf_Id
SciTegic.value.IntegerValue
58

@<SCITEGIC>MOL_PROPERTY
Delta U+W
SciTegic.value.DoubleValue
0.019

@<SCITEGIC>MOL_PROPERTY
U+W
SciTegic.value.DoubleValue
-51.727

@<SCITEGIC>MOL_PROPERTY
Grad RMS
SciTegic.value.DoubleValue
0.000000

@<SCITEGIC>MOL_PROPERTY
U
SciTegic.value.DoubleValue
8.963

@<SCITEGIC>MOL_PROPERTY
W
SciTegic.value.DoubleValue
-60.690

@<SCITEGIC>MOL_PROPERTY
W(PB)
SciTegic.value.DoubleValue
-62.934

@<SCITEGIC>MOL_PROPERTY
W(SA)
SciTegic.value.DoubleValue
2.244

@<SCITEGIC>MOL_PROPERTY
Valence
SciTegic.value.DoubleValue
9.327

@<SCITEGIC>MOL_PROPERTY
Coulomb
SciTegic.value.DoubleValue
-0.780

@<SCITEGIC>MOL_PROPERTY
VdW
SciTegic.value.DoubleValue
0.417

@<SCITEGIC>MOL_PROPERTY
VdW6
SciTegic.value.DoubleValue
-6.635

@<SCITEGIC>MOL_PROPERTY
VdW12
SciTegic.value.DoubleValue
7.052

@<SCITEGIC>MOL_PROPERTY
Bond
SciTegic.value.DoubleValue
0.105

@<SCITEGIC>MOL_PROPERTY
Angle
SciTegic.value.DoubleValue
2.399

@<SCITEGIC>MOL_PROPERTY
Pdih
SciTegic.value.DoubleValue
6.822

@<SCITEGIC>MOL_PROPERTY
Idih
SciTegic.value.DoubleValue
0.000

@<SCITEGIC>MOL_PROPERTY
Tether
SciTegic.value.DoubleValue
0.000

@<TRIPOS>MOLECULE
guest-s22_confgen4.mol2 : confsearch ligand conformer 566
          20          19           1
SMALL
USER_CHARGES
 
@<TRIPOS>ATOM
       1    C1      20.531780   17.687648   25.156207 C.2        1 MOL1        -0.2535
       2    H1      19.628716   18.063263   25.634711 H          1 MOL1         0.0845
       3    H2      21.359184   17.400817   25.803044 H          1 MOL1         0.0845
       4    C2      20.626011   17.583676   23.828059 C.2        1 MOL1        -0.1324
       5    H3      21.539394   17.206063   23.368929 H          1 MOL1         0.0833
       6    C3      19.520377   17.961289   22.867525 C.3        1 MOL1        -0.1813
       7    H4      18.571657   18.081533   23.408092 H          1 MOL1         0.0753
       8    H5      19.370591   17.150031   22.142576 H          1 MOL1         0.0753
       9    C4      19.855112   19.268319   22.118768 C.3        1 MOL1        -0.1855
      10    H6      20.008904   20.076267   22.847356 H          1 MOL1         0.0755
      11    H7      20.803148   19.144643   21.577137 H          1 MOL1         0.0755
      12    C5      18.736123   19.667104   21.130252 C.3        1 MOL1        -0.1855
      13    H8      17.789865   19.773071   21.677928 H          1 MOL1         0.0755
      14    H9      18.587043   18.865477   20.393460 H          1 MOL1         0.0755
      15    C6      19.040207   20.995229   20.389637 C.3        1 MOL1        -0.1958
      16    H10     18.168170   21.291066   19.794650 H          1 MOL1         0.0753
      17    H11     19.219101   21.800068   21.112887 H          1 MOL1         0.0753
      18    C7      20.233937   20.917509   19.442096 C.2        1 MOL1         0.6174
      19    O1      20.084898   20.346830   18.379453 O.co2      1 MOL1        -0.6695
      20    O2      21.276870   21.438295   19.785668 O.co2      1 MOL1        -0.6695
@<TRIPOS>BOND
    1     1     2    1
    2     1     3    1
    3     1     4    2
    4     4     5    1
    5     4     6    1
    6     6     7    1
    7     6     8    1
    8     6     9    1
    9     9    10    1
   10     9    11    1
   11     9    12    1
   12    12    13    1
   13    12    14    1
   14    12    15    1
   15    15    16    1
   16    15    17    1
   17    15    18    1
   18    18    19    1
   19    18    20    2
@<TRIPOS>SUBSTRUCTURE
       1 MOL1            1 RESIDUE      1      MOL     
@<SCITEGIC>MOL_PROPERTY
VConf Rank
SciTegic.value.IntegerValue
566

@<SCITEGIC>MOL_PROPERTY
Conf_Id
SciTegic.value.IntegerValue
54

@<SCITEGIC>MOL_PROPERTY
Delta U+W
SciTegic.value.DoubleValue
-0.048

@<SCITEGIC>MOL_PROPERTY
U+W
SciTegic.value.DoubleValue
-51.793

@<SCITEGIC>MOL_PROPERTY
Grad RMS
SciTegic.value.DoubleValue
0.000000

@<SCITEGIC>MOL_PROPERTY
U
SciTegic.value.DoubleValue
8.964

@<SCITEGIC>MOL_PROPERTY
W
SciTegic.value.DoubleValue
-60.756

@<SCITEGIC>MOL_PROPERTY
W(PB)
SciTegic.value.DoubleValue
-63.007

@<SCITEGIC>MOL_PROPERTY
W(SA)
SciTegic.value.DoubleValue
2.251

@<SCITEGIC>MOL_PROPERTY
Valence
SciTegic.value.DoubleValue
9.327

@<SCITEGIC>MOL_PROPERTY
Coulomb
SciTegic.value.DoubleValue
-0.780

@<SCITEGIC>MOL_PROPERTY
VdW
SciTegic.value.DoubleValue
0.417

@<SCITEGIC>MOL_PROPERTY
VdW6
SciTegic.value.DoubleValue
-6.635

@<SCITEGIC>MOL_PROPERTY
VdW12
SciTegic.value.DoubleValue
7.052

@<SCITEGIC>MOL_PROPERTY
Bond
SciTegic.value.DoubleValue
0.105

@<SCITEGIC>MOL_PROPERTY
Angle
SciTegic.value.DoubleValue
2.399

@<SCITEGIC>MOL_PROPERTY
Pdih
SciTegic.value.DoubleValue
6.822

@<SCITEGIC>MOL_PROPERTY
Idih
SciTegic.value.DoubleValue
0.000

@<SCITEGIC>MOL_PROPERTY
Tether
SciTegic.value.DoubleValue
0.000

@<TRIPOS>MOLECULE
guest-s22_confgen4.mol2 : confsearch ligand conformer 567
          20          19           1
SMALL
USER_CHARGES
 
@<TRIPOS>ATOM
       1    C1      21.008147   20.271126   24.913737 C.2        1 MOL1        -0.2535
       2    H1      21.611009   21.140104   25.171853 H          1 MOL1         0.0845
       3    H2      20.226613   19.977743   25.612765 H          1 MOL1         0.0845
       4    C2      21.220189   19.595747   23.781230 C.2        1 MOL1        -0.1324
       5    H3      22.010144   19.904365   23.097139 H          1 MOL1         0.0833
       6    C3      20.427680   18.376350   23.360699 C.3        1 MOL1        -0.1813
       7    H4      19.933293   17.936144   24.237244 H          1 MOL1         0.0753
       8    H5      21.105610   17.605231   22.971043 H          1 MOL1         0.0753
       9    C4      19.352546   18.708836   22.301577 C.3        1 MOL1        -0.1855
      10    H6      18.727616   17.819075   22.144185 H          1 MOL1         0.0755
      11    H7      18.687910   19.493083   22.689332 H          1 MOL1         0.0755
      12    C5      19.957652   19.155887   20.949506 C.3        1 MOL1        -0.1855
      13    H8      20.633766   18.377923   20.568613 H          1 MOL1         0.0755
      14    H9      20.565803   20.057508   21.100260 H          1 MOL1         0.0755
      15    C6      18.873290   19.460964   19.883547 C.3        1 MOL1        -0.1958
      16    H10     18.170210   20.212346   20.262937 H          1 MOL1         0.0753
      17    H11     19.346253   19.890105   18.992424 H          1 MOL1         0.0753
      18    C7      18.082067   18.235798   19.434361 C.2        1 MOL1         0.6174
      19    O1      16.947086   18.099966   19.847179 O.co2      1 MOL1        -0.6695
      20    O2      18.619316   17.454662   18.673897 O.co2      1 MOL1        -0.6695
@<TRIPOS>BOND
    1     1     2    1
    2     1     3    1
    3     1     4    2
    4     4     5    1
    5     4     6    1
    6     6     7    1
    7     6     8    1
    8     6     9    1
    9     9    10    1
   10     9    11    1
   11     9    12    1
   12    12    13    1
   13    12    14    1
   14    12    15    1
   15    15    16    1
   16    15    17    1
   17    15    18    1
   18    18    19    1
   19    18    20    2
@<TRIPOS>SUBSTRUCTURE
       1 MOL1            1 RESIDUE      1      MOL     
@<SCITEGIC>MOL_PROPERTY
VConf Rank
SciTegic.value.IntegerValue
567

@<SCITEGIC>MOL_PROPERTY
Conf_Id
SciTegic.value.IntegerValue
27

@<SCITEGIC>MOL_PROPERTY
Delta U+W
SciTegic.value.DoubleValue
0.478

@<SCITEGIC>MOL_PROPERTY
U+W
SciTegic.value.DoubleValue
-51.267

@<SCITEGIC>MOL_PROPERTY
Grad RMS
SciTegic.value.DoubleValue
0.000000

@<SCITEGIC>MOL_PROPERTY
U
SciTegic.value.DoubleValue
9.192

@<SCITEGIC>MOL_PROPERTY
W
SciTegic.value.DoubleValue
-60.459

@<SCITEGIC>MOL_PROPERTY
W(PB)
SciTegic.value.DoubleValue
-62.649

@<SCITEGIC>MOL_PROPERTY
W(SA)
SciTegic.value.DoubleValue
2.190

@<SCITEGIC>MOL_PROPERTY
Valence
SciTegic.value.DoubleValue
9.572

@<SCITEGIC>MOL_PROPERTY
Coulomb
SciTegic.value.DoubleValue
-0.884

@<SCITEGIC>MOL_PROPERTY
VdW
SciTegic.value.DoubleValue
0.504

@<SCITEGIC>MOL_PROPERTY
VdW6
SciTegic.value.DoubleValue
-7.168

@<SCITEGIC>MOL_PROPERTY
VdW12
SciTegic.value.DoubleValue
7.672

@<SCITEGIC>MOL_PROPERTY
Bond
SciTegic.value.DoubleValue
0.127

@<SCITEGIC>MOL_PROPERTY
Angle
SciTegic.value.DoubleValue
2.504

@<SCITEGIC>MOL_PROPERTY
Pdih
SciTegic.value.DoubleValue
6.941

@<SCITEGIC>MOL_PROPERTY
Idih
SciTegic.value.DoubleValue
0.001

@<SCITEGIC>MOL_PROPERTY
Tether
SciTegic.value.DoubleValue
0.000

@<TRIPOS>MOLECULE
guest-s22_confgen4.mol2 : confsearch ligand conformer 568
          20          19           1
SMALL
USER_CHARGES
 
@<TRIPOS>ATOM
       1    C1      21.652057   20.436832   24.096564 C.2        1 MOL1        -0.2535
       2    H1      21.018890   20.749379   24.925371 H          1 MOL1         0.0845
       3    H2      22.520916   21.052370   23.869861 H          1 MOL1         0.0845
       4    C2      21.375317   19.343429   23.381327 C.2        1 MOL1        -0.1324
       5    H3      22.024162   19.046824   22.557727 H          1 MOL1         0.0833
       6    C3      20.190818   18.437471   23.642091 C.3        1 MOL1        -0.1813
       7    H4      19.821161   18.596261   24.664195 H          1 MOL1         0.0753
       8    H5      20.504775   17.386447   23.588794 H          1 MOL1         0.0753
       9    C4      19.030831   18.686235   22.651835 C.3        1 MOL1        -0.1855
      10    H6      18.159917   18.098432   22.972575 H          1 MOL1         0.0755
      11    H7      18.731767   19.742507   22.698292 H          1 MOL1         0.0755
      12    C5      19.390754   18.307140   21.196918 C.3        1 MOL1        -0.1855
      13    H8      19.714417   17.257870   21.156504 H          1 MOL1         0.0755
      14    H9      20.236379   18.915845   20.848954 H          1 MOL1         0.0755
      15    C6      18.193136   18.510265   20.236444 C.3        1 MOL1        -0.1958
      16    H10     17.341974   17.897562   20.556842 H          1 MOL1         0.0753
      17    H11     17.865526   19.556633   20.256324 H          1 MOL1         0.0753
      18    C7      18.523028   18.144399   18.793752 C.2        1 MOL1         0.6174
      19    O1      18.964789   19.013263   18.068091 O.co2      1 MOL1        -0.6695
      20    O2      18.346053   16.995819   18.438586 O.co2      1 MOL1        -0.6695
@<TRIPOS>BOND
    1     1     2    1
    2     1     3    1
    3     1     4    2
    4     4     5    1
    5     4     6    1
    6     6     7    1
    7     6     8    1
    8     6     9    1
    9     9    10    1
   10     9    11    1
   11     9    12    1
   12    12    13    1
   13    12    14    1
   14    12    15    1
   15    15    16    1
   16    15    17    1
   17    15    18    1
   18    18    19    1
   19    18    20    2
@<TRIPOS>SUBSTRUCTURE
       1 MOL1            1 RESIDUE      1      MOL     
@<SCITEGIC>MOL_PROPERTY
VConf Rank
SciTegic.value.IntegerValue
568

@<SCITEGIC>MOL_PROPERTY
Conf_Id
SciTegic.value.IntegerValue
41

@<SCITEGIC>MOL_PROPERTY
Delta U+W
SciTegic.value.DoubleValue
-0.634

@<SCITEGIC>MOL_PROPERTY
U+W
SciTegic.value.DoubleValue
-52.379

@<SCITEGIC>MOL_PROPERTY
Grad RMS
SciTegic.value.DoubleValue
0.000000

@<SCITEGIC>MOL_PROPERTY
U
SciTegic.value.DoubleValue
7.828

@<SCITEGIC>MOL_PROPERTY
W
SciTegic.value.DoubleValue
-60.207

@<SCITEGIC>MOL_PROPERTY
W(PB)
SciTegic.value.DoubleValue
-62.449

@<SCITEGIC>MOL_PROPERTY
W(SA)
SciTegic.value.DoubleValue
2.242

@<SCITEGIC>MOL_PROPERTY
Valence
SciTegic.value.DoubleValue
9.300

@<SCITEGIC>MOL_PROPERTY
Coulomb
SciTegic.value.DoubleValue
-2.080

@<SCITEGIC>MOL_PROPERTY
VdW
SciTegic.value.DoubleValue
0.608

@<SCITEGIC>MOL_PROPERTY
VdW6
SciTegic.value.DoubleValue
-6.341

@<SCITEGIC>MOL_PROPERTY
VdW12
SciTegic.value.DoubleValue
6.949

@<SCITEGIC>MOL_PROPERTY
Bond
SciTegic.value.DoubleValue
0.103

@<SCITEGIC>MOL_PROPERTY
Angle
SciTegic.value.DoubleValue
2.334

@<SCITEGIC>MOL_PROPERTY
Pdih
SciTegic.value.DoubleValue
6.862

@<SCITEGIC>MOL_PROPERTY
Idih
SciTegic.value.DoubleValue
0.001

@<SCITEGIC>MOL_PROPERTY
Tether
SciTegic.value.DoubleValue
0.000

@<TRIPOS>MOLECULE
guest-s22_confgen4.mol2 : confsearch ligand conformer 569
          20          19           1
SMALL
USER_CHARGES
 
@<TRIPOS>ATOM
       1    C1      21.066332   18.163995   18.914865 C.2        1 MOL1        -0.2535
       2    H1      20.905898   17.586652   18.005924 H          1 MOL1         0.0845
       3    H2      21.691155   19.052585   18.840315 H          1 MOL1         0.0845
       4    C2      20.514531   17.794434   20.073595 C.2        1 MOL1        -0.1324
       5    H3      19.891584   16.901832   20.127103 H          1 MOL1         0.0833
       6    C3      20.692843   18.543991   21.375120 C.3        1 MOL1        -0.1813
       7    H4      21.522095   19.259334   21.291459 H          1 MOL1         0.0753
       8    H5      20.963638   17.832180   22.165658 H          1 MOL1         0.0753
       9    C4      19.400106   19.295448   21.764120 C.3        1 MOL1        -0.1855
      10    H6      19.090181   19.927762   20.920743 H          1 MOL1         0.0755
      11    H7      18.588155   18.572176   21.921827 H          1 MOL1         0.0755
      12    C5      19.557843   20.189675   23.018580 C.3        1 MOL1        -0.1855
      13    H8      18.622225   20.743385   23.177985 H          1 MOL1         0.0755
      14    H9      20.333247   20.944306   22.829664 H          1 MOL1         0.0755
      15    C6      19.906717   19.415777   24.319267 C.3        1 MOL1        -0.1958
      16    H10     20.874345   18.910632   24.221640 H          1 MOL1         0.0753
      17    H11     20.010348   20.126431   25.147480 H          1 MOL1         0.0753
      18    C7      18.857914   18.387204   24.732530 C.2        1 MOL1         0.6174
      19    O1      17.801698   18.793317   25.176249 O.co2      1 MOL1        -0.6695
      20    O2      19.130347   17.208459   24.617235 O.co2      1 MOL1        -0.6695
@<TRIPOS>BOND
    1     1     2    1
    2     1     3    1
    3     1     4    2
    4     4     5    1
    5     4     6    1
    6     6     7    1
    7     6     8    1
    8     6     9    1
    9     9    10    1
   10     9    11    1
   11     9    12    1
   12    12    13    1
   13    12    14    1
   14    12    15    1
   15    15    16    1
   16    15    17    1
   17    15    18    1
   18    18    19    1
   19    18    20    2
@<TRIPOS>SUBSTRUCTURE
       1 MOL1            1 RESIDUE      1      MOL     
@<SCITEGIC>MOL_PROPERTY
VConf Rank
SciTegic.value.IntegerValue
569

@<SCITEGIC>MOL_PROPERTY
Conf_Id
SciTegic.value.IntegerValue
84

@<SCITEGIC>MOL_PROPERTY
Delta U+W
SciTegic.value.DoubleValue
0.942

@<SCITEGIC>MOL_PROPERTY
U+W
SciTegic.value.DoubleValue
-50.803

@<SCITEGIC>MOL_PROPERTY
Grad RMS
SciTegic.value.DoubleValue
0.000000

@<SCITEGIC>MOL_PROPERTY
U
SciTegic.value.DoubleValue
10.196

@<SCITEGIC>MOL_PROPERTY
W
SciTegic.value.DoubleValue
-60.999

@<SCITEGIC>MOL_PROPERTY
W(PB)
SciTegic.value.DoubleValue
-63.182

@<SCITEGIC>MOL_PROPERTY
W(SA)
SciTegic.value.DoubleValue
2.182

@<SCITEGIC>MOL_PROPERTY
Valence
SciTegic.value.DoubleValue
9.837

@<SCITEGIC>MOL_PROPERTY
Coulomb
SciTegic.value.DoubleValue
0.032

@<SCITEGIC>MOL_PROPERTY
VdW
SciTegic.value.DoubleValue
0.328

@<SCITEGIC>MOL_PROPERTY
VdW6
SciTegic.value.DoubleValue
-7.642

@<SCITEGIC>MOL_PROPERTY
VdW12
SciTegic.value.DoubleValue
7.969

@<SCITEGIC>MOL_PROPERTY
Bond
SciTegic.value.DoubleValue
0.151

@<SCITEGIC>MOL_PROPERTY
Angle
SciTegic.value.DoubleValue
2.748

@<SCITEGIC>MOL_PROPERTY
Pdih
SciTegic.value.DoubleValue
6.937

@<SCITEGIC>MOL_PROPERTY
Idih
SciTegic.value.DoubleValue
0.001

@<SCITEGIC>MOL_PROPERTY
Tether
SciTegic.value.DoubleValue
0.000

@<TRIPOS>MOLECULE
guest-s22_confgen4.mol2 : confsearch ligand conformer 570
          20          19           1
SMALL
USER_CHARGES
 
@<TRIPOS>ATOM
       1    C1      22.023902   20.502289   19.890728 C.2        1 MOL1        -0.2535
       2    H1      23.030478   20.904957   19.791107 H          1 MOL1         0.0845
       3    H2      21.716666   19.739249   19.177315 H          1 MOL1         0.0845
       4    C2      21.202207   20.928611   20.853396 C.2        1 MOL1        -0.1324
       5    H3      21.529626   21.692737   21.558056 H          1 MOL1         0.0833
       6    C3      19.792739   20.417444   21.052835 C.3        1 MOL1        -0.1813
       7    H4      19.462099   19.858201   20.166995 H          1 MOL1         0.0753
       8    H5      19.106273   21.267367   21.164536 H          1 MOL1         0.0753
       9    C4      19.699923   19.509662   22.297174 C.3        1 MOL1        -0.1855
      10    H6      20.393675   18.665268   22.181481 H          1 MOL1         0.0755
      11    H7      20.026579   20.069585   23.184209 H          1 MOL1         0.0755
      12    C5      18.264351   18.981395   22.517176 C.3        1 MOL1        -0.1855
      13    H8      17.939567   18.408705   21.637260 H          1 MOL1         0.0755
      14    H9      17.575909   19.832006   22.612463 H          1 MOL1         0.0755
      15    C6      18.143345   18.092127   23.781867 C.3        1 MOL1        -0.1958
      16    H10     18.489756   18.641227   24.665803 H          1 MOL1         0.0753
      17    H11     17.089823   17.843245   23.955433 H          1 MOL1         0.0753
      18    C7      18.913713   16.777843   23.691942 C.2        1 MOL1         0.6174
      19    O1      19.949961   16.673716   24.318296 O.co2      1 MOL1        -0.6695
      20    O2      18.448983   15.887776   23.007170 O.co2      1 MOL1        -0.6695
@<TRIPOS>BOND
    1     1     2    1
    2     1     3    1
    3     1     4    2
    4     4     5    1
    5     4     6    1
    6     6     7    1
    7     6     8    1
    8     6     9    1
    9     9    10    1
   10     9    11    1
   11     9    12    1
   12    12    13    1
   13    12    14    1
   14    12    15    1
   15    15    16    1
   16    15    17    1
   17    15    18    1
   18    18    19    1
   19    18    20    2
@<TRIPOS>SUBSTRUCTURE
       1 MOL1            1 RESIDUE      1      MOL     
@<SCITEGIC>MOL_PROPERTY
VConf Rank
SciTegic.value.IntegerValue
570

@<SCITEGIC>MOL_PROPERTY
Conf_Id
SciTegic.value.IntegerValue
81

@<SCITEGIC>MOL_PROPERTY
Delta U+W
SciTegic.value.DoubleValue
-0.051

@<SCITEGIC>MOL_PROPERTY
U+W
SciTegic.value.DoubleValue
-51.796

@<SCITEGIC>MOL_PROPERTY
Grad RMS
SciTegic.value.DoubleValue
0.000000

@<SCITEGIC>MOL_PROPERTY
U
SciTegic.value.DoubleValue
9.412

@<SCITEGIC>MOL_PROPERTY
W
SciTegic.value.DoubleValue
-61.209

@<SCITEGIC>MOL_PROPERTY
W(PB)
SciTegic.value.DoubleValue
-63.452

@<SCITEGIC>MOL_PROPERTY
W(SA)
SciTegic.value.DoubleValue
2.243

@<SCITEGIC>MOL_PROPERTY
Valence
SciTegic.value.DoubleValue
9.329

@<SCITEGIC>MOL_PROPERTY
Coulomb
SciTegic.value.DoubleValue
-0.323

@<SCITEGIC>MOL_PROPERTY
VdW
SciTegic.value.DoubleValue
0.406

@<SCITEGIC>MOL_PROPERTY
VdW6
SciTegic.value.DoubleValue
-6.640

@<SCITEGIC>MOL_PROPERTY
VdW12
SciTegic.value.DoubleValue
7.046

@<SCITEGIC>MOL_PROPERTY
Bond
SciTegic.value.DoubleValue
0.105

@<SCITEGIC>MOL_PROPERTY
Angle
SciTegic.value.DoubleValue
2.401

@<SCITEGIC>MOL_PROPERTY
Pdih
SciTegic.value.DoubleValue
6.823

@<SCITEGIC>MOL_PROPERTY
Idih
SciTegic.value.DoubleValue
0.000

@<SCITEGIC>MOL_PROPERTY
Tether
SciTegic.value.DoubleValue
0.000

@<TRIPOS>MOLECULE
guest-s22_confgen4.mol2 : confsearch ligand conformer 571
          20          19           1
SMALL
USER_CHARGES
 
@<TRIPOS>ATOM
       1    C1      21.887163   18.570546   19.749543 C.2        1 MOL1        -0.2535
       2    H1      22.444464   17.679579   20.034242 H          1 MOL1         0.0845
       3    H2      21.988331   18.918270   18.722899 H          1 MOL1         0.0845
       4    C2      21.106413   19.213084   20.622041 C.2        1 MOL1        -0.1324
       5    H3      20.558880   20.104500   20.317396 H          1 MOL1         0.0833
       6    C3      20.921148   18.792427   22.064348 C.3        1 MOL1        -0.1813
       7    H4      20.983256   19.668282   22.723099 H          1 MOL1         0.0753
       8    H5      21.745321   18.132241   22.366188 H          1 MOL1         0.0753
       9    C4      19.585028   18.046801   22.295717 C.3        1 MOL1        -0.1855
      10    H6      19.582994   17.129226   21.691658 H          1 MOL1         0.0755
      11    H7      19.536084   17.721048   23.343792 H          1 MOL1         0.0755
      12    C5      18.315875   18.870480   21.956757 C.3        1 MOL1        -0.1855
      13    H8      17.431730   18.241625   22.129994 H          1 MOL1         0.0755
      14    H9      18.311108   19.112049   20.885628 H          1 MOL1         0.0755
      15    C6      18.162582   20.181210   22.775705 C.3        1 MOL1        -0.1958
      16    H10     18.992570   20.865941   22.567612 H          1 MOL1         0.0753
      17    H11     17.247939   20.698918   22.464233 H          1 MOL1         0.0753
      18    C7      18.072138   19.966400   24.283757 C.2        1 MOL1         0.6174
      19    O1      19.019325   20.295240   24.970624 O.co2      1 MOL1        -0.6695
      20    O2      17.047882   19.491176   24.733781 O.co2      1 MOL1        -0.6695
@<TRIPOS>BOND
    1     1     2    1
    2     1     3    1
    3     1     4    2
    4     4     5    1
    5     4     6    1
    6     6     7    1
    7     6     8    1
    8     6     9    1
    9     9    10    1
   10     9    11    1
   11     9    12    1
   12    12    13    1
   13    12    14    1
   14    12    15    1
   15    15    16    1
   16    15    17    1
   17    15    18    1
   18    18    19    1
   19    18    20    2
@<TRIPOS>SUBSTRUCTURE
       1 MOL1            1 RESIDUE      1      MOL     
@<SCITEGIC>MOL_PROPERTY
VConf Rank
SciTegic.value.IntegerValue
571

@<SCITEGIC>MOL_PROPERTY
Conf_Id
SciTegic.value.IntegerValue
86

@<SCITEGIC>MOL_PROPERTY
Delta U+W
SciTegic.value.DoubleValue
1.248

@<SCITEGIC>MOL_PROPERTY
U+W
SciTegic.value.DoubleValue
-50.498

@<SCITEGIC>MOL_PROPERTY
Grad RMS
SciTegic.value.DoubleValue
0.000000

@<SCITEGIC>MOL_PROPERTY
U
SciTegic.value.DoubleValue
10.404

@<SCITEGIC>MOL_PROPERTY
W
SciTegic.value.DoubleValue
-60.901

@<SCITEGIC>MOL_PROPERTY
W(PB)
SciTegic.value.DoubleValue
-63.061

@<SCITEGIC>MOL_PROPERTY
W(SA)
SciTegic.value.DoubleValue
2.159

@<SCITEGIC>MOL_PROPERTY
Valence
SciTegic.value.DoubleValue
10.021

@<SCITEGIC>MOL_PROPERTY
Coulomb
SciTegic.value.DoubleValue
0.094

@<SCITEGIC>MOL_PROPERTY
VdW
SciTegic.value.DoubleValue
0.289

@<SCITEGIC>MOL_PROPERTY
VdW6
SciTegic.value.DoubleValue
-8.409

@<SCITEGIC>MOL_PROPERTY
VdW12
SciTegic.value.DoubleValue
8.698

@<SCITEGIC>MOL_PROPERTY
Bond
SciTegic.value.DoubleValue
0.179

@<SCITEGIC>MOL_PROPERTY
Angle
SciTegic.value.DoubleValue
2.939

@<SCITEGIC>MOL_PROPERTY
Pdih
SciTegic.value.DoubleValue
6.902

@<SCITEGIC>MOL_PROPERTY
Idih
SciTegic.value.DoubleValue
0.001

@<SCITEGIC>MOL_PROPERTY
Tether
SciTegic.value.DoubleValue
0.000

@<TRIPOS>MOLECULE
guest-s22_confgen4.mol2 : confsearch ligand conformer 572
          20          19           1
SMALL
USER_CHARGES
 
@<TRIPOS>ATOM
       1    C1      22.877998   19.102649   21.424622 C.2        1 MOL1        -0.2535
       2    H1      23.599859   18.556175   20.820151 H          1 MOL1         0.0845
       3    H2      22.798111   20.176155   21.261450 H          1 MOL1         0.0845
       4    C2      22.119090   18.476262   22.327796 C.2        1 MOL1        -0.1324
       5    H3      22.213055   17.400551   22.474098 H          1 MOL1         0.0833
       6    C3      21.095323   19.167430   23.203148 C.3        1 MOL1        -0.1813
       7    H4      21.205577   20.258531   23.139876 H          1 MOL1         0.0753
       8    H5      21.279699   18.897934   24.251574 H          1 MOL1         0.0753
       9    C4      19.647114   18.773456   22.834993 C.3        1 MOL1        -0.1855
      10    H6      19.537032   17.681991   22.894225 H          1 MOL1         0.0755
      11    H7      18.965070   19.197748   23.584528 H          1 MOL1         0.0755
      12    C5      19.233805   19.266226   21.427886 C.3        1 MOL1        -0.1855
      13    H8      19.910637   18.837355   20.676862 H          1 MOL1         0.0755
      14    H9      19.347672   20.357454   21.367827 H          1 MOL1         0.0755
      15    C6      17.776341   18.880160   21.064863 C.3        1 MOL1        -0.1958
      16    H10     17.577526   19.143203   20.019290 H          1 MOL1         0.0753
      17    H11     17.639273   17.795468   21.151071 H          1 MOL1         0.0753
      18    C7      16.719326   19.574495   21.918879 C.2        1 MOL1         0.6174
      19    O1      16.470040   20.740826   21.685089 O.co2      1 MOL1        -0.6695
      20    O2      16.165158   18.929087   22.786884 O.co2      1 MOL1        -0.6695
@<TRIPOS>BOND
    1     1     2    1
    2     1     3    1
    3     1     4    2
    4     4     5    1
    5     4     6    1
    6     6     7    1
    7     6     8    1
    8     6     9    1
    9     9    10    1
   10     9    11    1
   11     9    12    1
   12    12    13    1
   13    12    14    1
   14    12    15    1
   15    15    16    1
   16    15    17    1
   17    15    18    1
   18    18    19    1
   19    18    20    2
@<TRIPOS>SUBSTRUCTURE
       1 MOL1            1 RESIDUE      1      MOL     
@<SCITEGIC>MOL_PROPERTY
VConf Rank
SciTegic.value.IntegerValue
572

@<SCITEGIC>MOL_PROPERTY
Conf_Id
SciTegic.value.IntegerValue
28

@<SCITEGIC>MOL_PROPERTY
Delta U+W
SciTegic.value.DoubleValue
0.446

@<SCITEGIC>MOL_PROPERTY
U+W
SciTegic.value.DoubleValue
-51.299

@<SCITEGIC>MOL_PROPERTY
Grad RMS
SciTegic.value.DoubleValue
0.000000

@<SCITEGIC>MOL_PROPERTY
U
SciTegic.value.DoubleValue
9.295

@<SCITEGIC>MOL_PROPERTY
W
SciTegic.value.DoubleValue
-60.594

@<SCITEGIC>MOL_PROPERTY
W(PB)
SciTegic.value.DoubleValue
-62.806

@<SCITEGIC>MOL_PROPERTY
W(SA)
SciTegic.value.DoubleValue
2.212

@<SCITEGIC>MOL_PROPERTY
Valence
SciTegic.value.DoubleValue
9.495

@<SCITEGIC>MOL_PROPERTY
Coulomb
SciTegic.value.DoubleValue
-0.610

@<SCITEGIC>MOL_PROPERTY
VdW
SciTegic.value.DoubleValue
0.409

@<SCITEGIC>MOL_PROPERTY
VdW6
SciTegic.value.DoubleValue
-7.332

@<SCITEGIC>MOL_PROPERTY
VdW12
SciTegic.value.DoubleValue
7.741

@<SCITEGIC>MOL_PROPERTY
Bond
SciTegic.value.DoubleValue
0.126

@<SCITEGIC>MOL_PROPERTY
Angle
SciTegic.value.DoubleValue
2.497

@<SCITEGIC>MOL_PROPERTY
Pdih
SciTegic.value.DoubleValue
6.872

@<SCITEGIC>MOL_PROPERTY
Idih
SciTegic.value.DoubleValue
0.000

@<SCITEGIC>MOL_PROPERTY
Tether
SciTegic.value.DoubleValue
0.000

@<TRIPOS>MOLECULE
guest-s22_confgen4.mol2 : confsearch ligand conformer 573
          20          19           1
SMALL
USER_CHARGES
 
@<TRIPOS>ATOM
       1    C1      22.663297   18.104559   21.556306 C.2        1 MOL1        -0.2535
       2    H1      22.063519   17.294741   21.966130 H          1 MOL1         0.0845
       3    H2      23.644249   17.840092   21.165242 H          1 MOL1         0.0845
       4    C2      22.232595   19.370765   21.521755 C.2        1 MOL1        -0.1324
       5    H3      22.878401   20.138531   21.096302 H          1 MOL1         0.0833
       6    C3      20.897166   19.890893   22.027279 C.3        1 MOL1        -0.1813
       7    H4      20.348064   20.317669   21.178157 H          1 MOL1         0.0753
       8    H5      21.083386   20.726929   22.714388 H          1 MOL1         0.0753
       9    C4      20.014618   18.838265   22.742599 C.3        1 MOL1        -0.1855
      10    H6      19.747770   18.039444   22.037014 H          1 MOL1         0.0755
      11    H7      20.598859   18.367242   23.544779 H          1 MOL1         0.0755
      12    C5      18.727653   19.432752   23.366594 C.3        1 MOL1        -0.1855
      13    H8      19.003540   20.195408   24.107289 H          1 MOL1         0.0755
      14    H9      18.205991   18.640585   23.921345 H          1 MOL1         0.0755
      15    C6      17.740905   20.053464   22.340094 C.3        1 MOL1        -0.1958
      16    H10     16.870848   20.456099   22.871644 H          1 MOL1         0.0753
      17    H11     18.204255   20.899258   21.819674 H          1 MOL1         0.0753
      18    C7      17.218966   19.065780   21.300400 C.2        1 MOL1         0.6174
      19    O1      16.440577   18.206998   21.666536 O.co2      1 MOL1        -0.6695
      20    O2      17.587042   19.193269   20.149260 O.co2      1 MOL1        -0.6695
@<TRIPOS>BOND
    1     1     2    1
    2     1     3    1
    3     1     4    2
    4     4     5    1
    5     4     6    1
    6     6     7    1
    7     6     8    1
    8     6     9    1
    9     9    10    1
   10     9    11    1
   11     9    12    1
   12    12    13    1
   13    12    14    1
   14    12    15    1
   15    15    16    1
   16    15    17    1
   17    15    18    1
   18    18    19    1
   19    18    20    2
@<TRIPOS>SUBSTRUCTURE
       1 MOL1            1 RESIDUE      1      MOL     
@<SCITEGIC>MOL_PROPERTY
VConf Rank
SciTegic.value.IntegerValue
573

@<SCITEGIC>MOL_PROPERTY
Conf_Id
SciTegic.value.IntegerValue
53

@<SCITEGIC>MOL_PROPERTY
Delta U+W
SciTegic.value.DoubleValue
0.549

@<SCITEGIC>MOL_PROPERTY
U+W
SciTegic.value.DoubleValue
-51.197

@<SCITEGIC>MOL_PROPERTY
Grad RMS
SciTegic.value.DoubleValue
0.000000

@<SCITEGIC>MOL_PROPERTY
U
SciTegic.value.DoubleValue
10.870

@<SCITEGIC>MOL_PROPERTY
W
SciTegic.value.DoubleValue
-62.067

@<SCITEGIC>MOL_PROPERTY
W(PB)
SciTegic.value.DoubleValue
-64.228

@<SCITEGIC>MOL_PROPERTY
W(SA)
SciTegic.value.DoubleValue
2.161

@<SCITEGIC>MOL_PROPERTY
Valence
SciTegic.value.DoubleValue
8.803

@<SCITEGIC>MOL_PROPERTY
Coulomb
SciTegic.value.DoubleValue
1.020

@<SCITEGIC>MOL_PROPERTY
VdW
SciTegic.value.DoubleValue
1.048

@<SCITEGIC>MOL_PROPERTY
VdW6
SciTegic.value.DoubleValue
-8.312

@<SCITEGIC>MOL_PROPERTY
VdW12
SciTegic.value.DoubleValue
9.360

@<SCITEGIC>MOL_PROPERTY
Bond
SciTegic.value.DoubleValue
0.212

@<SCITEGIC>MOL_PROPERTY
Angle
SciTegic.value.DoubleValue
3.379

@<SCITEGIC>MOL_PROPERTY
Pdih
SciTegic.value.DoubleValue
5.211

@<SCITEGIC>MOL_PROPERTY
Idih
SciTegic.value.DoubleValue
0.001

@<SCITEGIC>MOL_PROPERTY
Tether
SciTegic.value.DoubleValue
0.000

@<TRIPOS>MOLECULE
guest-s22_confgen4.mol2 : confsearch ligand conformer 574
          20          19           1
SMALL
USER_CHARGES
 
@<TRIPOS>ATOM
       1    C1      20.607714   17.744387   24.459621 C.2        1 MOL1        -0.2535
       2    H1      21.083214   17.080025   23.741414 H          1 MOL1         0.0845
       3    H2      20.370068   17.327277   25.436590 H          1 MOL1         0.0845
       4    C2      20.327285   19.020108   24.172304 C.2        1 MOL1        -0.1324
       5    H3      19.852813   19.643981   24.929246 H          1 MOL1         0.0833
       6    C3      20.596768   19.728194   22.854775 C.3        1 MOL1        -0.1813
       7    H4      21.524938   20.306881   22.949771 H          1 MOL1         0.0753
       8    H5      19.815051   20.480109   22.687077 H          1 MOL1         0.0753
       9    C4      20.689839   18.817119   21.602956 C.3        1 MOL1        -0.1855
      10    H6      20.958735   19.438472   20.737824 H          1 MOL1         0.0755
      11    H7      21.520441   18.110001   21.727084 H          1 MOL1         0.0755
      12    C5      19.393176   18.032049   21.272522 C.3        1 MOL1        -0.1855
      13    H8      19.152425   17.351741   22.099429 H          1 MOL1         0.0755
      14    H9      19.581836   17.393810   20.398407 H          1 MOL1         0.0755
      15    C6      18.156700   18.924760   20.978391 C.3        1 MOL1        -0.1958
      16    H10     17.292280   18.286557   20.761506 H          1 MOL1         0.0753
      17    H11     17.890030   19.517135   21.860990 H          1 MOL1         0.0753
      18    C7      18.335065   19.866845   19.791340 C.2        1 MOL1         0.6174
      19    O1      18.456165   21.055855   20.012126 O.co2      1 MOL1        -0.6695
      20    O2      18.330023   19.387483   18.674338 O.co2      1 MOL1        -0.6695
@<TRIPOS>BOND
    1     1     2    1
    2     1     3    1
    3     1     4    2
    4     4     5    1
    5     4     6    1
    6     6     7    1
    7     6     8    1
    8     6     9    1
    9     9    10    1
   10     9    11    1
   11     9    12    1
   12    12    13    1
   13    12    14    1
   14    12    15    1
   15    15    16    1
   16    15    17    1
   17    15    18    1
   18    18    19    1
   19    18    20    2
@<TRIPOS>SUBSTRUCTURE
       1 MOL1            1 RESIDUE      1      MOL     
@<SCITEGIC>MOL_PROPERTY
VConf Rank
SciTegic.value.IntegerValue
574

@<SCITEGIC>MOL_PROPERTY
Conf_Id
SciTegic.value.IntegerValue
66

@<SCITEGIC>MOL_PROPERTY
Delta U+W
SciTegic.value.DoubleValue
1.737

@<SCITEGIC>MOL_PROPERTY
U+W
SciTegic.value.DoubleValue
-50.008

@<SCITEGIC>MOL_PROPERTY
Grad RMS
SciTegic.value.DoubleValue
0.000000

@<SCITEGIC>MOL_PROPERTY
U
SciTegic.value.DoubleValue
11.091

@<SCITEGIC>MOL_PROPERTY
W
SciTegic.value.DoubleValue
-61.099

@<SCITEGIC>MOL_PROPERTY
W(PB)
SciTegic.value.DoubleValue
-63.213

@<SCITEGIC>MOL_PROPERTY
W(SA)
SciTegic.value.DoubleValue
2.114

@<SCITEGIC>MOL_PROPERTY
Valence
SciTegic.value.DoubleValue
9.664

@<SCITEGIC>MOL_PROPERTY
Coulomb
SciTegic.value.DoubleValue
0.658

@<SCITEGIC>MOL_PROPERTY
VdW
SciTegic.value.DoubleValue
0.769

@<SCITEGIC>MOL_PROPERTY
VdW6
SciTegic.value.DoubleValue
-9.171

@<SCITEGIC>MOL_PROPERTY
VdW12
SciTegic.value.DoubleValue
9.940

@<SCITEGIC>MOL_PROPERTY
Bond
SciTegic.value.DoubleValue
0.244

@<SCITEGIC>MOL_PROPERTY
Angle
SciTegic.value.DoubleValue
3.658

@<SCITEGIC>MOL_PROPERTY
Pdih
SciTegic.value.DoubleValue
5.762

@<SCITEGIC>MOL_PROPERTY
Idih
SciTegic.value.DoubleValue
0.001

@<SCITEGIC>MOL_PROPERTY
Tether
SciTegic.value.DoubleValue
0.000

@<TRIPOS>MOLECULE
guest-s22_confgen4.mol2 : confsearch ligand conformer 575
          20          19           1
SMALL
USER_CHARGES
 
@<TRIPOS>ATOM
       1    C1      19.088683   20.448041   19.696137 C.2        1 MOL1        -0.2535
       2    H1      18.993204   19.421311   19.349883 H          1 MOL1         0.0845
       3    H2      18.435509   21.187051   19.235524 H          1 MOL1         0.0845
       4    C2      19.967393   20.803715   20.639664 C.2        1 MOL1        -0.1324
       5    H3      20.022678   21.847561   20.947350 H          1 MOL1         0.0833
       6    C3      20.932480   19.883936   21.369878 C.3        1 MOL1        -0.1813
       7    H4      21.053034   20.241456   22.400070 H          1 MOL1         0.0753
       8    H5      21.927438   19.990646   20.917932 H          1 MOL1         0.0753
       9    C4      20.546407   18.381820   21.400095 C.3        1 MOL1        -0.1855
      10    H6      20.480590   18.001594   20.372190 H          1 MOL1         0.0755
      11    H7      21.362583   17.818365   21.872328 H          1 MOL1         0.0755
      12    C5      19.227024   18.066925   22.150276 C.3        1 MOL1        -0.1855
      13    H8      19.007395   16.996343   22.037144 H          1 MOL1         0.0755
      14    H9      18.388801   18.602959   21.685896 H          1 MOL1         0.0755
      15    C6      19.277729   18.406342   23.662606 C.3        1 MOL1        -0.1958
      16    H10     20.140171   17.918557   24.132084 H          1 MOL1         0.0753
      17    H11     19.392129   19.486058   23.810828 H          1 MOL1         0.0753
      18    C7      18.023009   17.965782   24.408145 C.2        1 MOL1         0.6174
      19    O1      17.108177   18.758751   24.513191 O.co2      1 MOL1        -0.6695
      20    O2      17.987664   16.835166   24.852433 O.co2      1 MOL1        -0.6695
@<TRIPOS>BOND
    1     1     2    1
    2     1     3    1
    3     1     4    2
    4     4     5    1
    5     4     6    1
    6     6     7    1
    7     6     8    1
    8     6     9    1
    9     9    10    1
   10     9    11    1
   11     9    12    1
   12    12    13    1
   13    12    14    1
   14    12    15    1
   15    15    16    1
   16    15    17    1
   17    15    18    1
   18    18    19    1
   19    18    20    2
@<TRIPOS>SUBSTRUCTURE
       1 MOL1            1 RESIDUE      1      MOL     
@<SCITEGIC>MOL_PROPERTY
VConf Rank
SciTegic.value.IntegerValue
575

@<SCITEGIC>MOL_PROPERTY
Conf_Id
SciTegic.value.IntegerValue
64

@<SCITEGIC>MOL_PROPERTY
Delta U+W
SciTegic.value.DoubleValue
0.366

@<SCITEGIC>MOL_PROPERTY
U+W
SciTegic.value.DoubleValue
-51.379

@<SCITEGIC>MOL_PROPERTY
Grad RMS
SciTegic.value.DoubleValue
0.000000

@<SCITEGIC>MOL_PROPERTY
U
SciTegic.value.DoubleValue
10.000

@<SCITEGIC>MOL_PROPERTY
W
SciTegic.value.DoubleValue
-61.379

@<SCITEGIC>MOL_PROPERTY
W(PB)
SciTegic.value.DoubleValue
-63.541

@<SCITEGIC>MOL_PROPERTY
W(SA)
SciTegic.value.DoubleValue
2.162

@<SCITEGIC>MOL_PROPERTY
Valence
SciTegic.value.DoubleValue
9.398

@<SCITEGIC>MOL_PROPERTY
Coulomb
SciTegic.value.DoubleValue
-0.504

@<SCITEGIC>MOL_PROPERTY
VdW
SciTegic.value.DoubleValue
1.105

@<SCITEGIC>MOL_PROPERTY
VdW6
SciTegic.value.DoubleValue
-7.975

@<SCITEGIC>MOL_PROPERTY
VdW12
SciTegic.value.DoubleValue
9.080

@<SCITEGIC>MOL_PROPERTY
Bond
SciTegic.value.DoubleValue
0.216

@<SCITEGIC>MOL_PROPERTY
Angle
SciTegic.value.DoubleValue
3.417

@<SCITEGIC>MOL_PROPERTY
Pdih
SciTegic.value.DoubleValue
5.765

@<SCITEGIC>MOL_PROPERTY
Idih
SciTegic.value.DoubleValue
0.001

@<SCITEGIC>MOL_PROPERTY
Tether
SciTegic.value.DoubleValue
0.000

@<TRIPOS>MOLECULE
guest-s22_confgen4.mol2 : confsearch ligand conformer 576
          20          19           1
SMALL
USER_CHARGES
 
@<TRIPOS>ATOM
       1    C1      19.564746   16.330513   20.938500 C.2        1 MOL1        -0.2535
       2    H1      18.891709   16.750635   20.192889 H          1 MOL1         0.0845
       3    H2      19.288786   15.374921   21.380986 H          1 MOL1         0.0845
       4    C2      20.684301   16.961837   21.301871 C.2        1 MOL1        -0.1324
       5    H3      21.343192   16.525261   22.051975 H          1 MOL1         0.0833
       6    C3      21.132884   18.291020   20.732639 C.3        1 MOL1        -0.1813
       7    H4      20.532355   18.557003   19.852132 H          1 MOL1         0.0753
       8    H5      22.170188   18.200177   20.383938 H          1 MOL1         0.0753
       9    C4      21.054886   19.430415   21.773618 C.3        1 MOL1        -0.1855
      10    H6      21.654996   19.163985   22.654507 H          1 MOL1         0.0755
      11    H7      21.509302   20.334116   21.345001 H          1 MOL1         0.0755
      12    C5      19.604287   19.746503   22.204239 C.3        1 MOL1        -0.1855
      13    H8      19.147020   18.857172   22.659459 H          1 MOL1         0.0755
      14    H9      19.001824   19.996021   21.319893 H          1 MOL1         0.0755
      15    C6      19.545199   20.920495   23.212342 C.3        1 MOL1        -0.1958
      16    H10     20.132432   20.680798   24.106932 H          1 MOL1         0.0753
      17    H11     19.982686   21.823057   22.769090 H          1 MOL1         0.0753
      18    C7      18.123722   21.251336   23.652843 C.2        1 MOL1         0.6174
      19    O1      17.487756   22.045718   22.988575 O.co2      1 MOL1        -0.6695
      20    O2      17.684856   20.695630   24.640406 O.co2      1 MOL1        -0.6695
@<TRIPOS>BOND
    1     1     2    1
    2     1     3    1
    3     1     4    2
    4     4     5    1
    5     4     6    1
    6     6     7    1
    7     6     8    1
    8     6     9    1
    9     9    10    1
   10     9    11    1
   11     9    12    1
   12    12    13    1
   13    12    14    1
   14    12    15    1
   15    15    16    1
   16    15    17    1
   17    15    18    1
   18    18    19    1
   19    18    20    2
@<TRIPOS>SUBSTRUCTURE
       1 MOL1            1 RESIDUE      1      MOL     
@<SCITEGIC>MOL_PROPERTY
VConf Rank
SciTegic.value.IntegerValue
576

@<SCITEGIC>MOL_PROPERTY
Conf_Id
SciTegic.value.IntegerValue
42

@<SCITEGIC>MOL_PROPERTY
Delta U+W
SciTegic.value.DoubleValue
-0.601

@<SCITEGIC>MOL_PROPERTY
U+W
SciTegic.value.DoubleValue
-52.347

@<SCITEGIC>MOL_PROPERTY
Grad RMS
SciTegic.value.DoubleValue
0.000000

@<SCITEGIC>MOL_PROPERTY
U
SciTegic.value.DoubleValue
8.428

@<SCITEGIC>MOL_PROPERTY
W
SciTegic.value.DoubleValue
-60.774

@<SCITEGIC>MOL_PROPERTY
W(PB)
SciTegic.value.DoubleValue
-62.982

@<SCITEGIC>MOL_PROPERTY
W(SA)
SciTegic.value.DoubleValue
2.208

@<SCITEGIC>MOL_PROPERTY
Valence
SciTegic.value.DoubleValue
9.231

@<SCITEGIC>MOL_PROPERTY
Coulomb
SciTegic.value.DoubleValue
-1.304

@<SCITEGIC>MOL_PROPERTY
VdW
SciTegic.value.DoubleValue
0.501

@<SCITEGIC>MOL_PROPERTY
VdW6
SciTegic.value.DoubleValue
-6.515

@<SCITEGIC>MOL_PROPERTY
VdW12
SciTegic.value.DoubleValue
7.016

@<SCITEGIC>MOL_PROPERTY
Bond
SciTegic.value.DoubleValue
0.103

@<SCITEGIC>MOL_PROPERTY
Angle
SciTegic.value.DoubleValue
2.328

@<SCITEGIC>MOL_PROPERTY
Pdih
SciTegic.value.DoubleValue
6.799

@<SCITEGIC>MOL_PROPERTY
Idih
SciTegic.value.DoubleValue
0.000

@<SCITEGIC>MOL_PROPERTY
Tether
SciTegic.value.DoubleValue
0.000

@<TRIPOS>MOLECULE
guest-s22_confgen4.mol2 : confsearch ligand conformer 577
          20          19           1
SMALL
USER_CHARGES
 
@<TRIPOS>ATOM
       1    C1      18.335560   16.677490   22.940701 C.2        1 MOL1        -0.2535
       2    H1      18.840038   16.652552   23.905209 H          1 MOL1         0.0845
       3    H2      18.171175   15.726856   22.436353 H          1 MOL1         0.0845
       4    C2      17.935948   17.827954   22.392277 C.2        1 MOL1        -0.1324
       5    H3      17.435228   17.831280   21.424458 H          1 MOL1         0.0833
       6    C3      18.130433   19.186411   23.031552 C.3        1 MOL1        -0.1813
       7    H4      18.457968   19.079701   24.074598 H          1 MOL1         0.0753
       8    H5      17.165773   19.710167   23.061898 H          1 MOL1         0.0753
       9    C4      19.145882   20.057316   22.258024 C.3        1 MOL1        -0.1855
      10    H6      18.812818   20.168341   21.216832 H          1 MOL1         0.0755
      11    H7      19.153349   21.065912   22.693247 H          1 MOL1         0.0755
      12    C5      20.579509   19.477103   22.294595 C.3        1 MOL1        -0.1855
      13    H8      20.594791   18.484323   21.823948 H          1 MOL1         0.0755
      14    H9      20.885652   19.334980   23.339731 H          1 MOL1         0.0755
      15    C6      21.611366   20.393148   21.586814 C.3        1 MOL1        -0.1958
      16    H10     21.593300   21.396846   22.028391 H          1 MOL1         0.0753
      17    H11     22.621268   19.995909   21.742660 H          1 MOL1         0.0753
      18    C7      21.397233   20.519887   20.081192 C.2        1 MOL1         0.6174
      19    O1      20.888008   21.538126   19.655700 O.co2      1 MOL1        -0.6695
      20    O2      21.762671   19.603251   19.371735 O.co2      1 MOL1        -0.6695
@<TRIPOS>BOND
    1     1     2    1
    2     1     3    1
    3     1     4    2
    4     4     5    1
    5     4     6    1
    6     6     7    1
    7     6     8    1
    8     6     9    1
    9     9    10    1
   10     9    11    1
   11     9    12    1
   12    12    13    1
   13    12    14    1
   14    12    15    1
   15    15    16    1
   16    15    17    1
   17    15    18    1
   18    18    19    1
   19    18    20    2
@<TRIPOS>SUBSTRUCTURE
       1 MOL1            1 RESIDUE      1      MOL     
@<SCITEGIC>MOL_PROPERTY
VConf Rank
SciTegic.value.IntegerValue
577

@<SCITEGIC>MOL_PROPERTY
Conf_Id
SciTegic.value.IntegerValue
68

@<SCITEGIC>MOL_PROPERTY
Delta U+W
SciTegic.value.DoubleValue
0.492

@<SCITEGIC>MOL_PROPERTY
U+W
SciTegic.value.DoubleValue
-51.253

@<SCITEGIC>MOL_PROPERTY
Grad RMS
SciTegic.value.DoubleValue
0.000000

@<SCITEGIC>MOL_PROPERTY
U
SciTegic.value.DoubleValue
10.179

@<SCITEGIC>MOL_PROPERTY
W
SciTegic.value.DoubleValue
-61.432

@<SCITEGIC>MOL_PROPERTY
W(PB)
SciTegic.value.DoubleValue
-63.627

@<SCITEGIC>MOL_PROPERTY
W(SA)
SciTegic.value.DoubleValue
2.195

@<SCITEGIC>MOL_PROPERTY
Valence
SciTegic.value.DoubleValue
9.483

@<SCITEGIC>MOL_PROPERTY
Coulomb
SciTegic.value.DoubleValue
0.361

@<SCITEGIC>MOL_PROPERTY
VdW
SciTegic.value.DoubleValue
0.335

@<SCITEGIC>MOL_PROPERTY
VdW6
SciTegic.value.DoubleValue
-7.385

@<SCITEGIC>MOL_PROPERTY
VdW12
SciTegic.value.DoubleValue
7.720

@<SCITEGIC>MOL_PROPERTY
Bond
SciTegic.value.DoubleValue
0.125

@<SCITEGIC>MOL_PROPERTY
Angle
SciTegic.value.DoubleValue
2.487

@<SCITEGIC>MOL_PROPERTY
Pdih
SciTegic.value.DoubleValue
6.870

@<SCITEGIC>MOL_PROPERTY
Idih
SciTegic.value.DoubleValue
0.001

@<SCITEGIC>MOL_PROPERTY
Tether
SciTegic.value.DoubleValue
0.000

@<TRIPOS>MOLECULE
guest-s22_confgen4.mol2 : confsearch ligand conformer 578
          20          19           1
SMALL
USER_CHARGES
 
@<TRIPOS>ATOM
       1    C1      21.882095   20.680070   23.888979 C.2        1 MOL1        -0.2535
       2    H1      22.563003   19.863746   24.124499 H          1 MOL1         0.0845
       3    H2      21.767068   21.467015   24.632392 H          1 MOL1         0.0845
       4    C2      21.209573   20.716546   22.735688 C.2        1 MOL1        -0.1324
       5    H3      20.535094   21.544406   22.518960 H          1 MOL1         0.0833
       6    C3      21.323300   19.662994   21.654542 C.3        1 MOL1        -0.1813
       7    H4      22.246399   19.084791   21.796277 H          1 MOL1         0.0753
       8    H5      21.410002   20.144022   20.671134 H          1 MOL1         0.0753
       9    C4      20.123938   18.688462   21.654710 C.3        1 MOL1        -0.1855
      10    H6      20.326363   17.877487   20.941906 H          1 MOL1         0.0755
      11    H7      20.036625   18.219971   22.644908 H          1 MOL1         0.0755
      12    C5      18.790449   19.375725   21.276284 C.3        1 MOL1        -0.1855
      13    H8      18.905447   19.881720   20.308268 H          1 MOL1         0.0755
      14    H9      18.545209   20.152883   22.012965 H          1 MOL1         0.0755
      15    C6      17.610389   18.373889   21.183351 C.3        1 MOL1        -0.1958
      16    H10     16.721440   18.889436   20.801266 H          1 MOL1         0.0753
      17    H11     17.845771   17.575530   20.469221 H          1 MOL1         0.0753
      18    C7      17.231379   17.737367   22.517528 C.2        1 MOL1         0.6174
      19    O1      16.581439   18.398888   23.303069 O.co2      1 MOL1        -0.6695
      20    O2      17.578493   16.591844   22.728274 O.co2      1 MOL1        -0.6695
@<TRIPOS>BOND
    1     1     2    1
    2     1     3    1
    3     1     4    2
    4     4     5    1
    5     4     6    1
    6     6     7    1
    7     6     8    1
    8     6     9    1
    9     9    10    1
   10     9    11    1
   11     9    12    1
   12    12    13    1
   13    12    14    1
   14    12    15    1
   15    15    16    1
   16    15    17    1
   17    15    18    1
   18    18    19    1
   19    18    20    2
@<TRIPOS>SUBSTRUCTURE
       1 MOL1            1 RESIDUE      1      MOL     
@<SCITEGIC>MOL_PROPERTY
VConf Rank
SciTegic.value.IntegerValue
578

@<SCITEGIC>MOL_PROPERTY
Conf_Id
SciTegic.value.IntegerValue
87

@<SCITEGIC>MOL_PROPERTY
Delta U+W
SciTegic.value.DoubleValue
0.339

@<SCITEGIC>MOL_PROPERTY
U+W
SciTegic.value.DoubleValue
-51.407

@<SCITEGIC>MOL_PROPERTY
Grad RMS
SciTegic.value.DoubleValue
0.000000

@<SCITEGIC>MOL_PROPERTY
U
SciTegic.value.DoubleValue
10.461

@<SCITEGIC>MOL_PROPERTY
W
SciTegic.value.DoubleValue
-61.867

@<SCITEGIC>MOL_PROPERTY
W(PB)
SciTegic.value.DoubleValue
-64.045

@<SCITEGIC>MOL_PROPERTY
W(SA)
SciTegic.value.DoubleValue
2.178

@<SCITEGIC>MOL_PROPERTY
Valence
SciTegic.value.DoubleValue
9.555

@<SCITEGIC>MOL_PROPERTY
Coulomb
SciTegic.value.DoubleValue
0.483

@<SCITEGIC>MOL_PROPERTY
VdW
SciTegic.value.DoubleValue
0.423

@<SCITEGIC>MOL_PROPERTY
VdW6
SciTegic.value.DoubleValue
-7.223

@<SCITEGIC>MOL_PROPERTY
VdW12
SciTegic.value.DoubleValue
7.646

@<SCITEGIC>MOL_PROPERTY
Bond
SciTegic.value.DoubleValue
0.126

@<SCITEGIC>MOL_PROPERTY
Angle
SciTegic.value.DoubleValue
2.492

@<SCITEGIC>MOL_PROPERTY
Pdih
SciTegic.value.DoubleValue
6.936

@<SCITEGIC>MOL_PROPERTY
Idih
SciTegic.value.DoubleValue
0.001

@<SCITEGIC>MOL_PROPERTY
Tether
SciTegic.value.DoubleValue
0.000

@<TRIPOS>MOLECULE
guest-s22_confgen4.mol2 : confsearch ligand conformer 579
          20          19           1
SMALL
USER_CHARGES
 
@<TRIPOS>ATOM
       1    C1      21.245810   21.061095   22.787106 C.2        1 MOL1        -0.2535
       2    H1      21.799606   21.308016   21.882807 H          1 MOL1         0.0845
       3    H2      20.969827   21.881805   23.446870 H          1 MOL1         0.0845
       4    C2      20.914445   19.800152   23.076820 C.2        1 MOL1        -0.1324
       5    H3      20.367907   19.572001   23.991168 H          1 MOL1         0.0833
       6    C3      21.275901   18.610775   22.212911 C.3        1 MOL1        -0.1813
       7    H4      21.216368   17.683427   22.798076 H          1 MOL1         0.0753
       8    H5      22.328035   18.706192   21.912384 H          1 MOL1         0.0753
       9    C4      20.409843   18.487619   20.934654 C.3        1 MOL1        -0.1855
      10    H6      20.317097   19.468053   20.447743 H          1 MOL1         0.0755
      11    H7      20.948865   17.847799   20.222741 H          1 MOL1         0.0755
      12    C5      19.006823   17.867634   21.154321 C.3        1 MOL1        -0.1855
      13    H8      19.102769   16.893826   21.653853 H          1 MOL1         0.0755
      14    H9      18.561720   17.665541   20.170181 H          1 MOL1         0.0755
      15    C6      18.031047   18.767338   21.955356 C.3        1 MOL1        -0.1958
      16    H10     18.366024   18.870555   22.992282 H          1 MOL1         0.0753
      17    H11     17.997935   19.773228   21.520141 H          1 MOL1         0.0753
      18    C7      16.610132   18.216207   21.985062 C.2        1 MOL1         0.6174
      19    O1      16.313429   17.440883   22.872603 O.co2      1 MOL1        -0.6695
      20    O2      15.842774   18.560165   21.107716 O.co2      1 MOL1        -0.6695
@<TRIPOS>BOND
    1     1     2    1
    2     1     3    1
    3     1     4    2
    4     4     5    1
    5     4     6    1
    6     6     7    1
    7     6     8    1
    8     6     9    1
    9     9    10    1
   10     9    11    1
   11     9    12    1
   12    12    13    1
   13    12    14    1
   14    12    15    1
   15    15    16    1
   16    15    17    1
   17    15    18    1
   18    18    19    1
   19    18    20    2
@<TRIPOS>SUBSTRUCTURE
       1 MOL1            1 RESIDUE      1      MOL     
@<SCITEGIC>MOL_PROPERTY
VConf Rank
SciTegic.value.IntegerValue
579

@<SCITEGIC>MOL_PROPERTY
Conf_Id
SciTegic.value.IntegerValue
51

@<SCITEGIC>MOL_PROPERTY
Delta U+W
SciTegic.value.DoubleValue
1.709

@<SCITEGIC>MOL_PROPERTY
U+W
SciTegic.value.DoubleValue
-50.036

@<SCITEGIC>MOL_PROPERTY
Grad RMS
SciTegic.value.DoubleValue
0.000000

@<SCITEGIC>MOL_PROPERTY
U
SciTegic.value.DoubleValue
10.643

@<SCITEGIC>MOL_PROPERTY
W
SciTegic.value.DoubleValue
-60.679

@<SCITEGIC>MOL_PROPERTY
W(PB)
SciTegic.value.DoubleValue
-62.882

@<SCITEGIC>MOL_PROPERTY
W(SA)
SciTegic.value.DoubleValue
2.203

@<SCITEGIC>MOL_PROPERTY
Valence
SciTegic.value.DoubleValue
11.231

@<SCITEGIC>MOL_PROPERTY
Coulomb
SciTegic.value.DoubleValue
-1.077

@<SCITEGIC>MOL_PROPERTY
VdW
SciTegic.value.DoubleValue
0.489

@<SCITEGIC>MOL_PROPERTY
VdW6
SciTegic.value.DoubleValue
-7.546

@<SCITEGIC>MOL_PROPERTY
VdW12
SciTegic.value.DoubleValue
8.035

@<SCITEGIC>MOL_PROPERTY
Bond
SciTegic.value.DoubleValue
0.159

@<SCITEGIC>MOL_PROPERTY
Angle
SciTegic.value.DoubleValue
3.005

@<SCITEGIC>MOL_PROPERTY
Pdih
SciTegic.value.DoubleValue
8.065

@<SCITEGIC>MOL_PROPERTY
Idih
SciTegic.value.DoubleValue
0.002

@<SCITEGIC>MOL_PROPERTY
Tether
SciTegic.value.DoubleValue
0.000

@<TRIPOS>MOLECULE
guest-s22_confgen4.mol2 : confsearch ligand conformer 580
          20          19           1
SMALL
USER_CHARGES
 
@<TRIPOS>ATOM
       1    C1      17.742953   17.160193   22.812291 C.2        1 MOL1        -0.2535
       2    H1      18.194434   16.769518   23.722761 H          1 MOL1         0.0845
       3    H2      17.199135   16.459799   22.180839 H          1 MOL1         0.0845
       4    C2      17.853102   18.448891   22.479366 C.2        1 MOL1        -0.1324
       5    H3      17.386645   18.822816   21.568656 H          1 MOL1         0.0833
       6    C3      18.582391   19.479088   23.315089 C.3        1 MOL1        -0.1813
       7    H4      18.290708   19.344526   24.365432 H          1 MOL1         0.0753
       8    H5      18.254781   20.491158   23.042470 H          1 MOL1         0.0753
       9    C4      20.124840   19.376815   23.217306 C.3        1 MOL1        -0.1855
      10    H6      20.552644   19.893267   24.087362 H          1 MOL1         0.0755
      11    H7      20.438196   18.327589   23.305993 H          1 MOL1         0.0755
      12    C5      20.741449   20.010638   21.944840 C.3        1 MOL1        -0.1855
      13    H8      21.832870   20.040031   22.069035 H          1 MOL1         0.0755
      14    H9      20.414635   21.055436   21.851956 H          1 MOL1         0.0755
      15    C6      20.420243   19.248389   20.633706 C.3        1 MOL1        -0.1958
      16    H10     20.655680   18.183384   20.746200 H          1 MOL1         0.0753
      17    H11     19.354592   19.324320   20.395575 H          1 MOL1         0.0753
      18    C7      21.197121   19.782078   19.435683 C.2        1 MOL1         0.6174
      19    O1      20.709754   20.692122   18.794448 O.co2      1 MOL1        -0.6695
      20    O2      22.279071   19.287721   19.186933 O.co2      1 MOL1        -0.6695
@<TRIPOS>BOND
    1     1     2    1
    2     1     3    1
    3     1     4    2
    4     4     5    1
    5     4     6    1
    6     6     7    1
    7     6     8    1
    8     6     9    1
    9     9    10    1
   10     9    11    1
   11     9    12    1
   12    12    13    1
   13    12    14    1
   14    12    15    1
   15    15    16    1
   16    15    17    1
   17    15    18    1
   18    18    19    1
   19    18    20    2
@<TRIPOS>SUBSTRUCTURE
       1 MOL1            1 RESIDUE      1      MOL     
@<SCITEGIC>MOL_PROPERTY
VConf Rank
SciTegic.value.IntegerValue
580

@<SCITEGIC>MOL_PROPERTY
Conf_Id
SciTegic.value.IntegerValue
91

@<SCITEGIC>MOL_PROPERTY
Delta U+W
SciTegic.value.DoubleValue
1.604

@<SCITEGIC>MOL_PROPERTY
U+W
SciTegic.value.DoubleValue
-50.141

@<SCITEGIC>MOL_PROPERTY
Grad RMS
SciTegic.value.DoubleValue
0.000000

@<SCITEGIC>MOL_PROPERTY
U
SciTegic.value.DoubleValue
10.644

@<SCITEGIC>MOL_PROPERTY
W
SciTegic.value.DoubleValue
-60.786

@<SCITEGIC>MOL_PROPERTY
W(PB)
SciTegic.value.DoubleValue
-62.965

@<SCITEGIC>MOL_PROPERTY
W(SA)
SciTegic.value.DoubleValue
2.179

@<SCITEGIC>MOL_PROPERTY
Valence
SciTegic.value.DoubleValue
11.230

@<SCITEGIC>MOL_PROPERTY
Coulomb
SciTegic.value.DoubleValue
-1.075

@<SCITEGIC>MOL_PROPERTY
VdW
SciTegic.value.DoubleValue
0.489

@<SCITEGIC>MOL_PROPERTY
VdW6
SciTegic.value.DoubleValue
-7.547

@<SCITEGIC>MOL_PROPERTY
VdW12
SciTegic.value.DoubleValue
8.036

@<SCITEGIC>MOL_PROPERTY
Bond
SciTegic.value.DoubleValue
0.159

@<SCITEGIC>MOL_PROPERTY
Angle
SciTegic.value.DoubleValue
3.006

@<SCITEGIC>MOL_PROPERTY
Pdih
SciTegic.value.DoubleValue
8.064

@<SCITEGIC>MOL_PROPERTY
Idih
SciTegic.value.DoubleValue
0.002

@<SCITEGIC>MOL_PROPERTY
Tether
SciTegic.value.DoubleValue
0.000

@<TRIPOS>MOLECULE
guest-s22_confgen4.mol2 : confsearch ligand conformer 581
          20          19           1
SMALL
USER_CHARGES
 
@<TRIPOS>ATOM
       1    C1      16.834112   20.072243   23.799619 C.2        1 MOL1        -0.2535
       2    H1      17.088256   21.103380   23.559287 H          1 MOL1         0.0845
       3    H2      16.178016   19.903647   24.651904 H          1 MOL1         0.0845
       4    C2      17.308482   19.051174   23.081258 C.2        1 MOL1        -0.1324
       5    H3      17.042451   18.026277   23.339078 H          1 MOL1         0.0833
       6    C3      18.221958   19.207700   21.885975 C.3        1 MOL1        -0.1813
       7    H4      18.225048   20.251586   21.543777 H          1 MOL1         0.0753
       8    H5      17.842269   18.602916   21.051579 H          1 MOL1         0.0753
       9    C4      19.663274   18.774052   22.225724 C.3        1 MOL1        -0.1855
      10    H6      20.036714   19.379083   23.063498 H          1 MOL1         0.0755
      11    H7      19.660273   17.728571   22.563544 H          1 MOL1         0.0755
      12    C5      20.609455   18.924833   21.014476 C.3        1 MOL1        -0.1855
      13    H8      20.613365   19.970384   20.676317 H          1 MOL1         0.0755
      14    H9      20.235834   18.320948   20.175873 H          1 MOL1         0.0755
      15    C6      22.059106   18.489271   21.356818 C.3        1 MOL1        -0.1958
      16    H10     22.440657   19.092442   22.188994 H          1 MOL1         0.0753
      17    H11     22.063639   17.444520   21.689056 H          1 MOL1         0.0753
      18    C7      23.063903   18.607391   20.209758 C.2        1 MOL1         0.6174
      19    O1      24.209432   18.274102   20.439588 O.co2      1 MOL1        -0.6695
      20    O2      22.696831   19.021421   19.126945 O.co2      1 MOL1        -0.6695
@<TRIPOS>BOND
    1     1     2    1
    2     1     3    1
    3     1     4    2
    4     4     5    1
    5     4     6    1
    6     6     7    1
    7     6     8    1
    8     6     9    1
    9     9    10    1
   10     9    11    1
   11     9    12    1
   12    12    13    1
   13    12    14    1
   14    12    15    1
   15    15    16    1
   16    15    17    1
   17    15    18    1
   18    18    19    1
   19    18    20    2
@<TRIPOS>SUBSTRUCTURE
       1 MOL1            1 RESIDUE      1      MOL     
@<SCITEGIC>MOL_PROPERTY
VConf Rank
SciTegic.value.IntegerValue
581

@<SCITEGIC>MOL_PROPERTY
Conf_Id
SciTegic.value.IntegerValue
33

@<SCITEGIC>MOL_PROPERTY
Delta U+W
SciTegic.value.DoubleValue
0.000

@<SCITEGIC>MOL_PROPERTY
U+W
SciTegic.value.DoubleValue
-51.745

@<SCITEGIC>MOL_PROPERTY
Grad RMS
SciTegic.value.DoubleValue
0.000000

@<SCITEGIC>MOL_PROPERTY
U
SciTegic.value.DoubleValue
7.593

@<SCITEGIC>MOL_PROPERTY
W
SciTegic.value.DoubleValue
-59.338

@<SCITEGIC>MOL_PROPERTY
W(PB)
SciTegic.value.DoubleValue
-61.574

@<SCITEGIC>MOL_PROPERTY
W(SA)
SciTegic.value.DoubleValue
2.236

@<SCITEGIC>MOL_PROPERTY
Valence
SciTegic.value.DoubleValue
9.570

@<SCITEGIC>MOL_PROPERTY
Coulomb
SciTegic.value.DoubleValue
-3.091

@<SCITEGIC>MOL_PROPERTY
VdW
SciTegic.value.DoubleValue
1.114

@<SCITEGIC>MOL_PROPERTY
VdW6
SciTegic.value.DoubleValue
-6.064

@<SCITEGIC>MOL_PROPERTY
VdW12
SciTegic.value.DoubleValue
7.178

@<SCITEGIC>MOL_PROPERTY
Bond
SciTegic.value.DoubleValue
0.117

@<SCITEGIC>MOL_PROPERTY
Angle
SciTegic.value.DoubleValue
2.692

@<SCITEGIC>MOL_PROPERTY
Pdih
SciTegic.value.DoubleValue
6.761

@<SCITEGIC>MOL_PROPERTY
Idih
SciTegic.value.DoubleValue
0.000

@<SCITEGIC>MOL_PROPERTY
Tether
SciTegic.value.DoubleValue
0.000

@<TRIPOS>MOLECULE
guest-s22_confgen4.mol2 : confsearch ligand conformer 582
          20          19           1
SMALL
USER_CHARGES
 
@<TRIPOS>ATOM
       1    C1      20.905620   19.681273   18.560471 C.2        1 MOL1        -0.2535
       2    H1      20.331487   18.832090   18.193269 H          1 MOL1         0.0845
       3    H2      21.613984   20.141608   17.873760 H          1 MOL1         0.0845
       4    C2      20.751840   20.141776   19.804642 C.2        1 MOL1        -0.1324
       5    H3      21.337038   20.992588   20.152914 H          1 MOL1         0.0833
       6    C3      19.788767   19.555400   20.812798 C.3        1 MOL1        -0.1813
       7    H4      19.072873   18.890012   20.311448 H          1 MOL1         0.0753
       8    H5      19.204734   20.366133   21.266305 H          1 MOL1         0.0753
       9    C4      20.543100   18.768145   21.907795 C.3        1 MOL1        -0.1855
      10    H6      21.185299   18.018473   21.425185 H          1 MOL1         0.0755
      11    H7      21.213794   19.445325   22.454228 H          1 MOL1         0.0755
      12    C5      19.606111   18.046369   22.905428 C.3        1 MOL1        -0.1855
      13    H8      20.216410   17.424254   23.574758 H          1 MOL1         0.0755
      14    H9      18.943609   17.358754   22.361674 H          1 MOL1         0.0755
      15    C6      18.753647   19.015058   23.765615 C.3        1 MOL1        -0.1958
      16    H10     19.401724   19.734320   24.280437 H          1 MOL1         0.0753
      17    H11     18.066170   19.589457   23.134596 H          1 MOL1         0.0753
      18    C7      17.921345   18.291138   24.817842 C.2        1 MOL1         0.6174
      19    O1      16.808379   17.913467   24.509005 O.co2      1 MOL1        -0.6695
      20    O2      18.415432   18.106411   25.912597 O.co2      1 MOL1        -0.6695
@<TRIPOS>BOND
    1     1     2    1
    2     1     3    1
    3     1     4    2
    4     4     5    1
    5     4     6    1
    6     6     7    1
    7     6     8    1
    8     6     9    1
    9     9    10    1
   10     9    11    1
   11     9    12    1
   12    12    13    1
   13    12    14    1
   14    12    15    1
   15    15    16    1
   16    15    17    1
   17    15    18    1
   18    18    19    1
   19    18    20    2
@<TRIPOS>SUBSTRUCTURE
       1 MOL1            1 RESIDUE      1      MOL     
@<SCITEGIC>MOL_PROPERTY
VConf Rank
SciTegic.value.IntegerValue
582

@<SCITEGIC>MOL_PROPERTY
Conf_Id
SciTegic.value.IntegerValue
37

@<SCITEGIC>MOL_PROPERTY
Delta U+W
SciTegic.value.DoubleValue
-0.384

@<SCITEGIC>MOL_PROPERTY
U+W
SciTegic.value.DoubleValue
-52.130

@<SCITEGIC>MOL_PROPERTY
Grad RMS
SciTegic.value.DoubleValue
0.000000

@<SCITEGIC>MOL_PROPERTY
U
SciTegic.value.DoubleValue
7.491

@<SCITEGIC>MOL_PROPERTY
W
SciTegic.value.DoubleValue
-59.621

@<SCITEGIC>MOL_PROPERTY
W(PB)
SciTegic.value.DoubleValue
-61.853

@<SCITEGIC>MOL_PROPERTY
W(SA)
SciTegic.value.DoubleValue
2.232

@<SCITEGIC>MOL_PROPERTY
Valence
SciTegic.value.DoubleValue
9.604

@<SCITEGIC>MOL_PROPERTY
Coulomb
SciTegic.value.DoubleValue
-2.799

@<SCITEGIC>MOL_PROPERTY
VdW
SciTegic.value.DoubleValue
0.686

@<SCITEGIC>MOL_PROPERTY
VdW6
SciTegic.value.DoubleValue
-6.435

@<SCITEGIC>MOL_PROPERTY
VdW12
SciTegic.value.DoubleValue
7.121

@<SCITEGIC>MOL_PROPERTY
Bond
SciTegic.value.DoubleValue
0.124

@<SCITEGIC>MOL_PROPERTY
Angle
SciTegic.value.DoubleValue
2.493

@<SCITEGIC>MOL_PROPERTY
Pdih
SciTegic.value.DoubleValue
6.986

@<SCITEGIC>MOL_PROPERTY
Idih
SciTegic.value.DoubleValue
0.001

@<SCITEGIC>MOL_PROPERTY
Tether
SciTegic.value.DoubleValue
0.000

@<TRIPOS>MOLECULE
guest-s22_confgen4.mol2 : confsearch ligand conformer 583
          20          19           1
SMALL
USER_CHARGES
 
@<TRIPOS>ATOM
       1    C1      17.193819   19.122383   24.017353 C.2        1 MOL1        -0.2535
       2    H1      16.355856   19.141021   24.712091 H          1 MOL1         0.0845
       3    H2      17.301291   19.978634   23.354909 H          1 MOL1         0.0845
       4    C2      18.039876   18.086235   23.995041 C.2        1 MOL1        -0.1324
       5    H3      17.880115   17.256770   24.683585 H          1 MOL1         0.0833
       6    C3      19.247277   17.918636   23.087789 C.3        1 MOL1        -0.1813
       7    H4      19.135237   16.985136   22.520198 H          1 MOL1         0.0753
       8    H5      20.140699   17.780513   23.711370 H          1 MOL1         0.0753
       9    C4      19.492155   19.085101   22.102204 C.3        1 MOL1        -0.1855
      10    H6      18.609573   19.215124   21.460933 H          1 MOL1         0.0755
      11    H7      19.625917   20.019137   22.665028 H          1 MOL1         0.0755
      12    C5      20.734614   18.836948   21.219177 C.3        1 MOL1        -0.1855
      13    H8      20.607010   17.903572   20.653373 H          1 MOL1         0.0755
      14    H9      21.621269   18.705936   21.855011 H          1 MOL1         0.0755
      15    C6      20.981970   20.003629   20.231374 C.3        1 MOL1        -0.1958
      16    H10     20.110600   20.139241   19.579511 H          1 MOL1         0.0753
      17    H11     21.124794   20.941653   20.781206 H          1 MOL1         0.0753
      18    C7      22.204310   19.781950   19.347783 C.2        1 MOL1         0.6174
      19    O1      22.050444   19.202661   18.290713 O.co2      1 MOL1        -0.6695
      20    O2      23.281233   20.176861   19.748944 O.co2      1 MOL1        -0.6695
@<TRIPOS>BOND
    1     1     2    1
    2     1     3    1
    3     1     4    2
    4     4     5    1
    5     4     6    1
    6     6     7    1
    7     6     8    1
    8     6     9    1
    9     9    10    1
   10     9    11    1
   11     9    12    1
   12    12    13    1
   13    12    14    1
   14    12    15    1
   15    15    16    1
   16    15    17    1
   17    15    18    1
   18    18    19    1
   19    18    20    2
@<TRIPOS>SUBSTRUCTURE
       1 MOL1            1 RESIDUE      1      MOL     
@<SCITEGIC>MOL_PROPERTY
VConf Rank
SciTegic.value.IntegerValue
583

@<SCITEGIC>MOL_PROPERTY
Conf_Id
SciTegic.value.IntegerValue
44

@<SCITEGIC>MOL_PROPERTY
Delta U+W
SciTegic.value.DoubleValue
-1.440

@<SCITEGIC>MOL_PROPERTY
U+W
SciTegic.value.DoubleValue
-53.185

@<SCITEGIC>MOL_PROPERTY
Grad RMS
SciTegic.value.DoubleValue
0.000000

@<SCITEGIC>MOL_PROPERTY
U
SciTegic.value.DoubleValue
6.572

@<SCITEGIC>MOL_PROPERTY
W
SciTegic.value.DoubleValue
-59.757

@<SCITEGIC>MOL_PROPERTY
W(PB)
SciTegic.value.DoubleValue
-62.007

@<SCITEGIC>MOL_PROPERTY
W(SA)
SciTegic.value.DoubleValue
2.249

@<SCITEGIC>MOL_PROPERTY
Valence
SciTegic.value.DoubleValue
7.989

@<SCITEGIC>MOL_PROPERTY
Coulomb
SciTegic.value.DoubleValue
-2.697

@<SCITEGIC>MOL_PROPERTY
VdW
SciTegic.value.DoubleValue
1.281

@<SCITEGIC>MOL_PROPERTY
VdW6
SciTegic.value.DoubleValue
-6.467

@<SCITEGIC>MOL_PROPERTY
VdW12
SciTegic.value.DoubleValue
7.748

@<SCITEGIC>MOL_PROPERTY
Bond
SciTegic.value.DoubleValue
0.136

@<SCITEGIC>MOL_PROPERTY
Angle
SciTegic.value.DoubleValue
2.854

@<SCITEGIC>MOL_PROPERTY
Pdih
SciTegic.value.DoubleValue
4.997

@<SCITEGIC>MOL_PROPERTY
Idih
SciTegic.value.DoubleValue
0.001

@<SCITEGIC>MOL_PROPERTY
Tether
SciTegic.value.DoubleValue
0.000

@<TRIPOS>MOLECULE
guest-s22_confgen4.mol2 : confsearch ligand conformer 584
          20          19           1
SMALL
USER_CHARGES
 
@<TRIPOS>ATOM
       1    C1      18.094239   17.093018   24.208392 C.2        1 MOL1        -0.2535
       2    H1      18.404737   17.898190   24.872371 H          1 MOL1         0.0845
       3    H2      17.717714   16.181147   24.668799 H          1 MOL1         0.0845
       4    C2      18.173027   17.214049   22.880664 C.2        1 MOL1        -0.1324
       5    H3      17.857461   16.395743   22.233802 H          1 MOL1         0.0833
       6    C3      18.683149   18.448329   22.170577 C.3        1 MOL1        -0.1813
       7    H4      18.715219   19.293915   22.869544 H          1 MOL1         0.0753
       8    H5      17.985055   18.725164   21.369353 H          1 MOL1         0.0753
       9    C4      20.087364   18.204571   21.573315 C.3        1 MOL1        -0.1855
      10    H6      20.796990   17.981219   22.381855 H          1 MOL1         0.0755
      11    H7      20.052300   17.310264   20.936078 H          1 MOL1         0.0755
      12    C5      20.614282   19.390164   20.730077 C.3        1 MOL1        -0.1855
      13    H8      19.910278   19.608422   19.915145 H          1 MOL1         0.0755
      14    H9      21.557698   19.090774   20.252759 H          1 MOL1         0.0755
      15    C6      20.862550   20.677287   21.558773 C.3        1 MOL1        -0.1958
      16    H10     19.922713   21.056211   21.975695 H          1 MOL1         0.0753
      17    H11     21.529712   20.461824   22.401902 H          1 MOL1         0.0753
      18    C7      21.488347   21.796813   20.734776 C.2        1 MOL1         0.6174
      19    O1      22.700696   21.862186   20.683103 O.co2      1 MOL1        -0.6695
      20    O2      20.747252   22.562055   20.150057 O.co2      1 MOL1        -0.6695
@<TRIPOS>BOND
    1     1     2    1
    2     1     3    1
    3     1     4    2
    4     4     5    1
    5     4     6    1
    6     6     7    1
    7     6     8    1
    8     6     9    1
    9     9    10    1
   10     9    11    1
   11     9    12    1
   12    12    13    1
   13    12    14    1
   14    12    15    1
   15    15    16    1
   16    15    17    1
   17    15    18    1
   18    18    19    1
   19    18    20    2
@<TRIPOS>SUBSTRUCTURE
       1 MOL1            1 RESIDUE      1      MOL     
@<SCITEGIC>MOL_PROPERTY
VConf Rank
SciTegic.value.IntegerValue
584

@<SCITEGIC>MOL_PROPERTY
Conf_Id
SciTegic.value.IntegerValue
38

@<SCITEGIC>MOL_PROPERTY
Delta U+W
SciTegic.value.DoubleValue
-0.381

@<SCITEGIC>MOL_PROPERTY
U+W
SciTegic.value.DoubleValue
-52.126

@<SCITEGIC>MOL_PROPERTY
Grad RMS
SciTegic.value.DoubleValue
0.000000

@<SCITEGIC>MOL_PROPERTY
U
SciTegic.value.DoubleValue
7.601

@<SCITEGIC>MOL_PROPERTY
W
SciTegic.value.DoubleValue
-59.727

@<SCITEGIC>MOL_PROPERTY
W(PB)
SciTegic.value.DoubleValue
-61.964

@<SCITEGIC>MOL_PROPERTY
W(SA)
SciTegic.value.DoubleValue
2.236

@<SCITEGIC>MOL_PROPERTY
Valence
SciTegic.value.DoubleValue
9.602

@<SCITEGIC>MOL_PROPERTY
Coulomb
SciTegic.value.DoubleValue
-2.686

@<SCITEGIC>MOL_PROPERTY
VdW
SciTegic.value.DoubleValue
0.685

@<SCITEGIC>MOL_PROPERTY
VdW6
SciTegic.value.DoubleValue
-6.453

@<SCITEGIC>MOL_PROPERTY
VdW12
SciTegic.value.DoubleValue
7.139

@<SCITEGIC>MOL_PROPERTY
Bond
SciTegic.value.DoubleValue
0.125

@<SCITEGIC>MOL_PROPERTY
Angle
SciTegic.value.DoubleValue
2.485

@<SCITEGIC>MOL_PROPERTY
Pdih
SciTegic.value.DoubleValue
6.991

@<SCITEGIC>MOL_PROPERTY
Idih
SciTegic.value.DoubleValue
0.001

@<SCITEGIC>MOL_PROPERTY
Tether
SciTegic.value.DoubleValue
0.000

@<TRIPOS>MOLECULE
guest-s22_confgen4.mol2 : confsearch ligand conformer 585
          20          19           1
SMALL
USER_CHARGES
 
@<TRIPOS>ATOM
       1    C1      19.517843   17.010838   19.256907 C.2        1 MOL1        -0.2535
       2    H1      18.478621   16.757776   19.460756 H          1 MOL1         0.0845
       3    H2      19.884212   16.846459   18.244968 H          1 MOL1         0.0845
       4    C2      20.314735   17.505940   20.207433 C.2        1 MOL1        -0.1324
       5    H3      21.351857   17.753637   19.982300 H          1 MOL1         0.0833
       6    C3      19.877434   17.760228   21.632829 C.3        1 MOL1        -0.1813
       7    H4      20.614270   17.331434   22.325169 H          1 MOL1         0.0753
       8    H5      18.923085   17.254657   21.833716 H          1 MOL1         0.0753
       9    C4      19.727292   19.271031   21.908411 C.3        1 MOL1        -0.1855
      10    H6      20.683723   19.773933   21.709011 H          1 MOL1         0.0755
      11    H7      18.993115   19.697264   21.210857 H          1 MOL1         0.0755
      12    C5      19.283499   19.548700   23.362467 C.3        1 MOL1        -0.1855
      13    H8      20.021219   19.132811   24.062825 H          1 MOL1         0.0755
      14    H9      18.335199   19.029635   23.557093 H          1 MOL1         0.0755
      15    C6      19.097575   21.061078   23.650637 C.3        1 MOL1        -0.1958
      16    H10     18.384135   21.497175   22.940932 H          1 MOL1         0.0753
      17    H11     18.670828   21.193688   24.651775 H          1 MOL1         0.0753
      18    C7      20.392710   21.866404   23.596405 C.2        1 MOL1         0.6174
      19    O1      20.590855   22.573987   22.628399 O.co2      1 MOL1        -0.6695
      20    O2      21.164504   21.772558   24.530549 O.co2      1 MOL1        -0.6695
@<TRIPOS>BOND
    1     1     2    1
    2     1     3    1
    3     1     4    2
    4     4     5    1
    5     4     6    1
    6     6     7    1
    7     6     8    1
    8     6     9    1
    9     9    10    1
   10     9    11    1
   11     9    12    1
   12    12    13    1
   13    12    14    1
   14    12    15    1
   15    15    16    1
   16    15    17    1
   17    15    18    1
   18    18    19    1
   19    18    20    2
@<TRIPOS>SUBSTRUCTURE
       1 MOL1            1 RESIDUE      1      MOL     
@<SCITEGIC>MOL_PROPERTY
VConf Rank
SciTegic.value.IntegerValue
585

@<SCITEGIC>MOL_PROPERTY
Conf_Id
SciTegic.value.IntegerValue
58

@<SCITEGIC>MOL_PROPERTY
Delta U+W
SciTegic.value.DoubleValue
0.019

@<SCITEGIC>MOL_PROPERTY
U+W
SciTegic.value.DoubleValue
-51.727

@<SCITEGIC>MOL_PROPERTY
Grad RMS
SciTegic.value.DoubleValue
0.000000

@<SCITEGIC>MOL_PROPERTY
U
SciTegic.value.DoubleValue
8.963

@<SCITEGIC>MOL_PROPERTY
W
SciTegic.value.DoubleValue
-60.690

@<SCITEGIC>MOL_PROPERTY
W(PB)
SciTegic.value.DoubleValue
-62.934

@<SCITEGIC>MOL_PROPERTY
W(SA)
SciTegic.value.DoubleValue
2.244

@<SCITEGIC>MOL_PROPERTY
Valence
SciTegic.value.DoubleValue
9.327

@<SCITEGIC>MOL_PROPERTY
Coulomb
SciTegic.value.DoubleValue
-0.780

@<SCITEGIC>MOL_PROPERTY
VdW
SciTegic.value.DoubleValue
0.417

@<SCITEGIC>MOL_PROPERTY
VdW6
SciTegic.value.DoubleValue
-6.635

@<SCITEGIC>MOL_PROPERTY
VdW12
SciTegic.value.DoubleValue
7.052

@<SCITEGIC>MOL_PROPERTY
Bond
SciTegic.value.DoubleValue
0.105

@<SCITEGIC>MOL_PROPERTY
Angle
SciTegic.value.DoubleValue
2.399

@<SCITEGIC>MOL_PROPERTY
Pdih
SciTegic.value.DoubleValue
6.822

@<SCITEGIC>MOL_PROPERTY
Idih
SciTegic.value.DoubleValue
0.000

@<SCITEGIC>MOL_PROPERTY
Tether
SciTegic.value.DoubleValue
0.000

@<TRIPOS>MOLECULE
guest-s22_confgen4.mol2 : confsearch ligand conformer 586
          20          19           1
SMALL
USER_CHARGES
 
@<TRIPOS>ATOM
       1    C1      22.458755   17.464462   23.531556 C.2        1 MOL1        -0.2535
       2    H1      22.769773   17.030237   22.582718 H          1 MOL1         0.0845
       3    H2      22.773025   16.956599   24.441818 H          1 MOL1         0.0845
       4    C2      21.718523   18.574977   23.581339 C.2        1 MOL1        -0.1324
       5    H3      21.416948   18.992875   24.541586 H          1 MOL1         0.0833
       6    C3      21.245897   19.334224   22.361581 C.3        1 MOL1        -0.1813
       7    H4      21.796207   19.002725   21.470510 H          1 MOL1         0.0753
       8    H5      21.462814   20.403430   22.487561 H          1 MOL1         0.0753
       9    C4      19.732431   19.137107   22.134469 C.3        1 MOL1        -0.1855
      10    H6      19.518744   18.066121   22.013651 H          1 MOL1         0.0755
      11    H7      19.184239   19.471528   23.026142 H          1 MOL1         0.0755
      12    C5      19.232236   19.909312   20.892764 C.3        1 MOL1        -0.1855
      13    H8      19.796390   19.579721   20.009767 H          1 MOL1         0.0755
      14    H9      19.434856   20.982475   21.015079 H          1 MOL1         0.0755
      15    C6      17.718421   19.699255   20.629831 C.3        1 MOL1        -0.1958
      16    H10     17.443195   20.168370   19.677907 H          1 MOL1         0.0753
      17    H11     17.495418   18.629785   20.533078 H          1 MOL1         0.0753
      18    C7      16.814050   20.289909   21.707842 C.2        1 MOL1         0.6174
      19    O1      16.654758   21.494672   21.724244 O.co2      1 MOL1        -0.6695
      20    O2      16.284406   19.530413   22.494996 O.co2      1 MOL1        -0.6695
@<TRIPOS>BOND
    1     1     2    1
    2     1     3    1
    3     1     4    2
    4     4     5    1
    5     4     6    1
    6     6     7    1
    7     6     8    1
    8     6     9    1
    9     9    10    1
   10     9    11    1
   11     9    12    1
   12    12    13    1
   13    12    14    1
   14    12    15    1
   15    15    16    1
   16    15    17    1
   17    15    18    1
   18    18    19    1
   19    18    20    2
@<TRIPOS>SUBSTRUCTURE
       1 MOL1            1 RESIDUE      1      MOL     
@<SCITEGIC>MOL_PROPERTY
VConf Rank
SciTegic.value.IntegerValue
586

@<SCITEGIC>MOL_PROPERTY
Conf_Id
SciTegic.value.IntegerValue
54

@<SCITEGIC>MOL_PROPERTY
Delta U+W
SciTegic.value.DoubleValue
-0.048

@<SCITEGIC>MOL_PROPERTY
U+W
SciTegic.value.DoubleValue
-51.793

@<SCITEGIC>MOL_PROPERTY
Grad RMS
SciTegic.value.DoubleValue
0.000000

@<SCITEGIC>MOL_PROPERTY
U
SciTegic.value.DoubleValue
8.964

@<SCITEGIC>MOL_PROPERTY
W
SciTegic.value.DoubleValue
-60.756

@<SCITEGIC>MOL_PROPERTY
W(PB)
SciTegic.value.DoubleValue
-63.007

@<SCITEGIC>MOL_PROPERTY
W(SA)
SciTegic.value.DoubleValue
2.251

@<SCITEGIC>MOL_PROPERTY
Valence
SciTegic.value.DoubleValue
9.327

@<SCITEGIC>MOL_PROPERTY
Coulomb
SciTegic.value.DoubleValue
-0.780

@<SCITEGIC>MOL_PROPERTY
VdW
SciTegic.value.DoubleValue
0.417

@<SCITEGIC>MOL_PROPERTY
VdW6
SciTegic.value.DoubleValue
-6.635

@<SCITEGIC>MOL_PROPERTY
VdW12
SciTegic.value.DoubleValue
7.052

@<SCITEGIC>MOL_PROPERTY
Bond
SciTegic.value.DoubleValue
0.105

@<SCITEGIC>MOL_PROPERTY
Angle
SciTegic.value.DoubleValue
2.399

@<SCITEGIC>MOL_PROPERTY
Pdih
SciTegic.value.DoubleValue
6.822

@<SCITEGIC>MOL_PROPERTY
Idih
SciTegic.value.DoubleValue
0.000

@<SCITEGIC>MOL_PROPERTY
Tether
SciTegic.value.DoubleValue
0.000

@<TRIPOS>MOLECULE
guest-s22_confgen4.mol2 : confsearch ligand conformer 587
          20          19           1
SMALL
USER_CHARGES
 
@<TRIPOS>ATOM
       1    C1      21.890630   17.061970   20.318045 C.2        1 MOL1        -0.2535
       2    H1      22.922438   16.756726   20.483535 H          1 MOL1         0.0845
       3    H2      21.204174   16.314929   19.922803 H          1 MOL1         0.0845
       4    C2      21.485882   18.304586   20.593281 C.2        1 MOL1        -0.1324
       5    H3      22.190297   19.037798   20.985009 H          1 MOL1         0.0833
       6    C3      20.071427   18.801333   20.382549 C.3        1 MOL1        -0.1813
       7    H4      19.551060   18.145325   19.671633 H          1 MOL1         0.0753
       8    H5      20.089344   19.798791   19.923416 H          1 MOL1         0.0753
       9    C4      19.260968   18.847176   21.697560 C.3        1 MOL1        -0.1855
      10    H6      18.214526   19.079959   21.457240 H          1 MOL1         0.0755
      11    H7      19.261072   17.851340   22.161724 H          1 MOL1         0.0755
      12    C5      19.801288   19.893370   22.701371 C.3        1 MOL1        -0.1855
      13    H8      19.815016   20.887048   22.232485 H          1 MOL1         0.0755
      14    H9      20.840539   19.651006   22.959655 H          1 MOL1         0.0755
      15    C6      18.966208   19.952857   24.006853 C.3        1 MOL1        -0.1958
      16    H10     18.915147   18.959674   24.469249 H          1 MOL1         0.0753
      17    H11     19.460883   20.613827   24.728221 H          1 MOL1         0.0753
      18    C7      17.545026   20.473431   23.811713 C.2        1 MOL1         0.6174
      19    O1      16.630160   19.673783   23.836858 O.co2      1 MOL1        -0.6695
      20    O2      17.390115   21.668033   23.650331 O.co2      1 MOL1        -0.6695
@<TRIPOS>BOND
    1     1     2    1
    2     1     3    1
    3     1     4    2
    4     4     5    1
    5     4     6    1
    6     6     7    1
    7     6     8    1
    8     6     9    1
    9     9    10    1
   10     9    11    1
   11     9    12    1
   12    12    13    1
   13    12    14    1
   14    12    15    1
   15    15    16    1
   16    15    17    1
   17    15    18    1
   18    18    19    1
   19    18    20    2
@<TRIPOS>SUBSTRUCTURE
       1 MOL1            1 RESIDUE      1      MOL     
@<SCITEGIC>MOL_PROPERTY
VConf Rank
SciTegic.value.IntegerValue
587

@<SCITEGIC>MOL_PROPERTY
Conf_Id
SciTegic.value.IntegerValue
27

@<SCITEGIC>MOL_PROPERTY
Delta U+W
SciTegic.value.DoubleValue
0.478

@<SCITEGIC>MOL_PROPERTY
U+W
SciTegic.value.DoubleValue
-51.267

@<SCITEGIC>MOL_PROPERTY
Grad RMS
SciTegic.value.DoubleValue
0.000000

@<SCITEGIC>MOL_PROPERTY
U
SciTegic.value.DoubleValue
9.192

@<SCITEGIC>MOL_PROPERTY
W
SciTegic.value.DoubleValue
-60.459

@<SCITEGIC>MOL_PROPERTY
W(PB)
SciTegic.value.DoubleValue
-62.649

@<SCITEGIC>MOL_PROPERTY
W(SA)
SciTegic.value.DoubleValue
2.190

@<SCITEGIC>MOL_PROPERTY
Valence
SciTegic.value.DoubleValue
9.572

@<SCITEGIC>MOL_PROPERTY
Coulomb
SciTegic.value.DoubleValue
-0.884

@<SCITEGIC>MOL_PROPERTY
VdW
SciTegic.value.DoubleValue
0.504

@<SCITEGIC>MOL_PROPERTY
VdW6
SciTegic.value.DoubleValue
-7.168

@<SCITEGIC>MOL_PROPERTY
VdW12
SciTegic.value.DoubleValue
7.672

@<SCITEGIC>MOL_PROPERTY
Bond
SciTegic.value.DoubleValue
0.127

@<SCITEGIC>MOL_PROPERTY
Angle
SciTegic.value.DoubleValue
2.504

@<SCITEGIC>MOL_PROPERTY
Pdih
SciTegic.value.DoubleValue
6.941

@<SCITEGIC>MOL_PROPERTY
Idih
SciTegic.value.DoubleValue
0.001

@<SCITEGIC>MOL_PROPERTY
Tether
SciTegic.value.DoubleValue
0.000

@<TRIPOS>MOLECULE
guest-s22_confgen4.mol2 : confsearch ligand conformer 588
          20          19           1
SMALL
USER_CHARGES
 
@<TRIPOS>ATOM
       1    C1      22.359451   20.548161   20.915708 C.2        1 MOL1        -0.2535
       2    H1      23.156857   19.826941   20.743978 H          1 MOL1         0.0845
       3    H2      22.649366   21.554234   21.213978 H          1 MOL1         0.0845
       4    C2      21.074382   20.214758   20.770389 C.2        1 MOL1        -0.1324
       5    H3      20.292128   20.953086   20.944296 H          1 MOL1         0.0833
       6    C3      20.597492   18.839953   20.352914 C.3        1 MOL1        -0.1813
       7    H4      21.418177   18.295146   19.866893 H          1 MOL1         0.0753
       8    H5      19.802283   18.932100   19.601108 H          1 MOL1         0.0753
       9    C4      20.089452   18.005030   21.549935 C.3        1 MOL1        -0.1855
      10    H6      19.884602   16.982014   21.205911 H          1 MOL1         0.0755
      11    H7      20.883757   17.929676   22.305388 H          1 MOL1         0.0755
      12    C5      18.810285   18.590248   22.191255 C.3        1 MOL1        -0.1855
      13    H8      18.025277   18.689163   21.428801 H          1 MOL1         0.0755
      14    H9      19.011342   19.599528   22.575460 H          1 MOL1         0.0755
      15    C6      18.289788   17.703392   23.349111 C.3        1 MOL1        -0.1958
      16    H10     18.066765   16.694089   22.982906 H          1 MOL1         0.0753
      17    H11     19.058489   17.604643   24.124969 H          1 MOL1         0.0753
      18    C7      17.028557   18.260050   23.999861 C.2        1 MOL1         0.6174
      19    O1      17.155309   19.022033   24.937931 O.co2      1 MOL1        -0.6695
      20    O2      15.952909   17.930738   23.540258 O.co2      1 MOL1        -0.6695
@<TRIPOS>BOND
    1     1     2    1
    2     1     3    1
    3     1     4    2
    4     4     5    1
    5     4     6    1
    6     6     7    1
    7     6     8    1
    8     6     9    1
    9     9    10    1
   10     9    11    1
   11     9    12    1
   12    12    13    1
   13    12    14    1
   14    12    15    1
   15    15    16    1
   16    15    17    1
   17    15    18    1
   18    18    19    1
   19    18    20    2
@<TRIPOS>SUBSTRUCTURE
       1 MOL1            1 RESIDUE      1      MOL     
@<SCITEGIC>MOL_PROPERTY
VConf Rank
SciTegic.value.IntegerValue
588

@<SCITEGIC>MOL_PROPERTY
Conf_Id
SciTegic.value.IntegerValue
41

@<SCITEGIC>MOL_PROPERTY
Delta U+W
SciTegic.value.DoubleValue
-0.634

@<SCITEGIC>MOL_PROPERTY
U+W
SciTegic.value.DoubleValue
-52.379

@<SCITEGIC>MOL_PROPERTY
Grad RMS
SciTegic.value.DoubleValue
0.000000

@<SCITEGIC>MOL_PROPERTY
U
SciTegic.value.DoubleValue
7.828

@<SCITEGIC>MOL_PROPERTY
W
SciTegic.value.DoubleValue
-60.207

@<SCITEGIC>MOL_PROPERTY
W(PB)
SciTegic.value.DoubleValue
-62.449

@<SCITEGIC>MOL_PROPERTY
W(SA)
SciTegic.value.DoubleValue
2.242

@<SCITEGIC>MOL_PROPERTY
Valence
SciTegic.value.DoubleValue
9.300

@<SCITEGIC>MOL_PROPERTY
Coulomb
SciTegic.value.DoubleValue
-2.080

@<SCITEGIC>MOL_PROPERTY
VdW
SciTegic.value.DoubleValue
0.608

@<SCITEGIC>MOL_PROPERTY
VdW6
SciTegic.value.DoubleValue
-6.341

@<SCITEGIC>MOL_PROPERTY
VdW12
SciTegic.value.DoubleValue
6.949

@<SCITEGIC>MOL_PROPERTY
Bond
SciTegic.value.DoubleValue
0.103

@<SCITEGIC>MOL_PROPERTY
Angle
SciTegic.value.DoubleValue
2.334

@<SCITEGIC>MOL_PROPERTY
Pdih
SciTegic.value.DoubleValue
6.862

@<SCITEGIC>MOL_PROPERTY
Idih
SciTegic.value.DoubleValue
0.001

@<SCITEGIC>MOL_PROPERTY
Tether
SciTegic.value.DoubleValue
0.000

@<TRIPOS>MOLECULE
guest-s22_confgen4.mol2 : confsearch ligand conformer 589
          20          19           1
SMALL
USER_CHARGES
 
@<TRIPOS>ATOM
       1    C1      16.659391   19.721975   22.760026 C.2        1 MOL1        -0.2535
       2    H1      15.923212   20.033025   23.499300 H          1 MOL1         0.0845
       3    H2      16.414851   19.882247   21.711186 H          1 MOL1         0.0845
       4    C2      17.817013   19.167882   23.129633 C.2        1 MOL1        -0.1324
       5    H3      18.043130   19.016624   24.184933 H          1 MOL1         0.0833
       6    C3      18.885652   18.710681   22.161864 C.3        1 MOL1        -0.1813
       7    H4      18.479087   18.659413   21.142820 H          1 MOL1         0.0753
       8    H5      19.203073   17.694803   22.430546 H          1 MOL1         0.0753
       9    C4      20.100538   19.664970   22.185559 C.3        1 MOL1        -0.1855
      10    H6      19.748474   20.691419   22.013475 H          1 MOL1         0.0755
      11    H7      20.553459   19.658171   23.186596 H          1 MOL1         0.0755
      12    C5      21.173612   19.327124   21.121340 C.3        1 MOL1        -0.1855
      13    H8      21.959048   20.094806   21.155115 H          1 MOL1         0.0755
      14    H9      20.723970   19.391206   20.121278 H          1 MOL1         0.0755
      15    C6      21.832999   17.931558   21.294619 C.3        1 MOL1        -0.1958
      16    H10     21.087123   17.135301   21.191431 H          1 MOL1         0.0753
      17    H11     22.566126   17.774917   20.494811 H          1 MOL1         0.0753
      18    C7      22.563357   17.748079   22.621891 C.2        1 MOL1         0.6174
      19    O1      23.612634   18.339714   22.784349 O.co2      1 MOL1        -0.6695
      20    O2      22.074451   17.005661   23.450588 O.co2      1 MOL1        -0.6695
@<TRIPOS>BOND
    1     1     2    1
    2     1     3    1
    3     1     4    2
    4     4     5    1
    5     4     6    1
    6     6     7    1
    7     6     8    1
    8     6     9    1
    9     9    10    1
   10     9    11    1
   11     9    12    1
   12    12    13    1
   13    12    14    1
   14    12    15    1
   15    15    16    1
   16    15    17    1
   17    15    18    1
   18    18    19    1
   19    18    20    2
@<TRIPOS>SUBSTRUCTURE
       1 MOL1            1 RESIDUE      1      MOL     
@<SCITEGIC>MOL_PROPERTY
VConf Rank
SciTegic.value.IntegerValue
589

@<SCITEGIC>MOL_PROPERTY
Conf_Id
SciTegic.value.IntegerValue
84

@<SCITEGIC>MOL_PROPERTY
Delta U+W
SciTegic.value.DoubleValue
0.942

@<SCITEGIC>MOL_PROPERTY
U+W
SciTegic.value.DoubleValue
-50.803

@<SCITEGIC>MOL_PROPERTY
Grad RMS
SciTegic.value.DoubleValue
0.000000

@<SCITEGIC>MOL_PROPERTY
U
SciTegic.value.DoubleValue
10.196

@<SCITEGIC>MOL_PROPERTY
W
SciTegic.value.DoubleValue
-60.999

@<SCITEGIC>MOL_PROPERTY
W(PB)
SciTegic.value.DoubleValue
-63.182

@<SCITEGIC>MOL_PROPERTY
W(SA)
SciTegic.value.DoubleValue
2.182

@<SCITEGIC>MOL_PROPERTY
Valence
SciTegic.value.DoubleValue
9.837

@<SCITEGIC>MOL_PROPERTY
Coulomb
SciTegic.value.DoubleValue
0.032

@<SCITEGIC>MOL_PROPERTY
VdW
SciTegic.value.DoubleValue
0.328

@<SCITEGIC>MOL_PROPERTY
VdW6
SciTegic.value.DoubleValue
-7.642

@<SCITEGIC>MOL_PROPERTY
VdW12
SciTegic.value.DoubleValue
7.969

@<SCITEGIC>MOL_PROPERTY
Bond
SciTegic.value.DoubleValue
0.151

@<SCITEGIC>MOL_PROPERTY
Angle
SciTegic.value.DoubleValue
2.748

@<SCITEGIC>MOL_PROPERTY
Pdih
SciTegic.value.DoubleValue
6.937

@<SCITEGIC>MOL_PROPERTY
Idih
SciTegic.value.DoubleValue
0.001

@<SCITEGIC>MOL_PROPERTY
Tether
SciTegic.value.DoubleValue
0.000

@<TRIPOS>MOLECULE
guest-s22_confgen4.mol2 : confsearch ligand conformer 590
          20          19           1
SMALL
USER_CHARGES
 
@<TRIPOS>ATOM
       1    C1      17.235067   18.945562   24.564228 C.2        1 MOL1        -0.2535
       2    H1      16.335823   19.375727   25.001927 H          1 MOL1         0.0845
       3    H2      17.242680   17.870772   24.390012 H          1 MOL1         0.0845
       4    C2      18.284609   19.710319   24.252342 C.2        1 MOL1        -0.1324
       5    H3      18.256290   20.784478   24.434046 H          1 MOL1         0.0833
       6    C3      19.565520   19.184646   23.643573 C.3        1 MOL1        -0.1813
       7    H4      19.608756   18.090710   23.734266 H          1 MOL1         0.0753
       8    H5      20.425907   19.582117   24.198401 H          1 MOL1         0.0753
       9    C4      19.679866   19.581403   22.156775 C.3        1 MOL1        -0.1855
      10    H6      18.812953   19.186069   21.609187 H          1 MOL1         0.0755
      11    H7      19.640814   20.675577   22.065633 H          1 MOL1         0.0755
      12    C5      20.985837   19.054444   21.520309 C.3        1 MOL1        -0.1855
      13    H8      21.021620   17.958759   21.597160 H          1 MOL1         0.0755
      14    H9      21.845388   19.439222   22.085719 H          1 MOL1         0.0755
      15    C6      21.134792   19.470010   20.033702 C.3        1 MOL1        -0.1958
      16    H10     21.073904   20.560805   19.937199 H          1 MOL1         0.0753
      17    H11     22.124882   19.173695   19.667787 H          1 MOL1         0.0753
      18    C7      20.098711   18.840357   19.106896 C.2        1 MOL1         0.6174
      19    O1      19.190471   19.537912   18.700093 O.co2      1 MOL1        -0.6695
      20    O2      20.235684   17.670828   18.805987 O.co2      1 MOL1        -0.6695
@<TRIPOS>BOND
    1     1     2    1
    2     1     3    1
    3     1     4    2
    4     4     5    1
    5     4     6    1
    6     6     7    1
    7     6     8    1
    8     6     9    1
    9     9    10    1
   10     9    11    1
   11     9    12    1
   12    12    13    1
   13    12    14    1
   14    12    15    1
   15    15    16    1
   16    15    17    1
   17    15    18    1
   18    18    19    1
   19    18    20    2
@<TRIPOS>SUBSTRUCTURE
       1 MOL1            1 RESIDUE      1      MOL     
@<SCITEGIC>MOL_PROPERTY
VConf Rank
SciTegic.value.IntegerValue
590

@<SCITEGIC>MOL_PROPERTY
Conf_Id
SciTegic.value.IntegerValue
81

@<SCITEGIC>MOL_PROPERTY
Delta U+W
SciTegic.value.DoubleValue
-0.051

@<SCITEGIC>MOL_PROPERTY
U+W
SciTegic.value.DoubleValue
-51.796

@<SCITEGIC>MOL_PROPERTY
Grad RMS
SciTegic.value.DoubleValue
0.000000

@<SCITEGIC>MOL_PROPERTY
U
SciTegic.value.DoubleValue
9.412

@<SCITEGIC>MOL_PROPERTY
W
SciTegic.value.DoubleValue
-61.209

@<SCITEGIC>MOL_PROPERTY
W(PB)
SciTegic.value.DoubleValue
-63.452

@<SCITEGIC>MOL_PROPERTY
W(SA)
SciTegic.value.DoubleValue
2.243

@<SCITEGIC>MOL_PROPERTY
Valence
SciTegic.value.DoubleValue
9.329

@<SCITEGIC>MOL_PROPERTY
Coulomb
SciTegic.value.DoubleValue
-0.323

@<SCITEGIC>MOL_PROPERTY
VdW
SciTegic.value.DoubleValue
0.406

@<SCITEGIC>MOL_PROPERTY
VdW6
SciTegic.value.DoubleValue
-6.640

@<SCITEGIC>MOL_PROPERTY
VdW12
SciTegic.value.DoubleValue
7.046

@<SCITEGIC>MOL_PROPERTY
Bond
SciTegic.value.DoubleValue
0.105

@<SCITEGIC>MOL_PROPERTY
Angle
SciTegic.value.DoubleValue
2.401

@<SCITEGIC>MOL_PROPERTY
Pdih
SciTegic.value.DoubleValue
6.823

@<SCITEGIC>MOL_PROPERTY
Idih
SciTegic.value.DoubleValue
0.000

@<SCITEGIC>MOL_PROPERTY
Tether
SciTegic.value.DoubleValue
0.000

@<TRIPOS>MOLECULE
guest-s22_confgen4.mol2 : confsearch ligand conformer 591
          20          19           1
SMALL
USER_CHARGES
 
@<TRIPOS>ATOM
       1    C1      17.274549   20.644770   23.598400 C.2        1 MOL1        -0.2535
       2    H1      17.021809   21.526069   23.011122 H          1 MOL1         0.0845
       3    H2      16.568445   20.335235   24.367002 H          1 MOL1         0.0845
       4    C2      18.404457   19.965370   23.385324 C.2        1 MOL1        -0.1324
       5    H3      18.639702   19.087210   23.985924 H          1 MOL1         0.0833
       6    C3      19.434281   20.338460   22.340436 C.3        1 MOL1        -0.1813
       7    H4      20.443424   20.279624   22.768337 H          1 MOL1         0.0753
       8    H5      19.296469   21.386548   22.042550 H          1 MOL1         0.0753
       9    C4      19.340709   19.452216   21.075318 C.3        1 MOL1        -0.1855
      10    H6      18.352763   19.594291   20.616394 H          1 MOL1         0.0755
      11    H7      20.072842   19.807215   20.337126 H          1 MOL1         0.0755
      12    C5      19.561372   17.938206   21.326659 C.3        1 MOL1        -0.1855
      13    H8      19.447056   17.403124   20.373873 H          1 MOL1         0.0755
      14    H9      18.769951   17.557001   21.985469 H          1 MOL1         0.0755
      15    C6      20.945790   17.582602   21.934212 C.3        1 MOL1        -0.1958
      16    H10     21.062740   18.040447   22.923020 H          1 MOL1         0.0753
      17    H11     21.008357   16.498652   22.085028 H          1 MOL1         0.0753
      18    C7      22.131107   17.989501   21.063580 C.2        1 MOL1         0.6174
      19    O1      22.822362   18.919835   21.429271 O.co2      1 MOL1        -0.6695
      20    O2      22.342045   17.352662   20.049971 O.co2      1 MOL1        -0.6695
@<TRIPOS>BOND
    1     1     2    1
    2     1     3    1
    3     1     4    2
    4     4     5    1
    5     4     6    1
    6     6     7    1
    7     6     8    1
    8     6     9    1
    9     9    10    1
   10     9    11    1
   11     9    12    1
   12    12    13    1
   13    12    14    1
   14    12    15    1
   15    15    16    1
   16    15    17    1
   17    15    18    1
   18    18    19    1
   19    18    20    2
@<TRIPOS>SUBSTRUCTURE
       1 MOL1            1 RESIDUE      1      MOL     
@<SCITEGIC>MOL_PROPERTY
VConf Rank
SciTegic.value.IntegerValue
591

@<SCITEGIC>MOL_PROPERTY
Conf_Id
SciTegic.value.IntegerValue
86

@<SCITEGIC>MOL_PROPERTY
Delta U+W
SciTegic.value.DoubleValue
1.248

@<SCITEGIC>MOL_PROPERTY
U+W
SciTegic.value.DoubleValue
-50.498

@<SCITEGIC>MOL_PROPERTY
Grad RMS
SciTegic.value.DoubleValue
0.000000

@<SCITEGIC>MOL_PROPERTY
U
SciTegic.value.DoubleValue
10.404

@<SCITEGIC>MOL_PROPERTY
W
SciTegic.value.DoubleValue
-60.901

@<SCITEGIC>MOL_PROPERTY
W(PB)
SciTegic.value.DoubleValue
-63.061

@<SCITEGIC>MOL_PROPERTY
W(SA)
SciTegic.value.DoubleValue
2.159

@<SCITEGIC>MOL_PROPERTY
Valence
SciTegic.value.DoubleValue
10.021

@<SCITEGIC>MOL_PROPERTY
Coulomb
SciTegic.value.DoubleValue
0.094

@<SCITEGIC>MOL_PROPERTY
VdW
SciTegic.value.DoubleValue
0.289

@<SCITEGIC>MOL_PROPERTY
VdW6
SciTegic.value.DoubleValue
-8.409

@<SCITEGIC>MOL_PROPERTY
VdW12
SciTegic.value.DoubleValue
8.698

@<SCITEGIC>MOL_PROPERTY
Bond
SciTegic.value.DoubleValue
0.179

@<SCITEGIC>MOL_PROPERTY
Angle
SciTegic.value.DoubleValue
2.939

@<SCITEGIC>MOL_PROPERTY
Pdih
SciTegic.value.DoubleValue
6.902

@<SCITEGIC>MOL_PROPERTY
Idih
SciTegic.value.DoubleValue
0.001

@<SCITEGIC>MOL_PROPERTY
Tether
SciTegic.value.DoubleValue
0.000

@<TRIPOS>MOLECULE
guest-s22_confgen4.mol2 : confsearch ligand conformer 592
          20          19           1
SMALL
USER_CHARGES
 
@<TRIPOS>ATOM
       1    C1      18.410331   20.839218   24.172472 C.2        1 MOL1        -0.2535
       2    H1      18.337135   21.892183   24.438951 H          1 MOL1         0.0845
       3    H2      17.482792   20.310559   23.958901 H          1 MOL1         0.0845
       4    C2      19.594245   20.224265   24.107616 C.2        1 MOL1        -0.1324
       5    H3      20.511172   20.772202   24.323022 H          1 MOL1         0.0833
       6    C3      19.775083   18.765705   23.744362 C.3        1 MOL1        -0.1813
       7    H4      18.808079   18.244591   23.742520 H          1 MOL1         0.0753
       8    H5      20.388111   18.277975   24.513867 H          1 MOL1         0.0753
       9    C4      20.461305   18.583772   22.371752 C.3        1 MOL1        -0.1855
      10    H6      21.426786   19.107956   22.371418 H          1 MOL1         0.0755
      11    H7      20.684167   17.517663   22.227687 H          1 MOL1         0.0755
      12    C5      19.590248   19.089145   21.197249 C.3        1 MOL1        -0.1855
      13    H8      19.372392   20.156493   21.336439 H          1 MOL1         0.0755
      14    H9      18.623238   18.567384   21.200200 H          1 MOL1         0.0755
      15    C6      20.275523   18.895010   19.819663 C.3        1 MOL1        -0.1958
      16    H10     19.674265   19.377847   19.040370 H          1 MOL1         0.0753
      17    H11     21.256911   19.384506   19.812588 H          1 MOL1         0.0753
      18    C7      20.456427   17.434280   19.416838 C.2        1 MOL1         0.6174
      19    O1      19.482600   16.825075   19.019776 O.co2      1 MOL1        -0.6695
      20    O2      21.566897   16.947329   19.499422 O.co2      1 MOL1        -0.6695
@<TRIPOS>BOND
    1     1     2    1
    2     1     3    1
    3     1     4    2
    4     4     5    1
    5     4     6    1
    6     6     7    1
    7     6     8    1
    8     6     9    1
    9     9    10    1
   10     9    11    1
   11     9    12    1
   12    12    13    1
   13    12    14    1
   14    12    15    1
   15    15    16    1
   16    15    17    1
   17    15    18    1
   18    18    19    1
   19    18    20    2
@<TRIPOS>SUBSTRUCTURE
       1 MOL1            1 RESIDUE      1      MOL     
@<SCITEGIC>MOL_PROPERTY
VConf Rank
SciTegic.value.IntegerValue
592

@<SCITEGIC>MOL_PROPERTY
Conf_Id
SciTegic.value.IntegerValue
28

@<SCITEGIC>MOL_PROPERTY
Delta U+W
SciTegic.value.DoubleValue
0.446

@<SCITEGIC>MOL_PROPERTY
U+W
SciTegic.value.DoubleValue
-51.299

@<SCITEGIC>MOL_PROPERTY
Grad RMS
SciTegic.value.DoubleValue
0.000000

@<SCITEGIC>MOL_PROPERTY
U
SciTegic.value.DoubleValue
9.295

@<SCITEGIC>MOL_PROPERTY
W
SciTegic.value.DoubleValue
-60.594

@<SCITEGIC>MOL_PROPERTY
W(PB)
SciTegic.value.DoubleValue
-62.806

@<SCITEGIC>MOL_PROPERTY
W(SA)
SciTegic.value.DoubleValue
2.212

@<SCITEGIC>MOL_PROPERTY
Valence
SciTegic.value.DoubleValue
9.495

@<SCITEGIC>MOL_PROPERTY
Coulomb
SciTegic.value.DoubleValue
-0.610

@<SCITEGIC>MOL_PROPERTY
VdW
SciTegic.value.DoubleValue
0.409

@<SCITEGIC>MOL_PROPERTY
VdW6
SciTegic.value.DoubleValue
-7.332

@<SCITEGIC>MOL_PROPERTY
VdW12
SciTegic.value.DoubleValue
7.741

@<SCITEGIC>MOL_PROPERTY
Bond
SciTegic.value.DoubleValue
0.126

@<SCITEGIC>MOL_PROPERTY
Angle
SciTegic.value.DoubleValue
2.497

@<SCITEGIC>MOL_PROPERTY
Pdih
SciTegic.value.DoubleValue
6.872

@<SCITEGIC>MOL_PROPERTY
Idih
SciTegic.value.DoubleValue
0.000

@<SCITEGIC>MOL_PROPERTY
Tether
SciTegic.value.DoubleValue
0.000

@<TRIPOS>MOLECULE
guest-s22_confgen4.mol2 : confsearch ligand conformer 593
          20          19           1
SMALL
USER_CHARGES
 
@<TRIPOS>ATOM
       1    C1      22.471309   20.892456   22.382538 C.2        1 MOL1        -0.2535
       2    H1      22.740619   19.849149   22.232612 H          1 MOL1         0.0845
       3    H2      23.280970   21.619189   22.344482 H          1 MOL1         0.0845
       4    C2      21.210898   21.284556   22.600704 C.2        1 MOL1        -0.1324
       5    H3      21.002859   22.344960   22.741423 H          1 MOL1         0.0833
       6    C3      19.982724   20.393258   22.682148 C.3        1 MOL1        -0.1813
       7    H4      19.293050   20.679946   21.877898 H          1 MOL1         0.0753
       8    H5      19.454603   20.608160   23.620582 H          1 MOL1         0.0753
       9    C4      20.271954   18.873785   22.603729 C.3        1 MOL1        -0.1855
      10    H6      20.720543   18.633211   21.630043 H          1 MOL1         0.0755
      11    H7      21.017333   18.611677   23.366883 H          1 MOL1         0.0755
      12    C5      19.017577   17.993893   22.830420 C.3        1 MOL1        -0.1855
      13    H8      18.603537   18.203587   23.825903 H          1 MOL1         0.0755
      14    H9      19.323984   16.938714   22.841431 H          1 MOL1         0.0755
      15    C6      17.901228   18.176452   21.765952 C.3        1 MOL1        -0.1958
      16    H10     17.054476   17.525830   22.013663 H          1 MOL1         0.0753
      17    H11     17.517167   19.202717   21.779203 H          1 MOL1         0.0753
      18    C7      18.333869   17.834314   20.343044 C.2        1 MOL1         0.6174
      19    O1      18.529944   16.666357   20.069397 O.co2      1 MOL1        -0.6695
      20    O2      18.443059   18.740533   19.540733 O.co2      1 MOL1        -0.6695
@<TRIPOS>BOND
    1     1     2    1
    2     1     3    1
    3     1     4    2
    4     4     5    1
    5     4     6    1
    6     6     7    1
    7     6     8    1
    8     6     9    1
    9     9    10    1
   10     9    11    1
   11     9    12    1
   12    12    13    1
   13    12    14    1
   14    12    15    1
   15    15    16    1
   16    15    17    1
   17    15    18    1
   18    18    19    1
   19    18    20    2
@<TRIPOS>SUBSTRUCTURE
       1 MOL1            1 RESIDUE      1      MOL     
@<SCITEGIC>MOL_PROPERTY
VConf Rank
SciTegic.value.IntegerValue
593

@<SCITEGIC>MOL_PROPERTY
Conf_Id
SciTegic.value.IntegerValue
53

@<SCITEGIC>MOL_PROPERTY
Delta U+W
SciTegic.value.DoubleValue
0.549

@<SCITEGIC>MOL_PROPERTY
U+W
SciTegic.value.DoubleValue
-51.197

@<SCITEGIC>MOL_PROPERTY
Grad RMS
SciTegic.value.DoubleValue
0.000000

@<SCITEGIC>MOL_PROPERTY
U
SciTegic.value.DoubleValue
10.870

@<SCITEGIC>MOL_PROPERTY
W
SciTegic.value.DoubleValue
-62.067

@<SCITEGIC>MOL_PROPERTY
W(PB)
SciTegic.value.DoubleValue
-64.228

@<SCITEGIC>MOL_PROPERTY
W(SA)
SciTegic.value.DoubleValue
2.161

@<SCITEGIC>MOL_PROPERTY
Valence
SciTegic.value.DoubleValue
8.803

@<SCITEGIC>MOL_PROPERTY
Coulomb
SciTegic.value.DoubleValue
1.020

@<SCITEGIC>MOL_PROPERTY
VdW
SciTegic.value.DoubleValue
1.048

@<SCITEGIC>MOL_PROPERTY
VdW6
SciTegic.value.DoubleValue
-8.312

@<SCITEGIC>MOL_PROPERTY
VdW12
SciTegic.value.DoubleValue
9.360

@<SCITEGIC>MOL_PROPERTY
Bond
SciTegic.value.DoubleValue
0.212

@<SCITEGIC>MOL_PROPERTY
Angle
SciTegic.value.DoubleValue
3.379

@<SCITEGIC>MOL_PROPERTY
Pdih
SciTegic.value.DoubleValue
5.211

@<SCITEGIC>MOL_PROPERTY
Idih
SciTegic.value.DoubleValue
0.001

@<SCITEGIC>MOL_PROPERTY
Tether
SciTegic.value.DoubleValue
0.000

@<TRIPOS>MOLECULE
guest-s22_confgen4.mol2 : confsearch ligand conformer 594
          20          19           1
SMALL
USER_CHARGES
 
@<TRIPOS>ATOM
       1    C1      17.135397   19.429243   21.050675 C.2        1 MOL1        -0.2535
       2    H1      16.906194   18.597760   21.713547 H          1 MOL1         0.0845
       3    H2      16.488631   19.564377   20.185599 H          1 MOL1         0.0845
       4    C2      18.158186   20.260334   21.278371 C.2        1 MOL1        -0.1324
       5    H3      18.342511   21.079740   20.584181 H          1 MOL1         0.0833
       6    C3      19.139666   20.186646   22.436455 C.3        1 MOL1        -0.1813
       7    H4      18.827178   20.901938   23.208537 H          1 MOL1         0.0753
       8    H5      20.118482   20.550528   22.098684 H          1 MOL1         0.0753
       9    C4      19.322455   18.787888   23.081309 C.3        1 MOL1        -0.1855
      10    H6      19.994580   18.886322   23.944673 H          1 MOL1         0.0755
      11    H7      18.363119   18.447280   23.492386 H          1 MOL1         0.0755
      12    C5      19.886567   17.701444   22.128276 C.3        1 MOL1        -0.1855
      13    H8      19.187855   17.540045   21.297429 H          1 MOL1         0.0755
      14    H9      19.937477   16.748492   22.672620 H          1 MOL1         0.0755
      15    C6      21.292527   18.018922   21.549653 C.3        1 MOL1        -0.1958
      16    H10     21.605029   17.202561   20.888243 H          1 MOL1         0.0753
      17    H11     21.259785   18.922874   20.930945 H          1 MOL1         0.0753
      18    C7      22.379303   18.187972   22.607370 C.2        1 MOL1         0.6174
      19    O1      22.814451   19.303894   22.813577 O.co2      1 MOL1        -0.6695
      20    O2      22.775174   17.194528   23.185180 O.co2      1 MOL1        -0.6695
@<TRIPOS>BOND
    1     1     2    1
    2     1     3    1
    3     1     4    2
    4     4     5    1
    5     4     6    1
    6     6     7    1
    7     6     8    1
    8     6     9    1
    9     9    10    1
   10     9    11    1
   11     9    12    1
   12    12    13    1
   13    12    14    1
   14    12    15    1
   15    15    16    1
   16    15    17    1
   17    15    18    1
   18    18    19    1
   19    18    20    2
@<TRIPOS>SUBSTRUCTURE
       1 MOL1            1 RESIDUE      1      MOL     
@<SCITEGIC>MOL_PROPERTY
VConf Rank
SciTegic.value.IntegerValue
594

@<SCITEGIC>MOL_PROPERTY
Conf_Id
SciTegic.value.IntegerValue
66

@<SCITEGIC>MOL_PROPERTY
Delta U+W
SciTegic.value.DoubleValue
1.737

@<SCITEGIC>MOL_PROPERTY
U+W
SciTegic.value.DoubleValue
-50.008

@<SCITEGIC>MOL_PROPERTY
Grad RMS
SciTegic.value.DoubleValue
0.000000

@<SCITEGIC>MOL_PROPERTY
U
SciTegic.value.DoubleValue
11.091

@<SCITEGIC>MOL_PROPERTY
W
SciTegic.value.DoubleValue
-61.099

@<SCITEGIC>MOL_PROPERTY
W(PB)
SciTegic.value.DoubleValue
-63.213

@<SCITEGIC>MOL_PROPERTY
W(SA)
SciTegic.value.DoubleValue
2.114

@<SCITEGIC>MOL_PROPERTY
Valence
SciTegic.value.DoubleValue
9.664

@<SCITEGIC>MOL_PROPERTY
Coulomb
SciTegic.value.DoubleValue
0.658

@<SCITEGIC>MOL_PROPERTY
VdW
SciTegic.value.DoubleValue
0.769

@<SCITEGIC>MOL_PROPERTY
VdW6
SciTegic.value.DoubleValue
-9.171

@<SCITEGIC>MOL_PROPERTY
VdW12
SciTegic.value.DoubleValue
9.940

@<SCITEGIC>MOL_PROPERTY
Bond
SciTegic.value.DoubleValue
0.244

@<SCITEGIC>MOL_PROPERTY
Angle
SciTegic.value.DoubleValue
3.658

@<SCITEGIC>MOL_PROPERTY
Pdih
SciTegic.value.DoubleValue
5.762

@<SCITEGIC>MOL_PROPERTY
Idih
SciTegic.value.DoubleValue
0.001

@<SCITEGIC>MOL_PROPERTY
Tether
SciTegic.value.DoubleValue
0.000

@<TRIPOS>MOLECULE
guest-s22_confgen4.mol2 : confsearch ligand conformer 595
          20          19           1
SMALL
USER_CHARGES
 
@<TRIPOS>ATOM
       1    C1      21.481447   20.563863   20.783108 C.2        1 MOL1        -0.2535
       2    H1      21.808377   19.556993   20.533083 H          1 MOL1         0.0845
       3    H2      21.657525   21.338967   20.039370 H          1 MOL1         0.0845
       4    C2      20.893705   20.854002   21.948981 C.2        1 MOL1        -0.1324
       5    H3      20.588183   21.880725   22.148572 H          1 MOL1         0.0833
       6    C3      20.580993   19.878338   23.071874 C.3        1 MOL1        -0.1813
       7    H4      19.646406   20.184389   23.558217 H          1 MOL1         0.0753
       8    H5      21.348853   19.982229   23.849808 H          1 MOL1         0.0753
       9    C4      20.470561   18.386103   22.662781 C.3        1 MOL1        -0.1855
      10    H6      21.422992   18.055963   22.227607 H          1 MOL1         0.0755
      11    H7      20.334516   17.781875   23.569991 H          1 MOL1         0.0755
      12    C5      19.317256   18.068140   21.677140 C.3        1 MOL1        -0.1855
      13    H8      19.384048   17.009561   21.390556 H          1 MOL1         0.0755
      14    H9      19.439196   18.645145   20.750968 H          1 MOL1         0.0755
      15    C6      17.907587   18.335271   22.265691 C.3        1 MOL1        -0.1958
      16    H10     17.787655   17.805632   23.218187 H          1 MOL1         0.0753
      17    H11     17.770756   19.403847   22.466353 H          1 MOL1         0.0753
      18    C7      16.785730   17.890488   21.334107 C.2        1 MOL1         0.6174
      19    O1      16.338796   18.699319   20.544933 O.co2      1 MOL1        -0.6695
      20    O2      16.397517   16.741530   21.412328 O.co2      1 MOL1        -0.6695
@<TRIPOS>BOND
    1     1     2    1
    2     1     3    1
    3     1     4    2
    4     4     5    1
    5     4     6    1
    6     6     7    1
    7     6     8    1
    8     6     9    1
    9     9    10    1
   10     9    11    1
   11     9    12    1
   12    12    13    1
   13    12    14    1
   14    12    15    1
   15    15    16    1
   16    15    17    1
   17    15    18    1
   18    18    19    1
   19    18    20    2
@<TRIPOS>SUBSTRUCTURE
       1 MOL1            1 RESIDUE      1      MOL     
@<SCITEGIC>MOL_PROPERTY
VConf Rank
SciTegic.value.IntegerValue
595

@<SCITEGIC>MOL_PROPERTY
Conf_Id
SciTegic.value.IntegerValue
64

@<SCITEGIC>MOL_PROPERTY
Delta U+W
SciTegic.value.DoubleValue
0.366

@<SCITEGIC>MOL_PROPERTY
U+W
SciTegic.value.DoubleValue
-51.379

@<SCITEGIC>MOL_PROPERTY
Grad RMS
SciTegic.value.DoubleValue
0.000000

@<SCITEGIC>MOL_PROPERTY
U
SciTegic.value.DoubleValue
10.000

@<SCITEGIC>MOL_PROPERTY
W
SciTegic.value.DoubleValue
-61.379

@<SCITEGIC>MOL_PROPERTY
W(PB)
SciTegic.value.DoubleValue
-63.541

@<SCITEGIC>MOL_PROPERTY
W(SA)
SciTegic.value.DoubleValue
2.162

@<SCITEGIC>MOL_PROPERTY
Valence
SciTegic.value.DoubleValue
9.398

@<SCITEGIC>MOL_PROPERTY
Coulomb
SciTegic.value.DoubleValue
-0.504

@<SCITEGIC>MOL_PROPERTY
VdW
SciTegic.value.DoubleValue
1.105

@<SCITEGIC>MOL_PROPERTY
VdW6
SciTegic.value.DoubleValue
-7.975

@<SCITEGIC>MOL_PROPERTY
VdW12
SciTegic.value.DoubleValue
9.080

@<SCITEGIC>MOL_PROPERTY
Bond
SciTegic.value.DoubleValue
0.216

@<SCITEGIC>MOL_PROPERTY
Angle
SciTegic.value.DoubleValue
3.417

@<SCITEGIC>MOL_PROPERTY
Pdih
SciTegic.value.DoubleValue
5.765

@<SCITEGIC>MOL_PROPERTY
Idih
SciTegic.value.DoubleValue
0.001

@<SCITEGIC>MOL_PROPERTY
Tether
SciTegic.value.DoubleValue
0.000

@<TRIPOS>MOLECULE
guest-s22_confgen4.mol2 : confsearch ligand conformer 596
          20          19           1
SMALL
USER_CHARGES
 
@<TRIPOS>ATOM
       1    C1      21.452045   20.373736   19.778524 C.2        1 MOL1        -0.2535
       2    H1      22.337934   19.855600   20.142053 H          1 MOL1         0.0845
       3    H2      21.577259   21.398391   19.432826 H          1 MOL1         0.0845
       4    C2      20.255651   19.780190   19.759630 C.2        1 MOL1        -0.1324
       5    H3      19.380900   20.317375   19.394071 H          1 MOL1         0.0833
       6    C3      20.003958   18.361325   20.223799 C.3        1 MOL1        -0.1813
       7    H4      20.953428   17.831402   20.379889 H          1 MOL1         0.0753
       8    H5      19.470627   17.814992   19.434545 H          1 MOL1         0.0753
       9    C4      19.164890   18.309253   21.520408 C.3        1 MOL1        -0.1855
      10    H6      18.215584   18.839876   21.364391 H          1 MOL1         0.0755
      11    H7      18.908737   17.262787   21.735297 H          1 MOL1         0.0755
      12    C5      19.907306   18.910406   22.735734 C.3        1 MOL1        -0.1855
      13    H8      20.145737   19.965666   22.543887 H          1 MOL1         0.0755
      14    H9      20.864088   18.389646   22.879489 H          1 MOL1         0.0755
      15    C6      19.067728   18.807003   24.032821 C.3        1 MOL1        -0.1958
      16    H10     18.113758   19.333472   23.908887 H          1 MOL1         0.0753
      17    H11     18.833698   17.757972   24.250190 H          1 MOL1         0.0753
      18    C7      19.779102   19.394106   25.246639 C.2        1 MOL1         0.6174
      19    O1      20.507648   18.666352   25.891886 O.co2      1 MOL1        -0.6695
      20    O2      19.597048   20.567063   25.506869 O.co2      1 MOL1        -0.6695
@<TRIPOS>BOND
    1     1     2    1
    2     1     3    1
    3     1     4    2
    4     4     5    1
    5     4     6    1
    6     6     7    1
    7     6     8    1
    8     6     9    1
    9     9    10    1
   10     9    11    1
   11     9    12    1
   12    12    13    1
   13    12    14    1
   14    12    15    1
   15    15    16    1
   16    15    17    1
   17    15    18    1
   18    18    19    1
   19    18    20    2
@<TRIPOS>SUBSTRUCTURE
       1 MOL1            1 RESIDUE      1      MOL     
@<SCITEGIC>MOL_PROPERTY
VConf Rank
SciTegic.value.IntegerValue
596

@<SCITEGIC>MOL_PROPERTY
Conf_Id
SciTegic.value.IntegerValue
42

@<SCITEGIC>MOL_PROPERTY
Delta U+W
SciTegic.value.DoubleValue
-0.601

@<SCITEGIC>MOL_PROPERTY
U+W
SciTegic.value.DoubleValue
-52.347

@<SCITEGIC>MOL_PROPERTY
Grad RMS
SciTegic.value.DoubleValue
0.000000

@<SCITEGIC>MOL_PROPERTY
U
SciTegic.value.DoubleValue
8.428

@<SCITEGIC>MOL_PROPERTY
W
SciTegic.value.DoubleValue
-60.774

@<SCITEGIC>MOL_PROPERTY
W(PB)
SciTegic.value.DoubleValue
-62.982

@<SCITEGIC>MOL_PROPERTY
W(SA)
SciTegic.value.DoubleValue
2.208

@<SCITEGIC>MOL_PROPERTY
Valence
SciTegic.value.DoubleValue
9.231

@<SCITEGIC>MOL_PROPERTY
Coulomb
SciTegic.value.DoubleValue
-1.304

@<SCITEGIC>MOL_PROPERTY
VdW
SciTegic.value.DoubleValue
0.501

@<SCITEGIC>MOL_PROPERTY
VdW6
SciTegic.value.DoubleValue
-6.515

@<SCITEGIC>MOL_PROPERTY
VdW12
SciTegic.value.DoubleValue
7.016

@<SCITEGIC>MOL_PROPERTY
Bond
SciTegic.value.DoubleValue
0.103

@<SCITEGIC>MOL_PROPERTY
Angle
SciTegic.value.DoubleValue
2.328

@<SCITEGIC>MOL_PROPERTY
Pdih
SciTegic.value.DoubleValue
6.799

@<SCITEGIC>MOL_PROPERTY
Idih
SciTegic.value.DoubleValue
0.000

@<SCITEGIC>MOL_PROPERTY
Tether
SciTegic.value.DoubleValue
0.000

@<TRIPOS>MOLECULE
guest-s22_confgen4.mol2 : confsearch ligand conformer 597
          20          19           1
SMALL
USER_CHARGES
 
@<TRIPOS>ATOM
       1    C1      21.329250   16.736433   21.717664 C.2        1 MOL1        -0.2535
       2    H1      20.551655   16.207263   21.169284 H          1 MOL1         0.0845
       3    H2      21.937524   16.156619   22.409700 H          1 MOL1         0.0845
       4    C2      21.529658   18.046754   21.553590 C.2        1 MOL1        -0.1324
       5    H3      22.311579   18.558087   22.114433 H          1 MOL1         0.0833
       6    C3      20.724795   18.917896   20.612734 C.3        1 MOL1        -0.1813
       7    H4      20.101288   18.300389   19.952027 H          1 MOL1         0.0753
       8    H5      21.412448   19.472399   19.960452 H          1 MOL1         0.0753
       9    C4      19.832681   19.927786   21.369182 C.3        1 MOL1        -0.1855
      10    H6      20.459148   20.548839   22.024294 H          1 MOL1         0.0755
      11    H7      19.370376   20.608476   20.641393 H          1 MOL1         0.0755
      12    C5      18.722543   19.239413   22.198039 C.3        1 MOL1        -0.1855
      13    H8      19.172305   18.586552   22.958855 H          1 MOL1         0.0755
      14    H9      18.127933   18.592292   21.539324 H          1 MOL1         0.0755
      15    C6      17.779286   20.256353   22.891525 C.3        1 MOL1        -0.1958
      16    H10     17.338882   20.932672   22.148986 H          1 MOL1         0.0753
      17    H11     16.948282   19.720797   23.365447 H          1 MOL1         0.0753
      18    C7      18.458048   21.094475   23.971175 C.2        1 MOL1         0.6174
      19    O1      18.752450   22.243861   23.707726 O.co2      1 MOL1        -0.6695
      20    O2      18.657838   20.580197   25.054087 O.co2      1 MOL1        -0.6695
@<TRIPOS>BOND
    1     1     2    1
    2     1     3    1
    3     1     4    2
    4     4     5    1
    5     4     6    1
    6     6     7    1
    7     6     8    1
    8     6     9    1
    9     9    10    1
   10     9    11    1
   11     9    12    1
   12    12    13    1
   13    12    14    1
   14    12    15    1
   15    15    16    1
   16    15    17    1
   17    15    18    1
   18    18    19    1
   19    18    20    2
@<TRIPOS>SUBSTRUCTURE
       1 MOL1            1 RESIDUE      1      MOL     
@<SCITEGIC>MOL_PROPERTY
VConf Rank
SciTegic.value.IntegerValue
597

@<SCITEGIC>MOL_PROPERTY
Conf_Id
SciTegic.value.IntegerValue
68

@<SCITEGIC>MOL_PROPERTY
Delta U+W
SciTegic.value.DoubleValue
0.492

@<SCITEGIC>MOL_PROPERTY
U+W
SciTegic.value.DoubleValue
-51.253

@<SCITEGIC>MOL_PROPERTY
Grad RMS
SciTegic.value.DoubleValue
0.000000

@<SCITEGIC>MOL_PROPERTY
U
SciTegic.value.DoubleValue
10.179

@<SCITEGIC>MOL_PROPERTY
W
SciTegic.value.DoubleValue
-61.432

@<SCITEGIC>MOL_PROPERTY
W(PB)
SciTegic.value.DoubleValue
-63.627

@<SCITEGIC>MOL_PROPERTY
W(SA)
SciTegic.value.DoubleValue
2.195

@<SCITEGIC>MOL_PROPERTY
Valence
SciTegic.value.DoubleValue
9.483

@<SCITEGIC>MOL_PROPERTY
Coulomb
SciTegic.value.DoubleValue
0.361

@<SCITEGIC>MOL_PROPERTY
VdW
SciTegic.value.DoubleValue
0.335

@<SCITEGIC>MOL_PROPERTY
VdW6
SciTegic.value.DoubleValue
-7.385

@<SCITEGIC>MOL_PROPERTY
VdW12
SciTegic.value.DoubleValue
7.720

@<SCITEGIC>MOL_PROPERTY
Bond
SciTegic.value.DoubleValue
0.125

@<SCITEGIC>MOL_PROPERTY
Angle
SciTegic.value.DoubleValue
2.487

@<SCITEGIC>MOL_PROPERTY
Pdih
SciTegic.value.DoubleValue
6.870

@<SCITEGIC>MOL_PROPERTY
Idih
SciTegic.value.DoubleValue
0.001

@<SCITEGIC>MOL_PROPERTY
Tether
SciTegic.value.DoubleValue
0.000

@<TRIPOS>MOLECULE
guest-s22_confgen4.mol2 : confsearch ligand conformer 598
          20          19           1
SMALL
USER_CHARGES
 
@<TRIPOS>ATOM
       1    C1      17.469310   19.191913   19.769160 C.2        1 MOL1        -0.2535
       2    H1      17.345755   20.247380   19.532065 H          1 MOL1         0.0845
       3    H2      16.599378   18.547446   19.654887 H          1 MOL1         0.0845
       4    C2      18.639812   18.703508   20.187586 C.2        1 MOL1        -0.1324
       5    H3      18.742302   17.643242   20.416886 H          1 MOL1         0.0833
       6    C3      19.891432   19.536627   20.364056 C.3        1 MOL1        -0.1813
       7    H4      19.796650   20.472443   19.796796 H          1 MOL1         0.0753
       8    H5      20.755800   19.007310   19.941342 H          1 MOL1         0.0753
       9    C4      20.164252   19.881391   21.845572 C.3        1 MOL1        -0.1855
      10    H6      21.002508   20.589585   21.895905 H          1 MOL1         0.0755
      11    H7      19.290883   20.400255   22.264624 H          1 MOL1         0.0755
      12    C5      20.499489   18.636523   22.700937 C.3        1 MOL1        -0.1855
      13    H8      21.341973   18.099496   22.244719 H          1 MOL1         0.0755
      14    H9      19.647420   17.943153   22.706607 H          1 MOL1         0.0755
      15    C6      20.867273   19.000772   24.162755 C.3        1 MOL1        -0.1958
      16    H10     21.206846   18.101477   24.689980 H          1 MOL1         0.0753
      17    H11     21.702034   19.711900   24.178070 H          1 MOL1         0.0753
      18    C7      19.710388   19.590871   24.964152 C.2        1 MOL1         0.6174
      19    O1      18.861824   18.831175   25.388307 O.co2      1 MOL1        -0.6695
      20    O2      19.698147   20.790325   25.159816 O.co2      1 MOL1        -0.6695
@<TRIPOS>BOND
    1     1     2    1
    2     1     3    1
    3     1     4    2
    4     4     5    1
    5     4     6    1
    6     6     7    1
    7     6     8    1
    8     6     9    1
    9     9    10    1
   10     9    11    1
   11     9    12    1
   12    12    13    1
   13    12    14    1
   14    12    15    1
   15    15    16    1
   16    15    17    1
   17    15    18    1
   18    18    19    1
   19    18    20    2
@<TRIPOS>SUBSTRUCTURE
       1 MOL1            1 RESIDUE      1      MOL     
@<SCITEGIC>MOL_PROPERTY
VConf Rank
SciTegic.value.IntegerValue
598

@<SCITEGIC>MOL_PROPERTY
Conf_Id
SciTegic.value.IntegerValue
87

@<SCITEGIC>MOL_PROPERTY
Delta U+W
SciTegic.value.DoubleValue
0.339

@<SCITEGIC>MOL_PROPERTY
U+W
SciTegic.value.DoubleValue
-51.407

@<SCITEGIC>MOL_PROPERTY
Grad RMS
SciTegic.value.DoubleValue
0.000000

@<SCITEGIC>MOL_PROPERTY
U
SciTegic.value.DoubleValue
10.461

@<SCITEGIC>MOL_PROPERTY
W
SciTegic.value.DoubleValue
-61.867

@<SCITEGIC>MOL_PROPERTY
W(PB)
SciTegic.value.DoubleValue
-64.045

@<SCITEGIC>MOL_PROPERTY
W(SA)
SciTegic.value.DoubleValue
2.178

@<SCITEGIC>MOL_PROPERTY
Valence
SciTegic.value.DoubleValue
9.555

@<SCITEGIC>MOL_PROPERTY
Coulomb
SciTegic.value.DoubleValue
0.483

@<SCITEGIC>MOL_PROPERTY
VdW
SciTegic.value.DoubleValue
0.423

@<SCITEGIC>MOL_PROPERTY
VdW6
SciTegic.value.DoubleValue
-7.223

@<SCITEGIC>MOL_PROPERTY
VdW12
SciTegic.value.DoubleValue
7.646

@<SCITEGIC>MOL_PROPERTY
Bond
SciTegic.value.DoubleValue
0.126

@<SCITEGIC>MOL_PROPERTY
Angle
SciTegic.value.DoubleValue
2.492

@<SCITEGIC>MOL_PROPERTY
Pdih
SciTegic.value.DoubleValue
6.936

@<SCITEGIC>MOL_PROPERTY
Idih
SciTegic.value.DoubleValue
0.001

@<SCITEGIC>MOL_PROPERTY
Tether
SciTegic.value.DoubleValue
0.000

@<TRIPOS>MOLECULE
guest-s22_confgen4.mol2 : confsearch ligand conformer 599
          20          19           1
SMALL
USER_CHARGES
 
@<TRIPOS>ATOM
       1    C1      21.458977   18.456969   24.025956 C.2        1 MOL1        -0.2535
       2    H1      21.377762   19.352961   24.639159 H          1 MOL1         0.0845
       3    H2      21.642166   17.513469   24.537100 H          1 MOL1         0.0845
       4    C2      21.336447   18.510596   22.697113 C.2        1 MOL1        -0.1324
       5    H3      21.429834   17.604347   22.099803 H          1 MOL1         0.0833
       6    C3      21.094281   19.787460   21.920852 C.3        1 MOL1        -0.1813
       7    H4      21.372306   19.650739   20.867313 H          1 MOL1         0.0753
       8    H5      21.768362   20.563222   22.308429 H          1 MOL1         0.0753
       9    C4      19.638675   20.307235   22.021906 C.3        1 MOL1        -0.1855
      10    H6      19.296757   20.266550   23.065157 H          1 MOL1         0.0755
      11    H7      19.640791   21.370827   21.747130 H          1 MOL1         0.0755
      12    C5      18.622863   19.586075   21.100410 C.3        1 MOL1        -0.1855
      13    H8      18.974944   19.616701   20.060149 H          1 MOL1         0.0755
      14    H9      17.678939   20.148243   21.121937 H          1 MOL1         0.0755
      15    C6      18.326065   18.119102   21.504342 C.3        1 MOL1        -0.1958
      16    H10     19.210189   17.491829   21.352907 H          1 MOL1         0.0753
      17    H11     18.063302   18.063697   22.567455 H          1 MOL1         0.0753
      18    C7      17.185181   17.505377   20.701002 C.2        1 MOL1         0.6174
      19    O1      17.453207   16.955521   19.650902 O.co2      1 MOL1        -0.6695
      20    O2      16.055307   17.611390   21.135775 O.co2      1 MOL1        -0.6695
@<TRIPOS>BOND
    1     1     2    1
    2     1     3    1
    3     1     4    2
    4     4     5    1
    5     4     6    1
    6     6     7    1
    7     6     8    1
    8     6     9    1
    9     9    10    1
   10     9    11    1
   11     9    12    1
   12    12    13    1
   13    12    14    1
   14    12    15    1
   15    15    16    1
   16    15    17    1
   17    15    18    1
   18    18    19    1
   19    18    20    2
@<TRIPOS>SUBSTRUCTURE
       1 MOL1            1 RESIDUE      1      MOL     
@<SCITEGIC>MOL_PROPERTY
VConf Rank
SciTegic.value.IntegerValue
599

@<SCITEGIC>MOL_PROPERTY
Conf_Id
SciTegic.value.IntegerValue
51

@<SCITEGIC>MOL_PROPERTY
Delta U+W
SciTegic.value.DoubleValue
1.709

@<SCITEGIC>MOL_PROPERTY
U+W
SciTegic.value.DoubleValue
-50.036

@<SCITEGIC>MOL_PROPERTY
Grad RMS
SciTegic.value.DoubleValue
0.000000

@<SCITEGIC>MOL_PROPERTY
U
SciTegic.value.DoubleValue
10.643

@<SCITEGIC>MOL_PROPERTY
W
SciTegic.value.DoubleValue
-60.679

@<SCITEGIC>MOL_PROPERTY
W(PB)
SciTegic.value.DoubleValue
-62.882

@<SCITEGIC>MOL_PROPERTY
W(SA)
SciTegic.value.DoubleValue
2.203

@<SCITEGIC>MOL_PROPERTY
Valence
SciTegic.value.DoubleValue
11.231

@<SCITEGIC>MOL_PROPERTY
Coulomb
SciTegic.value.DoubleValue
-1.077

@<SCITEGIC>MOL_PROPERTY
VdW
SciTegic.value.DoubleValue
0.489

@<SCITEGIC>MOL_PROPERTY
VdW6
SciTegic.value.DoubleValue
-7.546

@<SCITEGIC>MOL_PROPERTY
VdW12
SciTegic.value.DoubleValue
8.035

@<SCITEGIC>MOL_PROPERTY
Bond
SciTegic.value.DoubleValue
0.159

@<SCITEGIC>MOL_PROPERTY
Angle
SciTegic.value.DoubleValue
3.005

@<SCITEGIC>MOL_PROPERTY
Pdih
SciTegic.value.DoubleValue
8.065

@<SCITEGIC>MOL_PROPERTY
Idih
SciTegic.value.DoubleValue
0.002

@<SCITEGIC>MOL_PROPERTY
Tether
SciTegic.value.DoubleValue
0.000

@<TRIPOS>MOLECULE
guest-s22_confgen4.mol2 : confsearch ligand conformer 600
          20          19           1
SMALL
USER_CHARGES
 
@<TRIPOS>ATOM
       1    C1      17.223527   20.540021   22.482679 C.2        1 MOL1        -0.2535
       2    H1      16.458253   19.918889   22.020114 H          1 MOL1         0.0845
       3    H2      17.088804   21.619331   22.438408 H          1 MOL1         0.0845
       4    C2      18.289333   20.000566   23.079973 C.2        1 MOL1        -0.1324
       5    H3      19.039951   20.638530   23.545129 H          1 MOL1         0.0833
       6    C3      18.533794   18.510652   23.189504 C.3        1 MOL1        -0.1813
       7    H4      17.596558   18.025959   23.494575 H          1 MOL1         0.0753
       8    H5      19.252528   18.301125   23.992907 H          1 MOL1         0.0753
       9    C4      19.013325   17.862661   21.866882 C.3        1 MOL1        -0.1855
      10    H6      18.825992   16.782296   21.933618 H          1 MOL1         0.0755
      11    H7      18.401574   18.223010   21.028526 H          1 MOL1         0.0755
      12    C5      20.517544   18.059954   21.551437 C.3        1 MOL1        -0.1855
      13    H8      20.778206   17.415917   20.700108 H          1 MOL1         0.0755
      14    H9      21.125534   17.711566   22.397611 H          1 MOL1         0.0755
      15    C6      20.908413   19.517798   21.197626 C.3        1 MOL1        -0.1958
      16    H10     20.245851   19.909735   20.416781 H          1 MOL1         0.0753
      17    H11     20.803205   20.167519   22.072199 H          1 MOL1         0.0753
      18    C7      22.345946   19.640197   20.705550 C.2        1 MOL1         0.6174
      19    O1      23.222146   19.813536   21.529634 O.co2      1 MOL1        -0.6695
      20    O2      22.554762   19.538519   19.512680 O.co2      1 MOL1        -0.6695
@<TRIPOS>BOND
    1     1     2    1
    2     1     3    1
    3     1     4    2
    4     4     5    1
    5     4     6    1
    6     6     7    1
    7     6     8    1
    8     6     9    1
    9     9    10    1
   10     9    11    1
   11     9    12    1
   12    12    13    1
   13    12    14    1
   14    12    15    1
   15    15    16    1
   16    15    17    1
   17    15    18    1
   18    18    19    1
   19    18    20    2
@<TRIPOS>SUBSTRUCTURE
       1 MOL1            1 RESIDUE      1      MOL     
@<SCITEGIC>MOL_PROPERTY
VConf Rank
SciTegic.value.IntegerValue
600

@<SCITEGIC>MOL_PROPERTY
Conf_Id
SciTegic.value.IntegerValue
91

@<SCITEGIC>MOL_PROPERTY
Delta U+W
SciTegic.value.DoubleValue
1.604

@<SCITEGIC>MOL_PROPERTY
U+W
SciTegic.value.DoubleValue
-50.141

@<SCITEGIC>MOL_PROPERTY
Grad RMS
SciTegic.value.DoubleValue
0.000000

@<SCITEGIC>MOL_PROPERTY
U
SciTegic.value.DoubleValue
10.644

@<SCITEGIC>MOL_PROPERTY
W
SciTegic.value.DoubleValue
-60.786

@<SCITEGIC>MOL_PROPERTY
W(PB)
SciTegic.value.DoubleValue
-62.965

@<SCITEGIC>MOL_PROPERTY
W(SA)
SciTegic.value.DoubleValue
2.179

@<SCITEGIC>MOL_PROPERTY
Valence
SciTegic.value.DoubleValue
11.230

@<SCITEGIC>MOL_PROPERTY
Coulomb
SciTegic.value.DoubleValue
-1.075

@<SCITEGIC>MOL_PROPERTY
VdW
SciTegic.value.DoubleValue
0.489

@<SCITEGIC>MOL_PROPERTY
VdW6
SciTegic.value.DoubleValue
-7.547

@<SCITEGIC>MOL_PROPERTY
VdW12
SciTegic.value.DoubleValue
8.036

@<SCITEGIC>MOL_PROPERTY
Bond
SciTegic.value.DoubleValue
0.159

@<SCITEGIC>MOL_PROPERTY
Angle
SciTegic.value.DoubleValue
3.006

@<SCITEGIC>MOL_PROPERTY
Pdih
SciTegic.value.DoubleValue
8.064

@<SCITEGIC>MOL_PROPERTY
Idih
SciTegic.value.DoubleValue
0.002

@<SCITEGIC>MOL_PROPERTY
Tether
SciTegic.value.DoubleValue
0.000

@<TRIPOS>MOLECULE
guest-s22_confgen4.mol2 : confsearch ligand conformer 601
          20          19           1
SMALL
USER_CHARGES
 
@<TRIPOS>ATOM
       1    C1      18.312589   16.369963   19.780703 C.2        1 MOL1        -0.2535
       2    H1      17.338751   16.648679   20.180139 H          1 MOL1         0.0845
       3    H2      18.407716   15.379893   19.337997 H          1 MOL1         0.0845
       4    C2      19.352949   17.205823   19.832068 C.2        1 MOL1        -0.1324
       5    H3      20.319581   16.907019   19.427101 H          1 MOL1         0.0833
       6    C3      19.296277   18.594108   20.429641 C.3        1 MOL1        -0.1813
       7    H4      18.252152   18.905772   20.569187 H          1 MOL1         0.0753
       8    H5      19.750028   19.312512   19.733831 H          1 MOL1         0.0753
       9    C4      20.034068   18.648327   21.783744 C.3        1 MOL1        -0.1855
      10    H6      19.579068   17.925035   22.474547 H          1 MOL1         0.0755
      11    H7      21.079450   18.340943   21.642847 H          1 MOL1         0.0755
      12    C5      19.988411   20.060624   22.407000 C.3        1 MOL1        -0.1855
      13    H8      18.943117   20.368569   22.548685 H          1 MOL1         0.0755
      14    H9      20.442195   20.784648   21.716063 H          1 MOL1         0.0755
      15    C6      20.729933   20.114539   23.769217 C.3        1 MOL1        -0.1958
      16    H10     20.277970   19.398791   24.465887 H          1 MOL1         0.0753
      17    H11     21.775709   19.814485   23.634198 H          1 MOL1         0.0753
      18    C7      20.732632   21.480687   24.456930 C.2        1 MOL1         0.6174
      19    O1      21.304978   21.562375   25.525520 O.co2      1 MOL1        -0.6695
      20    O2      20.175501   22.423148   23.927762 O.co2      1 MOL1        -0.6695
@<TRIPOS>BOND
    1     1     2    1
    2     1     3    1
    3     1     4    2
    4     4     5    1
    5     4     6    1
    6     6     7    1
    7     6     8    1
    8     6     9    1
    9     9    10    1
   10     9    11    1
   11     9    12    1
   12    12    13    1
   13    12    14    1
   14    12    15    1
   15    15    16    1
   16    15    17    1
   17    15    18    1
   18    18    19    1
   19    18    20    2
@<TRIPOS>SUBSTRUCTURE
       1 MOL1            1 RESIDUE      1      MOL     
@<SCITEGIC>MOL_PROPERTY
VConf Rank
SciTegic.value.IntegerValue
601

@<SCITEGIC>MOL_PROPERTY
Conf_Id
SciTegic.value.IntegerValue
33

@<SCITEGIC>MOL_PROPERTY
Delta U+W
SciTegic.value.DoubleValue
0.000

@<SCITEGIC>MOL_PROPERTY
U+W
SciTegic.value.DoubleValue
-51.745

@<SCITEGIC>MOL_PROPERTY
Grad RMS
SciTegic.value.DoubleValue
0.000000

@<SCITEGIC>MOL_PROPERTY
U
SciTegic.value.DoubleValue
7.593

@<SCITEGIC>MOL_PROPERTY
W
SciTegic.value.DoubleValue
-59.338

@<SCITEGIC>MOL_PROPERTY
W(PB)
SciTegic.value.DoubleValue
-61.574

@<SCITEGIC>MOL_PROPERTY
W(SA)
SciTegic.value.DoubleValue
2.236

@<SCITEGIC>MOL_PROPERTY
Valence
SciTegic.value.DoubleValue
9.570

@<SCITEGIC>MOL_PROPERTY
Coulomb
SciTegic.value.DoubleValue
-3.091

@<SCITEGIC>MOL_PROPERTY
VdW
SciTegic.value.DoubleValue
1.114

@<SCITEGIC>MOL_PROPERTY
VdW6
SciTegic.value.DoubleValue
-6.064

@<SCITEGIC>MOL_PROPERTY
VdW12
SciTegic.value.DoubleValue
7.178

@<SCITEGIC>MOL_PROPERTY
Bond
SciTegic.value.DoubleValue
0.117

@<SCITEGIC>MOL_PROPERTY
Angle
SciTegic.value.DoubleValue
2.692

@<SCITEGIC>MOL_PROPERTY
Pdih
SciTegic.value.DoubleValue
6.761

@<SCITEGIC>MOL_PROPERTY
Idih
SciTegic.value.DoubleValue
0.000

@<SCITEGIC>MOL_PROPERTY
Tether
SciTegic.value.DoubleValue
0.000

@<TRIPOS>MOLECULE
guest-s22_confgen4.mol2 : confsearch ligand conformer 602
          20          19           1
SMALL
USER_CHARGES
 
@<TRIPOS>ATOM
       1    C1      21.128299   17.616013   24.911270 C.2        1 MOL1        -0.2535
       2    H1      22.123131   17.727457   24.482940 H          1 MOL1         0.0845
       3    H2      21.041021   17.043131   25.832925 H          1 MOL1         0.0845
       4    C2      20.054145   18.157126   24.330697 C.2        1 MOL1        -0.1324
       5    H3      19.066956   18.033065   24.775331 H          1 MOL1         0.0833
       6    C3      20.097610   18.964901   23.052678 C.3        1 MOL1        -0.1813
       7    H4      21.131773   19.253959   22.821271 H          1 MOL1         0.0753
       8    H5      19.532448   19.894595   23.195196 H          1 MOL1         0.0753
       9    C4      19.510445   18.163107   21.869389 C.3        1 MOL1        -0.1855
      10    H6      20.035619   17.200481   21.799502 H          1 MOL1         0.0755
      11    H7      18.456250   17.927327   22.069575 H          1 MOL1         0.0755
      12    C5      19.632008   18.891305   20.509561 C.3        1 MOL1        -0.1855
      13    H8      19.297669   18.210557   19.714393 H          1 MOL1         0.0755
      14    H9      20.687323   19.116007   20.301683 H          1 MOL1         0.0755
      15    C6      18.799094   20.197024   20.430027 C.3        1 MOL1        -0.1958
      16    H10     17.750563   19.992905   20.677617 H          1 MOL1         0.0753
      17    H11     19.166697   20.934762   21.152075 H          1 MOL1         0.0753
      18    C7      18.842095   20.839806   19.048378 C.2        1 MOL1         0.6174
      19    O1      19.730285   21.635010   18.812844 O.co2      1 MOL1        -0.6695
      20    O2      17.997936   20.513509   18.237415 O.co2      1 MOL1        -0.6695
@<TRIPOS>BOND
    1     1     2    1
    2     1     3    1
    3     1     4    2
    4     4     5    1
    5     4     6    1
    6     6     7    1
    7     6     8    1
    8     6     9    1
    9     9    10    1
   10     9    11    1
   11     9    12    1
   12    12    13    1
   13    12    14    1
   14    12    15    1
   15    15    16    1
   16    15    17    1
   17    15    18    1
   18    18    19    1
   19    18    20    2
@<TRIPOS>SUBSTRUCTURE
       1 MOL1            1 RESIDUE      1      MOL     
@<SCITEGIC>MOL_PROPERTY
VConf Rank
SciTegic.value.IntegerValue
602

@<SCITEGIC>MOL_PROPERTY
Conf_Id
SciTegic.value.IntegerValue
37

@<SCITEGIC>MOL_PROPERTY
Delta U+W
SciTegic.value.DoubleValue
-0.384

@<SCITEGIC>MOL_PROPERTY
U+W
SciTegic.value.DoubleValue
-52.130

@<SCITEGIC>MOL_PROPERTY
Grad RMS
SciTegic.value.DoubleValue
0.000000

@<SCITEGIC>MOL_PROPERTY
U
SciTegic.value.DoubleValue
7.491

@<SCITEGIC>MOL_PROPERTY
W
SciTegic.value.DoubleValue
-59.621

@<SCITEGIC>MOL_PROPERTY
W(PB)
SciTegic.value.DoubleValue
-61.853

@<SCITEGIC>MOL_PROPERTY
W(SA)
SciTegic.value.DoubleValue
2.232

@<SCITEGIC>MOL_PROPERTY
Valence
SciTegic.value.DoubleValue
9.604

@<SCITEGIC>MOL_PROPERTY
Coulomb
SciTegic.value.DoubleValue
-2.799

@<SCITEGIC>MOL_PROPERTY
VdW
SciTegic.value.DoubleValue
0.686

@<SCITEGIC>MOL_PROPERTY
VdW6
SciTegic.value.DoubleValue
-6.435

@<SCITEGIC>MOL_PROPERTY
VdW12
SciTegic.value.DoubleValue
7.121

@<SCITEGIC>MOL_PROPERTY
Bond
SciTegic.value.DoubleValue
0.124

@<SCITEGIC>MOL_PROPERTY
Angle
SciTegic.value.DoubleValue
2.493

@<SCITEGIC>MOL_PROPERTY
Pdih
SciTegic.value.DoubleValue
6.986

@<SCITEGIC>MOL_PROPERTY
Idih
SciTegic.value.DoubleValue
0.001

@<SCITEGIC>MOL_PROPERTY
Tether
SciTegic.value.DoubleValue
0.000

@<TRIPOS>MOLECULE
guest-s22_confgen4.mol2 : confsearch ligand conformer 603
          20          19           1
SMALL
USER_CHARGES
 
@<TRIPOS>ATOM
       1    C1      17.336397   19.027353   19.618311 C.2        1 MOL1        -0.2535
       2    H1      16.551813   19.038041   18.863656 H          1 MOL1         0.0845
       3    H2      17.054356   18.694349   20.614859 H          1 MOL1         0.0845
       4    C2      18.581961   19.409570   19.314347 C.2        1 MOL1        -0.1324
       5    H3      18.803635   19.733417   18.297680 H          1 MOL1         0.0833
       6    C3      19.775189   19.448631   20.254398 C.3        1 MOL1        -0.1813
       7    H4      20.176628   20.470711   20.272685 H          1 MOL1         0.0753
       8    H5      20.575206   18.823833   19.835191 H          1 MOL1         0.0753
       9    C4      19.482189   18.992901   21.702998 C.3        1 MOL1        -0.1855
      10    H6      18.696791   19.627749   22.135669 H          1 MOL1         0.0755
      11    H7      19.099668   17.963011   21.693427 H          1 MOL1         0.0755
      12    C5      20.743794   19.062315   22.591007 C.3        1 MOL1        -0.1855
      13    H8      21.131541   20.090455   22.604685 H          1 MOL1         0.0755
      14    H9      21.533589   18.429126   22.163338 H          1 MOL1         0.0755
      15    C6      20.452992   18.606440   24.042109 C.3        1 MOL1        -0.1958
      16    H10     19.675309   19.237555   24.488768 H          1 MOL1         0.0753
      17    H11     20.077274   17.576192   24.047383 H          1 MOL1         0.0753
      18    C7      21.684149   18.665989   24.939156 C.2        1 MOL1         0.6174
      19    O1      21.908986   19.699963   25.536646 O.co2      1 MOL1        -0.6695
      20    O2      22.396594   17.683538   25.001284 O.co2      1 MOL1        -0.6695
@<TRIPOS>BOND
    1     1     2    1
    2     1     3    1
    3     1     4    2
    4     4     5    1
    5     4     6    1
    6     6     7    1
    7     6     8    1
    8     6     9    1
    9     9    10    1
   10     9    11    1
   11     9    12    1
   12    12    13    1
   13    12    14    1
   14    12    15    1
   15    15    16    1
   16    15    17    1
   17    15    18    1
   18    18    19    1
   19    18    20    2
@<TRIPOS>SUBSTRUCTURE
       1 MOL1            1 RESIDUE      1      MOL     
@<SCITEGIC>MOL_PROPERTY
VConf Rank
SciTegic.value.IntegerValue
603

@<SCITEGIC>MOL_PROPERTY
Conf_Id
SciTegic.value.IntegerValue
44

@<SCITEGIC>MOL_PROPERTY
Delta U+W
SciTegic.value.DoubleValue
-1.440

@<SCITEGIC>MOL_PROPERTY
U+W
SciTegic.value.DoubleValue
-53.185

@<SCITEGIC>MOL_PROPERTY
Grad RMS
SciTegic.value.DoubleValue
0.000000

@<SCITEGIC>MOL_PROPERTY
U
SciTegic.value.DoubleValue
6.572

@<SCITEGIC>MOL_PROPERTY
W
SciTegic.value.DoubleValue
-59.757

@<SCITEGIC>MOL_PROPERTY
W(PB)
SciTegic.value.DoubleValue
-62.007

@<SCITEGIC>MOL_PROPERTY
W(SA)
SciTegic.value.DoubleValue
2.249

@<SCITEGIC>MOL_PROPERTY
Valence
SciTegic.value.DoubleValue
7.989

@<SCITEGIC>MOL_PROPERTY
Coulomb
SciTegic.value.DoubleValue
-2.697

@<SCITEGIC>MOL_PROPERTY
VdW
SciTegic.value.DoubleValue
1.281

@<SCITEGIC>MOL_PROPERTY
VdW6
SciTegic.value.DoubleValue
-6.467

@<SCITEGIC>MOL_PROPERTY
VdW12
SciTegic.value.DoubleValue
7.748

@<SCITEGIC>MOL_PROPERTY
Bond
SciTegic.value.DoubleValue
0.136

@<SCITEGIC>MOL_PROPERTY
Angle
SciTegic.value.DoubleValue
2.854

@<SCITEGIC>MOL_PROPERTY
Pdih
SciTegic.value.DoubleValue
4.997

@<SCITEGIC>MOL_PROPERTY
Idih
SciTegic.value.DoubleValue
0.001

@<SCITEGIC>MOL_PROPERTY
Tether
SciTegic.value.DoubleValue
0.000

@<TRIPOS>MOLECULE
guest-s22_confgen4.mol2 : confsearch ligand conformer 604
          20          19           1
SMALL
USER_CHARGES
 
@<TRIPOS>ATOM
       1    C1      19.680317   20.279515   18.691640 C.2        1 MOL1        -0.2535
       2    H1      20.736417   20.442275   18.900782 H          1 MOL1         0.0845
       3    H2      19.262474   20.768431   17.813219 H          1 MOL1         0.0845
       4    C2      18.922872   19.513063   19.480655 C.2        1 MOL1        -0.1324
       5    H3      17.867509   19.363533   19.253748 H          1 MOL1         0.0833
       6    C3      19.432617   18.802182   20.714634 C.3        1 MOL1        -0.1813
       7    H4      20.530012   18.785261   20.708396 H          1 MOL1         0.0753
       8    H5      19.098984   17.756055   20.699167 H          1 MOL1         0.0753
       9    C4      18.923328   19.489696   22.001456 C.3        1 MOL1        -0.1855
      10    H6      19.303070   20.519882   22.042745 H          1 MOL1         0.0755
      11    H7      17.828220   19.564843   21.954800 H          1 MOL1         0.0755
      12    C5      19.310981   18.738944   23.297766 C.3        1 MOL1        -0.1855
      13    H8      18.923479   17.711354   23.262084 H          1 MOL1         0.0755
      14    H9      18.816207   19.227362   24.148736 H          1 MOL1         0.0755
      15    C6      20.838855   18.707526   23.561717 C.3        1 MOL1        -0.1958
      16    H10     21.355792   18.146169   22.775360 H          1 MOL1         0.0753
      17    H11     21.245018   19.726051   23.555807 H          1 MOL1         0.0753
      18    C7      21.192645   18.065183   24.898189 C.2        1 MOL1         0.6174
      19    O1      21.262137   18.780675   25.877974 O.co2      1 MOL1        -0.6695
      20    O2      21.369849   16.863346   24.928161 O.co2      1 MOL1        -0.6695
@<TRIPOS>BOND
    1     1     2    1
    2     1     3    1
    3     1     4    2
    4     4     5    1
    5     4     6    1
    6     6     7    1
    7     6     8    1
    8     6     9    1
    9     9    10    1
   10     9    11    1
   11     9    12    1
   12    12    13    1
   13    12    14    1
   14    12    15    1
   15    15    16    1
   16    15    17    1
   17    15    18    1
   18    18    19    1
   19    18    20    2
@<TRIPOS>SUBSTRUCTURE
       1 MOL1            1 RESIDUE      1      MOL     
@<SCITEGIC>MOL_PROPERTY
VConf Rank
SciTegic.value.IntegerValue
604

@<SCITEGIC>MOL_PROPERTY
Conf_Id
SciTegic.value.IntegerValue
38

@<SCITEGIC>MOL_PROPERTY
Delta U+W
SciTegic.value.DoubleValue
-0.381

@<SCITEGIC>MOL_PROPERTY
U+W
SciTegic.value.DoubleValue
-52.126

@<SCITEGIC>MOL_PROPERTY
Grad RMS
SciTegic.value.DoubleValue
0.000000

@<SCITEGIC>MOL_PROPERTY
U
SciTegic.value.DoubleValue
7.601

@<SCITEGIC>MOL_PROPERTY
W
SciTegic.value.DoubleValue
-59.727

@<SCITEGIC>MOL_PROPERTY
W(PB)
SciTegic.value.DoubleValue
-61.964

@<SCITEGIC>MOL_PROPERTY
W(SA)
SciTegic.value.DoubleValue
2.236

@<SCITEGIC>MOL_PROPERTY
Valence
SciTegic.value.DoubleValue
9.602

@<SCITEGIC>MOL_PROPERTY
Coulomb
SciTegic.value.DoubleValue
-2.686

@<SCITEGIC>MOL_PROPERTY
VdW
SciTegic.value.DoubleValue
0.685

@<SCITEGIC>MOL_PROPERTY
VdW6
SciTegic.value.DoubleValue
-6.453

@<SCITEGIC>MOL_PROPERTY
VdW12
SciTegic.value.DoubleValue
7.139

@<SCITEGIC>MOL_PROPERTY
Bond
SciTegic.value.DoubleValue
0.125

@<SCITEGIC>MOL_PROPERTY
Angle
SciTegic.value.DoubleValue
2.485

@<SCITEGIC>MOL_PROPERTY
Pdih
SciTegic.value.DoubleValue
6.991

@<SCITEGIC>MOL_PROPERTY
Idih
SciTegic.value.DoubleValue
0.001

@<SCITEGIC>MOL_PROPERTY
Tether
SciTegic.value.DoubleValue
0.000

@<TRIPOS>MOLECULE
guest-s22_confgen4.mol2 : confsearch ligand conformer 605
          20          19           1
SMALL
USER_CHARGES
 
@<TRIPOS>ATOM
       1    C1      21.584646   17.534232   24.553312 C.2        1 MOL1        -0.2535
       2    H1      22.490248   18.100790   24.342421 H          1 MOL1         0.0845
       3    H2      21.503262   17.066264   25.532929 H          1 MOL1         0.0845
       4    C2      20.608418   17.417352   23.649441 C.2        1 MOL1        -0.1324
       5    H3      19.709441   16.846455   23.880910 H          1 MOL1         0.0833
       6    C3      20.650929   18.037567   22.270610 C.3        1 MOL1        -0.1813
       7    H4      20.377927   17.283665   21.520126 H          1 MOL1         0.0753
       8    H5      21.671945   18.365562   22.032518 H          1 MOL1         0.0753
       9    C4      19.688003   19.239114   22.170260 C.3        1 MOL1        -0.1855
      10    H6      18.667262   18.907913   22.406534 H          1 MOL1         0.0755
      11    H7      19.961228   19.988852   22.925583 H          1 MOL1         0.0755
      12    C5      19.717000   19.883137   20.765723 C.3        1 MOL1        -0.1855
      13    H8      19.433856   19.138516   20.008712 H          1 MOL1         0.0755
      14    H9      20.743500   20.196750   20.532209 H          1 MOL1         0.0755
      15    C6      18.777726   21.112006   20.653740 C.3        1 MOL1        -0.1958
      16    H10     19.030054   21.853090   21.421844 H          1 MOL1         0.0753
      17    H11     18.925086   21.598664   19.682439 H          1 MOL1         0.0753
      18    C7      17.294852   20.771940   20.773354 C.2        1 MOL1         0.6174
      19    O1      16.723505   21.043644   21.810999 O.co2      1 MOL1        -0.6695
      20    O2      16.747826   20.253719   19.819778 O.co2      1 MOL1        -0.6695
@<TRIPOS>BOND
    1     1     2    1
    2     1     3    1
    3     1     4    2
    4     4     5    1
    5     4     6    1
    6     6     7    1
    7     6     8    1
    8     6     9    1
    9     9    10    1
   10     9    11    1
   11     9    12    1
   12    12    13    1
   13    12    14    1
   14    12    15    1
   15    15    16    1
   16    15    17    1
   17    15    18    1
   18    18    19    1
   19    18    20    2
@<TRIPOS>SUBSTRUCTURE
       1 MOL1            1 RESIDUE      1      MOL     
@<SCITEGIC>MOL_PROPERTY
VConf Rank
SciTegic.value.IntegerValue
605

@<SCITEGIC>MOL_PROPERTY
Conf_Id
SciTegic.value.IntegerValue
58

@<SCITEGIC>MOL_PROPERTY
Delta U+W
SciTegic.value.DoubleValue
0.019

@<SCITEGIC>MOL_PROPERTY
U+W
SciTegic.value.DoubleValue
-51.727

@<SCITEGIC>MOL_PROPERTY
Grad RMS
SciTegic.value.DoubleValue
0.000000

@<SCITEGIC>MOL_PROPERTY
U
SciTegic.value.DoubleValue
8.963

@<SCITEGIC>MOL_PROPERTY
W
SciTegic.value.DoubleValue
-60.690

@<SCITEGIC>MOL_PROPERTY
W(PB)
SciTegic.value.DoubleValue
-62.934

@<SCITEGIC>MOL_PROPERTY
W(SA)
SciTegic.value.DoubleValue
2.244

@<SCITEGIC>MOL_PROPERTY
Valence
SciTegic.value.DoubleValue
9.327

@<SCITEGIC>MOL_PROPERTY
Coulomb
SciTegic.value.DoubleValue
-0.780

@<SCITEGIC>MOL_PROPERTY
VdW
SciTegic.value.DoubleValue
0.417

@<SCITEGIC>MOL_PROPERTY
VdW6
SciTegic.value.DoubleValue
-6.635

@<SCITEGIC>MOL_PROPERTY
VdW12
SciTegic.value.DoubleValue
7.052

@<SCITEGIC>MOL_PROPERTY
Bond
SciTegic.value.DoubleValue
0.105

@<SCITEGIC>MOL_PROPERTY
Angle
SciTegic.value.DoubleValue
2.399

@<SCITEGIC>MOL_PROPERTY
Pdih
SciTegic.value.DoubleValue
6.822

@<SCITEGIC>MOL_PROPERTY
Idih
SciTegic.value.DoubleValue
0.000

@<SCITEGIC>MOL_PROPERTY
Tether
SciTegic.value.DoubleValue
0.000

@<TRIPOS>MOLECULE
guest-s22_confgen4.mol2 : confsearch ligand conformer 606
          20          19           1
SMALL
USER_CHARGES
 
@<TRIPOS>ATOM
       1    C1      23.140801   19.840477   22.951240 C.2        1 MOL1        -0.2535
       2    H1      22.927880   20.851927   23.293601 H          1 MOL1         0.0845
       3    H2      24.169835   19.609233   22.681273 H          1 MOL1         0.0845
       4    C2      22.179823   18.917320   22.861974 C.2        1 MOL1        -0.1324
       5    H3      22.413922   17.910776   22.515960 H          1 MOL1         0.0833
       6    C3      20.731052   19.164359   23.219294 C.3        1 MOL1        -0.1813
       7    H4      20.633919   20.098463   23.789165 H          1 MOL1         0.0753
       8    H5      20.370731   18.357338   23.871223 H          1 MOL1         0.0753
       9    C4      19.850261   19.239333   21.954541 C.3        1 MOL1        -0.1855
      10    H6      20.216642   20.044482   21.302796 H          1 MOL1         0.0755
      11    H7      19.947421   18.303067   21.387621 H          1 MOL1         0.0755
      12    C5      18.365242   19.488518   22.302321 C.3        1 MOL1        -0.1855
      13    H8      18.279985   20.417687   22.881942 H          1 MOL1         0.0755
      14    H9      17.992560   18.679177   22.945571 H          1 MOL1         0.0755
      15    C6      17.467906   19.597480   21.042238 C.3        1 MOL1        -0.1958
      16    H10     16.453915   19.890679   21.338604 H          1 MOL1         0.0753
      17    H11     17.843887   20.383438   20.376079 H          1 MOL1         0.0753
      18    C7      17.353740   18.299271   20.248207 C.2        1 MOL1         0.6174
      19    O1      16.643176   17.418252   20.690923 O.co2      1 MOL1        -0.6695
      20    O2      17.968387   18.206923   19.203864 O.co2      1 MOL1        -0.6695
@<TRIPOS>BOND
    1     1     2    1
    2     1     3    1
    3     1     4    2
    4     4     5    1
    5     4     6    1
    6     6     7    1
    7     6     8    1
    8     6     9    1
    9     9    10    1
   10     9    11    1
   11     9    12    1
   12    12    13    1
   13    12    14    1
   14    12    15    1
   15    15    16    1
   16    15    17    1
   17    15    18    1
   18    18    19    1
   19    18    20    2
@<TRIPOS>SUBSTRUCTURE
       1 MOL1            1 RESIDUE      1      MOL     
@<SCITEGIC>MOL_PROPERTY
VConf Rank
SciTegic.value.IntegerValue
606

@<SCITEGIC>MOL_PROPERTY
Conf_Id
SciTegic.value.IntegerValue
54

@<SCITEGIC>MOL_PROPERTY
Delta U+W
SciTegic.value.DoubleValue
-0.048

@<SCITEGIC>MOL_PROPERTY
U+W
SciTegic.value.DoubleValue
-51.793

@<SCITEGIC>MOL_PROPERTY
Grad RMS
SciTegic.value.DoubleValue
0.000000

@<SCITEGIC>MOL_PROPERTY
U
SciTegic.value.DoubleValue
8.964

@<SCITEGIC>MOL_PROPERTY
W
SciTegic.value.DoubleValue
-60.756

@<SCITEGIC>MOL_PROPERTY
W(PB)
SciTegic.value.DoubleValue
-63.007

@<SCITEGIC>MOL_PROPERTY
W(SA)
SciTegic.value.DoubleValue
2.251

@<SCITEGIC>MOL_PROPERTY
Valence
SciTegic.value.DoubleValue
9.327

@<SCITEGIC>MOL_PROPERTY
Coulomb
SciTegic.value.DoubleValue
-0.780

@<SCITEGIC>MOL_PROPERTY
VdW
SciTegic.value.DoubleValue
0.417

@<SCITEGIC>MOL_PROPERTY
VdW6
SciTegic.value.DoubleValue
-6.635

@<SCITEGIC>MOL_PROPERTY
VdW12
SciTegic.value.DoubleValue
7.052

@<SCITEGIC>MOL_PROPERTY
Bond
SciTegic.value.DoubleValue
0.105

@<SCITEGIC>MOL_PROPERTY
Angle
SciTegic.value.DoubleValue
2.399

@<SCITEGIC>MOL_PROPERTY
Pdih
SciTegic.value.DoubleValue
6.822

@<SCITEGIC>MOL_PROPERTY
Idih
SciTegic.value.DoubleValue
0.000

@<SCITEGIC>MOL_PROPERTY
Tether
SciTegic.value.DoubleValue
0.000

@<TRIPOS>MOLECULE
guest-s22_confgen4.mol2 : confsearch ligand conformer 607
          20          19           1
SMALL
USER_CHARGES
 
@<TRIPOS>ATOM
       1    C1      17.390070   16.951711   23.073930 C.2        1 MOL1        -0.2535
       2    H1      17.413942   15.922699   23.428546 H          1 MOL1         0.0845
       3    H2      16.693648   17.633256   23.559729 H          1 MOL1         0.0845
       4    C2      18.187817   17.359014   22.083286 C.2        1 MOL1        -0.1324
       5    H3      18.875125   16.659476   21.608409 H          1 MOL1         0.0833
       6    C3      18.204591   18.769782   21.534378 C.3        1 MOL1        -0.1813
       7    H4      17.268790   19.280650   21.798614 H          1 MOL1         0.0753
       8    H5      18.241208   18.744242   20.437084 H          1 MOL1         0.0753
       9    C4      19.390737   19.598883   22.076455 C.3        1 MOL1        -0.1855
      10    H6      19.267330   20.641537   21.752995 H          1 MOL1         0.0755
      11    H7      19.359565   19.606474   23.174684 H          1 MOL1         0.0755
      12    C5      20.763415   19.071828   21.594717 C.3        1 MOL1        -0.1855
      13    H8      20.789569   19.050340   20.496404 H          1 MOL1         0.0755
      14    H9      20.898502   18.036631   21.934736 H          1 MOL1         0.0755
      15    C6      21.946853   19.925397   22.120146 C.3        1 MOL1        -0.1958
      16    H10     21.914661   19.984120   23.214836 H          1 MOL1         0.0753
      17    H11     22.893905   19.440362   21.855967 H          1 MOL1         0.0753
      18    C7      21.988157   21.343088   21.556870 C.2        1 MOL1         0.6174
      19    O1      21.641170   22.259078   22.276324 O.co2      1 MOL1        -0.6695
      20    O2      22.377145   21.494397   20.415420 O.co2      1 MOL1        -0.6695
@<TRIPOS>BOND
    1     1     2    1
    2     1     3    1
    3     1     4    2
    4     4     5    1
    5     4     6    1
    6     6     7    1
    7     6     8    1
    8     6     9    1
    9     9    10    1
   10     9    11    1
   11     9    12    1
   12    12    13    1
   13    12    14    1
   14    12    15    1
   15    15    16    1
   16    15    17    1
   17    15    18    1
   18    18    19    1
   19    18    20    2
@<TRIPOS>SUBSTRUCTURE
       1 MOL1            1 RESIDUE      1      MOL     
@<SCITEGIC>MOL_PROPERTY
VConf Rank
SciTegic.value.IntegerValue
607

@<SCITEGIC>MOL_PROPERTY
Conf_Id
SciTegic.value.IntegerValue
27

@<SCITEGIC>MOL_PROPERTY
Delta U+W
SciTegic.value.DoubleValue
0.478

@<SCITEGIC>MOL_PROPERTY
U+W
SciTegic.value.DoubleValue
-51.267

@<SCITEGIC>MOL_PROPERTY
Grad RMS
SciTegic.value.DoubleValue
0.000000

@<SCITEGIC>MOL_PROPERTY
U
SciTegic.value.DoubleValue
9.192

@<SCITEGIC>MOL_PROPERTY
W
SciTegic.value.DoubleValue
-60.459

@<SCITEGIC>MOL_PROPERTY
W(PB)
SciTegic.value.DoubleValue
-62.649

@<SCITEGIC>MOL_PROPERTY
W(SA)
SciTegic.value.DoubleValue
2.190

@<SCITEGIC>MOL_PROPERTY
Valence
SciTegic.value.DoubleValue
9.572

@<SCITEGIC>MOL_PROPERTY
Coulomb
SciTegic.value.DoubleValue
-0.884

@<SCITEGIC>MOL_PROPERTY
VdW
SciTegic.value.DoubleValue
0.504

@<SCITEGIC>MOL_PROPERTY
VdW6
SciTegic.value.DoubleValue
-7.168

@<SCITEGIC>MOL_PROPERTY
VdW12
SciTegic.value.DoubleValue
7.672

@<SCITEGIC>MOL_PROPERTY
Bond
SciTegic.value.DoubleValue
0.127

@<SCITEGIC>MOL_PROPERTY
Angle
SciTegic.value.DoubleValue
2.504

@<SCITEGIC>MOL_PROPERTY
Pdih
SciTegic.value.DoubleValue
6.941

@<SCITEGIC>MOL_PROPERTY
Idih
SciTegic.value.DoubleValue
0.001

@<SCITEGIC>MOL_PROPERTY
Tether
SciTegic.value.DoubleValue
0.000

@<TRIPOS>MOLECULE
guest-s22_confgen4.mol2 : confsearch ligand conformer 608
          20          19           1
SMALL
USER_CHARGES
 
@<TRIPOS>ATOM
       1    C1      18.959596   19.618623   18.758813 C.2        1 MOL1        -0.2535
       2    H1      18.613860   18.708201   18.271879 H          1 MOL1         0.0845
       3    H2      19.451023   20.364322   18.136214 H          1 MOL1         0.0845
       4    C2      18.792226   19.815383   20.069137 C.2        1 MOL1        -0.1324
       5    H3      19.143137   20.735350   20.535844 H          1 MOL1         0.0833
       6    C3      18.113801   18.827904   20.994569 C.3        1 MOL1        -0.1813
       7    H4      17.496879   18.134039   20.407616 H          1 MOL1         0.0753
       8    H5      17.425573   19.357309   21.666977 H          1 MOL1         0.0753
       9    C4      19.127070   18.008314   21.825001 C.3        1 MOL1        -0.1855
      10    H6      18.584462   17.225617   22.372578 H          1 MOL1         0.0755
      11    H7      19.822397   17.493729   21.147483 H          1 MOL1         0.0755
      12    C5      19.919985   18.874237   22.830737 C.3        1 MOL1        -0.1855
      13    H8      19.222411   19.408259   23.490713 H          1 MOL1         0.0755
      14    H9      20.499131   19.637549   22.293497 H          1 MOL1         0.0755
      15    C6      20.884569   18.020148   23.689906 C.3        1 MOL1        -0.1958
      16    H10     20.323768   17.261120   24.248398 H          1 MOL1         0.0753
      17    H11     21.595841   17.489465   23.045642 H          1 MOL1         0.0753
      18    C7      21.680126   18.851648   24.689778 C.2        1 MOL1         0.6174
      19    O1      22.751585   19.303207   24.336606 O.co2      1 MOL1        -0.6695
      20    O2      21.199225   19.040559   25.789662 O.co2      1 MOL1        -0.6695
@<TRIPOS>BOND
    1     1     2    1
    2     1     3    1
    3     1     4    2
    4     4     5    1
    5     4     6    1
    6     6     7    1
    7     6     8    1
    8     6     9    1
    9     9    10    1
   10     9    11    1
   11     9    12    1
   12    12    13    1
   13    12    14    1
   14    12    15    1
   15    15    16    1
   16    15    17    1
   17    15    18    1
   18    18    19    1
   19    18    20    2
@<TRIPOS>SUBSTRUCTURE
       1 MOL1            1 RESIDUE      1      MOL     
@<SCITEGIC>MOL_PROPERTY
VConf Rank
SciTegic.value.IntegerValue
608

@<SCITEGIC>MOL_PROPERTY
Conf_Id
SciTegic.value.IntegerValue
41

@<SCITEGIC>MOL_PROPERTY
Delta U+W
SciTegic.value.DoubleValue
-0.634

@<SCITEGIC>MOL_PROPERTY
U+W
SciTegic.value.DoubleValue
-52.379

@<SCITEGIC>MOL_PROPERTY
Grad RMS
SciTegic.value.DoubleValue
0.000000

@<SCITEGIC>MOL_PROPERTY
U
SciTegic.value.DoubleValue
7.828

@<SCITEGIC>MOL_PROPERTY
W
SciTegic.value.DoubleValue
-60.207

@<SCITEGIC>MOL_PROPERTY
W(PB)
SciTegic.value.DoubleValue
-62.449

@<SCITEGIC>MOL_PROPERTY
W(SA)
SciTegic.value.DoubleValue
2.242

@<SCITEGIC>MOL_PROPERTY
Valence
SciTegic.value.DoubleValue
9.300

@<SCITEGIC>MOL_PROPERTY
Coulomb
SciTegic.value.DoubleValue
-2.080

@<SCITEGIC>MOL_PROPERTY
VdW
SciTegic.value.DoubleValue
0.608

@<SCITEGIC>MOL_PROPERTY
VdW6
SciTegic.value.DoubleValue
-6.341

@<SCITEGIC>MOL_PROPERTY
VdW12
SciTegic.value.DoubleValue
6.949

@<SCITEGIC>MOL_PROPERTY
Bond
SciTegic.value.DoubleValue
0.103

@<SCITEGIC>MOL_PROPERTY
Angle
SciTegic.value.DoubleValue
2.334

@<SCITEGIC>MOL_PROPERTY
Pdih
SciTegic.value.DoubleValue
6.862

@<SCITEGIC>MOL_PROPERTY
Idih
SciTegic.value.DoubleValue
0.001

@<SCITEGIC>MOL_PROPERTY
Tether
SciTegic.value.DoubleValue
0.000

@<TRIPOS>MOLECULE
guest-s22_confgen4.mol2 : confsearch ligand conformer 609
          20          19           1
SMALL
USER_CHARGES
 
@<TRIPOS>ATOM
       1    C1      20.957176   22.150232   21.487401 C.2        1 MOL1        -0.2535
       2    H1      20.782015   23.057594   20.911857 H          1 MOL1         0.0845
       3    H2      21.541438   22.241727   22.401632 H          1 MOL1         0.0845
       4    C2      20.470637   20.973233   21.085321 C.2        1 MOL1        -0.1324
       5    H3      19.887518   20.902882   20.167340 H          1 MOL1         0.0833
       6    C3      20.673277   19.672612   21.830250 C.3        1 MOL1        -0.1813
       7    H4      21.468306   19.783617   22.579904 H          1 MOL1         0.0753
       8    H5      21.006256   18.901637   21.123371 H          1 MOL1         0.0753
       9    C4      19.368600   19.221752   22.524309 C.3        1 MOL1        -0.1855
      10    H6      18.997565   20.044701   23.150606 H          1 MOL1         0.0755
      11    H7      18.594310   19.037582   21.766803 H          1 MOL1         0.0755
      12    C5      19.542791   17.965777   23.413339 C.3        1 MOL1        -0.1855
      13    H8      18.592943   17.761383   23.926562 H          1 MOL1         0.0755
      14    H9      20.277990   18.179262   24.200940 H          1 MOL1         0.0755
      15    C6      19.977912   16.689064   22.643215 C.3        1 MOL1        -0.1958
      16    H10     20.960353   16.832578   22.179298 H          1 MOL1         0.0753
      17    H11     20.087492   15.858574   23.350310 H          1 MOL1         0.0753
      18    C7      18.990508   16.242799   21.568683 C.2        1 MOL1         0.6174
      19    O1      17.938375   15.750825   21.926989 O.co2      1 MOL1        -0.6695
      20    O2      19.305738   16.381746   20.403231 O.co2      1 MOL1        -0.6695
@<TRIPOS>BOND
    1     1     2    1
    2     1     3    1
    3     1     4    2
    4     4     5    1
    5     4     6    1
    6     6     7    1
    7     6     8    1
    8     6     9    1
    9     9    10    1
   10     9    11    1
   11     9    12    1
   12    12    13    1
   13    12    14    1
   14    12    15    1
   15    15    16    1
   16    15    17    1
   17    15    18    1
   18    18    19    1
   19    18    20    2
@<TRIPOS>SUBSTRUCTURE
       1 MOL1            1 RESIDUE      1      MOL     
@<SCITEGIC>MOL_PROPERTY
VConf Rank
SciTegic.value.IntegerValue
609

@<SCITEGIC>MOL_PROPERTY
Conf_Id
SciTegic.value.IntegerValue
84

@<SCITEGIC>MOL_PROPERTY
Delta U+W
SciTegic.value.DoubleValue
0.942

@<SCITEGIC>MOL_PROPERTY
U+W
SciTegic.value.DoubleValue
-50.803

@<SCITEGIC>MOL_PROPERTY
Grad RMS
SciTegic.value.DoubleValue
0.000000

@<SCITEGIC>MOL_PROPERTY
U
SciTegic.value.DoubleValue
10.196

@<SCITEGIC>MOL_PROPERTY
W
SciTegic.value.DoubleValue
-60.999

@<SCITEGIC>MOL_PROPERTY
W(PB)
SciTegic.value.DoubleValue
-63.182

@<SCITEGIC>MOL_PROPERTY
W(SA)
SciTegic.value.DoubleValue
2.182

@<SCITEGIC>MOL_PROPERTY
Valence
SciTegic.value.DoubleValue
9.837

@<SCITEGIC>MOL_PROPERTY
Coulomb
SciTegic.value.DoubleValue
0.032

@<SCITEGIC>MOL_PROPERTY
VdW
SciTegic.value.DoubleValue
0.328

@<SCITEGIC>MOL_PROPERTY
VdW6
SciTegic.value.DoubleValue
-7.642

@<SCITEGIC>MOL_PROPERTY
VdW12
SciTegic.value.DoubleValue
7.969

@<SCITEGIC>MOL_PROPERTY
Bond
SciTegic.value.DoubleValue
0.151

@<SCITEGIC>MOL_PROPERTY
Angle
SciTegic.value.DoubleValue
2.748

@<SCITEGIC>MOL_PROPERTY
Pdih
SciTegic.value.DoubleValue
6.937

@<SCITEGIC>MOL_PROPERTY
Idih
SciTegic.value.DoubleValue
0.001

@<SCITEGIC>MOL_PROPERTY
Tether
SciTegic.value.DoubleValue
0.000

@<TRIPOS>MOLECULE
guest-s22_confgen4.mol2 : confsearch ligand conformer 610
          20          19           1
SMALL
USER_CHARGES
 
@<TRIPOS>ATOM
       1    C1      21.116488   20.912689   24.733515 C.2        1 MOL1        -0.2535
       2    H1      21.450391   21.875369   25.116943 H          1 MOL1         0.0845
       3    H2      20.533235   20.281949   25.402518 H          1 MOL1         0.0845
       4    C2      21.410863   20.525533   23.489683 C.2        1 MOL1        -0.1324
       5    H3      21.995292   21.172351   22.835691 H          1 MOL1         0.0833
       6    C3      20.983164   19.204835   22.889271 C.3        1 MOL1        -0.1813
       7    H4      20.634531   18.523809   23.677590 H          1 MOL1         0.0753
       8    H5      21.846481   18.721335   22.412833 H          1 MOL1         0.0753
       9    C4      19.861012   19.402942   21.848795 C.3        1 MOL1        -0.1855
      10    H6      19.003303   19.892694   22.330622 H          1 MOL1         0.0755
      11    H7      20.210390   20.080744   21.057865 H          1 MOL1         0.0755
      12    C5      19.414649   18.062302   21.222873 C.3        1 MOL1        -0.1855
      13    H8      19.051256   17.386808   22.009871 H          1 MOL1         0.0755
      14    H9      20.281984   17.571612   20.760787 H          1 MOL1         0.0755
      15    C6      18.308861   18.243473   20.150821 C.3        1 MOL1        -0.1958
      16    H10     18.646705   18.937149   19.371380 H          1 MOL1         0.0753
      17    H11     18.114646   17.283201   19.658751 H          1 MOL1         0.0753
      18    C7      16.980673   18.747002   20.708738 C.2        1 MOL1         0.6174
      19    O1      16.675612   19.906672   20.511062 O.co2      1 MOL1        -0.6695
      20    O2      16.280038   17.960940   21.315634 O.co2      1 MOL1        -0.6695
@<TRIPOS>BOND
    1     1     2    1
    2     1     3    1
    3     1     4    2
    4     4     5    1
    5     4     6    1
    6     6     7    1
    7     6     8    1
    8     6     9    1
    9     9    10    1
   10     9    11    1
   11     9    12    1
   12    12    13    1
   13    12    14    1
   14    12    15    1
   15    15    16    1
   16    15    17    1
   17    15    18    1
   18    18    19    1
   19    18    20    2
@<TRIPOS>SUBSTRUCTURE
       1 MOL1            1 RESIDUE      1      MOL     
@<SCITEGIC>MOL_PROPERTY
VConf Rank
SciTegic.value.IntegerValue
610

@<SCITEGIC>MOL_PROPERTY
Conf_Id
SciTegic.value.IntegerValue
81

@<SCITEGIC>MOL_PROPERTY
Delta U+W
SciTegic.value.DoubleValue
-0.051

@<SCITEGIC>MOL_PROPERTY
U+W
SciTegic.value.DoubleValue
-51.796

@<SCITEGIC>MOL_PROPERTY
Grad RMS
SciTegic.value.DoubleValue
0.000000

@<SCITEGIC>MOL_PROPERTY
U
SciTegic.value.DoubleValue
9.412

@<SCITEGIC>MOL_PROPERTY
W
SciTegic.value.DoubleValue
-61.209

@<SCITEGIC>MOL_PROPERTY
W(PB)
SciTegic.value.DoubleValue
-63.452

@<SCITEGIC>MOL_PROPERTY
W(SA)
SciTegic.value.DoubleValue
2.243

@<SCITEGIC>MOL_PROPERTY
Valence
SciTegic.value.DoubleValue
9.329

@<SCITEGIC>MOL_PROPERTY
Coulomb
SciTegic.value.DoubleValue
-0.323

@<SCITEGIC>MOL_PROPERTY
VdW
SciTegic.value.DoubleValue
0.406

@<SCITEGIC>MOL_PROPERTY
VdW6
SciTegic.value.DoubleValue
-6.640

@<SCITEGIC>MOL_PROPERTY
VdW12
SciTegic.value.DoubleValue
7.046

@<SCITEGIC>MOL_PROPERTY
Bond
SciTegic.value.DoubleValue
0.105

@<SCITEGIC>MOL_PROPERTY
Angle
SciTegic.value.DoubleValue
2.401

@<SCITEGIC>MOL_PROPERTY
Pdih
SciTegic.value.DoubleValue
6.823

@<SCITEGIC>MOL_PROPERTY
Idih
SciTegic.value.DoubleValue
0.000

@<SCITEGIC>MOL_PROPERTY
Tether
SciTegic.value.DoubleValue
0.000

@<TRIPOS>MOLECULE
guest-s22_confgen4.mol2 : confsearch ligand conformer 611
          20          19           1
SMALL
USER_CHARGES
 
@<TRIPOS>ATOM
       1    C1      18.031046   19.909474   19.348913 C.2        1 MOL1        -0.2535
       2    H1      17.726944   20.949240   19.457855 H          1 MOL1         0.0845
       3    H2      17.987016   19.476296   18.351134 H          1 MOL1         0.0845
       4    C2      18.445387   19.190831   20.395599 C.2        1 MOL1        -0.1324
       5    H3      18.743146   18.150829   20.265369 H          1 MOL1         0.0833
       6    C3      18.527796   19.722769   21.810441 C.3        1 MOL1        -0.1813
       7    H4      18.110241   18.990163   22.513198 H          1 MOL1         0.0753
       8    H5      17.900978   20.619547   21.905852 H          1 MOL1         0.0753
       9    C4      19.974190   20.088906   22.221043 C.3        1 MOL1        -0.1855
      10    H6      20.339237   20.884938   21.557788 H          1 MOL1         0.0755
      11    H7      19.959227   20.518472   23.232093 H          1 MOL1         0.0755
      12    C5      20.977731   18.907589   22.182484 C.3        1 MOL1        -0.1855
      13    H8      21.972000   19.281356   22.463390 H          1 MOL1         0.0755
      14    H9      21.071789   18.540227   21.152001 H          1 MOL1         0.0755
      15    C6      20.610187   17.721295   23.115119 C.3        1 MOL1        -0.1958
      16    H10     19.655660   17.274798   22.814188 H          1 MOL1         0.0753
      17    H11     21.366038   16.933652   23.015549 H          1 MOL1         0.0753
      18    C7      20.532212   18.092128   24.593276 C.2        1 MOL1         0.6174
      19    O1      19.438029   18.130803   25.120869 O.co2      1 MOL1        -0.6695
      20    O2      21.571375   18.315728   25.182855 O.co2      1 MOL1        -0.6695
@<TRIPOS>BOND
    1     1     2    1
    2     1     3    1
    3     1     4    2
    4     4     5    1
    5     4     6    1
    6     6     7    1
    7     6     8    1
    8     6     9    1
    9     9    10    1
   10     9    11    1
   11     9    12    1
   12    12    13    1
   13    12    14    1
   14    12    15    1
   15    15    16    1
   16    15    17    1
   17    15    18    1
   18    18    19    1
   19    18    20    2
@<TRIPOS>SUBSTRUCTURE
       1 MOL1            1 RESIDUE      1      MOL     
@<SCITEGIC>MOL_PROPERTY
VConf Rank
SciTegic.value.IntegerValue
611

@<SCITEGIC>MOL_PROPERTY
Conf_Id
SciTegic.value.IntegerValue
86

@<SCITEGIC>MOL_PROPERTY
Delta U+W
SciTegic.value.DoubleValue
1.248

@<SCITEGIC>MOL_PROPERTY
U+W
SciTegic.value.DoubleValue
-50.498

@<SCITEGIC>MOL_PROPERTY
Grad RMS
SciTegic.value.DoubleValue
0.000000

@<SCITEGIC>MOL_PROPERTY
U
SciTegic.value.DoubleValue
10.404

@<SCITEGIC>MOL_PROPERTY
W
SciTegic.value.DoubleValue
-60.901

@<SCITEGIC>MOL_PROPERTY
W(PB)
SciTegic.value.DoubleValue
-63.061

@<SCITEGIC>MOL_PROPERTY
W(SA)
SciTegic.value.DoubleValue
2.159

@<SCITEGIC>MOL_PROPERTY
Valence
SciTegic.value.DoubleValue
10.021

@<SCITEGIC>MOL_PROPERTY
Coulomb
SciTegic.value.DoubleValue
0.094

@<SCITEGIC>MOL_PROPERTY
VdW
SciTegic.value.DoubleValue
0.289

@<SCITEGIC>MOL_PROPERTY
VdW6
SciTegic.value.DoubleValue
-8.409

@<SCITEGIC>MOL_PROPERTY
VdW12
SciTegic.value.DoubleValue
8.698

@<SCITEGIC>MOL_PROPERTY
Bond
SciTegic.value.DoubleValue
0.179

@<SCITEGIC>MOL_PROPERTY
Angle
SciTegic.value.DoubleValue
2.939

@<SCITEGIC>MOL_PROPERTY
Pdih
SciTegic.value.DoubleValue
6.902

@<SCITEGIC>MOL_PROPERTY
Idih
SciTegic.value.DoubleValue
0.001

@<SCITEGIC>MOL_PROPERTY
Tether
SciTegic.value.DoubleValue
0.000

@<TRIPOS>MOLECULE
guest-s22_confgen4.mol2 : confsearch ligand conformer 612
          20          19           1
SMALL
USER_CHARGES
 
@<TRIPOS>ATOM
       1    C1      19.482617   21.423095   24.036422 C.2        1 MOL1        -0.2535
       2    H1      18.792609   22.242938   24.228386 H          1 MOL1         0.0845
       3    H2      19.653756   20.712578   24.843453 H          1 MOL1         0.0845
       4    C2      20.090889   21.295260   22.854183 C.2        1 MOL1        -0.1324
       5    H3      19.904086   22.016188   22.058723 H          1 MOL1         0.0833
       6    C3      21.060711   20.183713   22.513651 C.3        1 MOL1        -0.1813
       7    H4      21.345739   19.628399   23.417557 H          1 MOL1         0.0753
       8    H5      21.985022   20.623662   22.116265 H          1 MOL1         0.0753
       9    C4      20.485411   19.203626   21.466503 C.3        1 MOL1        -0.1855
      10    H6      20.196452   19.758770   20.563596 H          1 MOL1         0.0755
      11    H7      21.278115   18.505594   21.164207 H          1 MOL1         0.0755
      12    C5      19.273412   18.403701   22.000149 C.3        1 MOL1        -0.1855
      13    H8      18.477506   19.100027   22.296348 H          1 MOL1         0.0755
      14    H9      19.561786   17.851627   22.905359 H          1 MOL1         0.0755
      15    C6      18.704753   17.412240   20.951978 C.3        1 MOL1        -0.1958
      16    H10     17.780114   16.964831   21.335132 H          1 MOL1         0.0753
      17    H11     18.441524   17.945256   20.030358 H          1 MOL1         0.0753
      18    C7      19.652923   16.269420   20.600321 C.2        1 MOL1         0.6174
      19    O1      19.773549   15.359789   21.397283 O.co2      1 MOL1        -0.6695
      20    O2      20.236733   16.312444   19.535238 O.co2      1 MOL1        -0.6695
@<TRIPOS>BOND
    1     1     2    1
    2     1     3    1
    3     1     4    2
    4     4     5    1
    5     4     6    1
    6     6     7    1
    7     6     8    1
    8     6     9    1
    9     9    10    1
   10     9    11    1
   11     9    12    1
   12    12    13    1
   13    12    14    1
   14    12    15    1
   15    15    16    1
   16    15    17    1
   17    15    18    1
   18    18    19    1
   19    18    20    2
@<TRIPOS>SUBSTRUCTURE
       1 MOL1            1 RESIDUE      1      MOL     
@<SCITEGIC>MOL_PROPERTY
VConf Rank
SciTegic.value.IntegerValue
612

@<SCITEGIC>MOL_PROPERTY
Conf_Id
SciTegic.value.IntegerValue
28

@<SCITEGIC>MOL_PROPERTY
Delta U+W
SciTegic.value.DoubleValue
0.446

@<SCITEGIC>MOL_PROPERTY
U+W
SciTegic.value.DoubleValue
-51.299

@<SCITEGIC>MOL_PROPERTY
Grad RMS
SciTegic.value.DoubleValue
0.000000

@<SCITEGIC>MOL_PROPERTY
U
SciTegic.value.DoubleValue
9.295

@<SCITEGIC>MOL_PROPERTY
W
SciTegic.value.DoubleValue
-60.594

@<SCITEGIC>MOL_PROPERTY
W(PB)
SciTegic.value.DoubleValue
-62.806

@<SCITEGIC>MOL_PROPERTY
W(SA)
SciTegic.value.DoubleValue
2.212

@<SCITEGIC>MOL_PROPERTY
Valence
SciTegic.value.DoubleValue
9.495

@<SCITEGIC>MOL_PROPERTY
Coulomb
SciTegic.value.DoubleValue
-0.610

@<SCITEGIC>MOL_PROPERTY
VdW
SciTegic.value.DoubleValue
0.409

@<SCITEGIC>MOL_PROPERTY
VdW6
SciTegic.value.DoubleValue
-7.332

@<SCITEGIC>MOL_PROPERTY
VdW12
SciTegic.value.DoubleValue
7.741

@<SCITEGIC>MOL_PROPERTY
Bond
SciTegic.value.DoubleValue
0.126

@<SCITEGIC>MOL_PROPERTY
Angle
SciTegic.value.DoubleValue
2.497

@<SCITEGIC>MOL_PROPERTY
Pdih
SciTegic.value.DoubleValue
6.872

@<SCITEGIC>MOL_PROPERTY
Idih
SciTegic.value.DoubleValue
0.000

@<SCITEGIC>MOL_PROPERTY
Tether
SciTegic.value.DoubleValue
0.000

@<TRIPOS>MOLECULE
guest-s22_confgen4.mol2 : confsearch ligand conformer 613
          20          19           1
SMALL
USER_CHARGES
 
@<TRIPOS>ATOM
       1    C1      19.967678   16.352299   23.331368 C.2        1 MOL1        -0.2535
       2    H1      20.972980   16.767767   23.347188 H          1 MOL1         0.0845
       3    H2      19.822632   15.397735   23.834269 H          1 MOL1         0.0845
       4    C2      18.944309   16.971010   22.731461 C.2        1 MOL1        -0.1324
       5    H3      17.958996   16.505924   22.751275 H          1 MOL1         0.0833
       6    C3      18.991327   18.298072   21.992440 C.3        1 MOL1        -0.1813
       7    H4      18.328703   19.005030   22.507998 H          1 MOL1         0.0753
       8    H5      18.560355   18.158345   20.992194 H          1 MOL1         0.0753
       9    C4      20.403958   18.916791   21.850097 C.3        1 MOL1        -0.1855
      10    H6      20.809648   19.143502   22.845683 H          1 MOL1         0.0755
      11    H7      21.075772   18.174385   21.398219 H          1 MOL1         0.0755
      12    C5      20.433590   20.193134   20.973096 C.3        1 MOL1        -0.1855
      13    H8      20.073854   19.947786   19.964740 H          1 MOL1         0.0755
      14    H9      21.477104   20.516969   20.856399 H          1 MOL1         0.0755
      15    C6      19.604303   21.380426   21.534593 C.3        1 MOL1        -0.1958
      16    H10     19.675467   22.230024   20.845553 H          1 MOL1         0.0753
      17    H11     18.542021   21.117730   21.593285 H          1 MOL1         0.0753
      18    C7      20.063796   21.869484   22.905211 C.2        1 MOL1         0.6174
      19    O1      21.124873   22.458052   22.977007 O.co2      1 MOL1        -0.6695
      20    O2      19.340337   21.668281   23.860711 O.co2      1 MOL1        -0.6695
@<TRIPOS>BOND
    1     1     2    1
    2     1     3    1
    3     1     4    2
    4     4     5    1
    5     4     6    1
    6     6     7    1
    7     6     8    1
    8     6     9    1
    9     9    10    1
   10     9    11    1
   11     9    12    1
   12    12    13    1
   13    12    14    1
   14    12    15    1
   15    15    16    1
   16    15    17    1
   17    15    18    1
   18    18    19    1
   19    18    20    2
@<TRIPOS>SUBSTRUCTURE
       1 MOL1            1 RESIDUE      1      MOL     
@<SCITEGIC>MOL_PROPERTY
VConf Rank
SciTegic.value.IntegerValue
613

@<SCITEGIC>MOL_PROPERTY
Conf_Id
SciTegic.value.IntegerValue
53

@<SCITEGIC>MOL_PROPERTY
Delta U+W
SciTegic.value.DoubleValue
0.549

@<SCITEGIC>MOL_PROPERTY
U+W
SciTegic.value.DoubleValue
-51.197

@<SCITEGIC>MOL_PROPERTY
Grad RMS
SciTegic.value.DoubleValue
0.000000

@<SCITEGIC>MOL_PROPERTY
U
SciTegic.value.DoubleValue
10.870

@<SCITEGIC>MOL_PROPERTY
W
SciTegic.value.DoubleValue
-62.067

@<SCITEGIC>MOL_PROPERTY
W(PB)
SciTegic.value.DoubleValue
-64.228

@<SCITEGIC>MOL_PROPERTY
W(SA)
SciTegic.value.DoubleValue
2.161

@<SCITEGIC>MOL_PROPERTY
Valence
SciTegic.value.DoubleValue
8.803

@<SCITEGIC>MOL_PROPERTY
Coulomb
SciTegic.value.DoubleValue
1.020

@<SCITEGIC>MOL_PROPERTY
VdW
SciTegic.value.DoubleValue
1.048

@<SCITEGIC>MOL_PROPERTY
VdW6
SciTegic.value.DoubleValue
-8.312

@<SCITEGIC>MOL_PROPERTY
VdW12
SciTegic.value.DoubleValue
9.360

@<SCITEGIC>MOL_PROPERTY
Bond
SciTegic.value.DoubleValue
0.212

@<SCITEGIC>MOL_PROPERTY
Angle
SciTegic.value.DoubleValue
3.379

@<SCITEGIC>MOL_PROPERTY
Pdih
SciTegic.value.DoubleValue
5.211

@<SCITEGIC>MOL_PROPERTY
Idih
SciTegic.value.DoubleValue
0.001

@<SCITEGIC>MOL_PROPERTY
Tether
SciTegic.value.DoubleValue
0.000

@<TRIPOS>MOLECULE
guest-s22_confgen4.mol2 : confsearch ligand conformer 614
          20          19           1
SMALL
USER_CHARGES
 
@<TRIPOS>ATOM
       1    C1      17.885626   20.358715   23.606824 C.2        1 MOL1        -0.2535
       2    H1      17.929370   19.440316   24.188139 H          1 MOL1         0.0845
       3    H2      16.961761   20.932146   23.657564 H          1 MOL1         0.0845
       4    C2      18.914383   20.780679   22.863680 C.2        1 MOL1        -0.1324
       5    H3      18.819434   21.709822   22.302448 H          1 MOL1         0.0833
       6    C3      20.253425   20.081335   22.697025 C.3        1 MOL1        -0.1813
       7    H4      20.982813   20.553322   23.368309 H          1 MOL1         0.0753
       8    H5      20.635660   20.277838   21.687142 H          1 MOL1         0.0753
       9    C4      20.252492   18.549612   22.941146 C.3        1 MOL1        -0.1855
      10    H6      21.284945   18.182633   22.862367 H          1 MOL1         0.0755
      11    H7      19.945405   18.344973   23.975140 H          1 MOL1         0.0755
      12    C5      19.356283   17.737121   21.969795 C.3        1 MOL1        -0.1855
      13    H8      18.309098   18.042758   22.090395 H          1 MOL1         0.0755
      14    H9      19.398842   16.677198   22.255752 H          1 MOL1         0.0755
      15    C6      19.748801   17.863971   20.472411 C.3        1 MOL1        -0.1958
      16    H10     19.061508   17.263319   19.865443 H          1 MOL1         0.0753
      17    H11     19.638332   18.899519   20.131181 H          1 MOL1         0.0753
      18    C7      21.165039   17.392089   20.156144 C.2        1 MOL1         0.6174
      19    O1      22.003313   18.228071   19.881208 O.co2      1 MOL1        -0.6695
      20    O2      21.388036   16.197350   20.175598 O.co2      1 MOL1        -0.6695
@<TRIPOS>BOND
    1     1     2    1
    2     1     3    1
    3     1     4    2
    4     4     5    1
    5     4     6    1
    6     6     7    1
    7     6     8    1
    8     6     9    1
    9     9    10    1
   10     9    11    1
   11     9    12    1
   12    12    13    1
   13    12    14    1
   14    12    15    1
   15    15    16    1
   16    15    17    1
   17    15    18    1
   18    18    19    1
   19    18    20    2
@<TRIPOS>SUBSTRUCTURE
       1 MOL1            1 RESIDUE      1      MOL     
@<SCITEGIC>MOL_PROPERTY
VConf Rank
SciTegic.value.IntegerValue
614

@<SCITEGIC>MOL_PROPERTY
Conf_Id
SciTegic.value.IntegerValue
66

@<SCITEGIC>MOL_PROPERTY
Delta U+W
SciTegic.value.DoubleValue
1.737

@<SCITEGIC>MOL_PROPERTY
U+W
SciTegic.value.DoubleValue
-50.008

@<SCITEGIC>MOL_PROPERTY
Grad RMS
SciTegic.value.DoubleValue
0.000000

@<SCITEGIC>MOL_PROPERTY
U
SciTegic.value.DoubleValue
11.091

@<SCITEGIC>MOL_PROPERTY
W
SciTegic.value.DoubleValue
-61.099

@<SCITEGIC>MOL_PROPERTY
W(PB)
SciTegic.value.DoubleValue
-63.213

@<SCITEGIC>MOL_PROPERTY
W(SA)
SciTegic.value.DoubleValue
2.114

@<SCITEGIC>MOL_PROPERTY
Valence
SciTegic.value.DoubleValue
9.664

@<SCITEGIC>MOL_PROPERTY
Coulomb
SciTegic.value.DoubleValue
0.658

@<SCITEGIC>MOL_PROPERTY
VdW
SciTegic.value.DoubleValue
0.769

@<SCITEGIC>MOL_PROPERTY
VdW6
SciTegic.value.DoubleValue
-9.171

@<SCITEGIC>MOL_PROPERTY
VdW12
SciTegic.value.DoubleValue
9.940

@<SCITEGIC>MOL_PROPERTY
Bond
SciTegic.value.DoubleValue
0.244

@<SCITEGIC>MOL_PROPERTY
Angle
SciTegic.value.DoubleValue
3.658

@<SCITEGIC>MOL_PROPERTY
Pdih
SciTegic.value.DoubleValue
5.762

@<SCITEGIC>MOL_PROPERTY
Idih
SciTegic.value.DoubleValue
0.001

@<SCITEGIC>MOL_PROPERTY
Tether
SciTegic.value.DoubleValue
0.000

@<TRIPOS>MOLECULE
guest-s22_confgen4.mol2 : confsearch ligand conformer 615
          20          19           1
SMALL
USER_CHARGES
 
@<TRIPOS>ATOM
       1    C1      17.492633   20.575731   22.828477 C.2        1 MOL1        -0.2535
       2    H1      17.075259   19.573794   22.899921 H          1 MOL1         0.0845
       3    H2      17.178927   21.296011   23.581949 H          1 MOL1         0.0845
       4    C2      18.348762   20.924451   21.861876 C.2        1 MOL1        -0.1324
       5    H3      18.734330   21.943284   21.836245 H          1 MOL1         0.0833
       6    C3      18.875882   20.027616   20.753530 C.3        1 MOL1        -0.1813
       7    H4      19.910180   20.314436   20.526348 H          1 MOL1         0.0753
       8    H5      18.316782   20.242886   19.833394 H          1 MOL1         0.0753
       9    C4      18.826128   18.502672   21.033507 C.3        1 MOL1        -0.1855
      10    H6      17.785513   18.197232   21.204739 H          1 MOL1         0.0755
      11    H7      19.146282   17.968364   20.128717 H          1 MOL1         0.0755
      12    C5      19.702121   18.033422   22.223104 C.3        1 MOL1        -0.1855
      13    H8      19.526716   16.960923   22.384847 H          1 MOL1         0.0755
      14    H9      19.390106   18.538209   23.146919 H          1 MOL1         0.0755
      15    C6      21.220218   18.260583   22.002436 C.3        1 MOL1        -0.1958
      16    H10     21.538396   17.805210   21.057158 H          1 MOL1         0.0753
      17    H11     21.443908   19.331576   21.940963 H          1 MOL1         0.0753
      18    C7      22.073154   17.671613   23.120408 C.2        1 MOL1         0.6174
      19    O1      22.355274   18.383112   24.064299 O.co2      1 MOL1        -0.6695
      20    O2      22.421526   16.511254   23.024818 O.co2      1 MOL1        -0.6695
@<TRIPOS>BOND
    1     1     2    1
    2     1     3    1
    3     1     4    2
    4     4     5    1
    5     4     6    1
    6     6     7    1
    7     6     8    1
    8     6     9    1
    9     9    10    1
   10     9    11    1
   11     9    12    1
   12    12    13    1
   13    12    14    1
   14    12    15    1
   15    15    16    1
   16    15    17    1
   17    15    18    1
   18    18    19    1
   19    18    20    2
@<TRIPOS>SUBSTRUCTURE
       1 MOL1            1 RESIDUE      1      MOL     
@<SCITEGIC>MOL_PROPERTY
VConf Rank
SciTegic.value.IntegerValue
615

@<SCITEGIC>MOL_PROPERTY
Conf_Id
SciTegic.value.IntegerValue
64

@<SCITEGIC>MOL_PROPERTY
Delta U+W
SciTegic.value.DoubleValue
0.366

@<SCITEGIC>MOL_PROPERTY
U+W
SciTegic.value.DoubleValue
-51.379

@<SCITEGIC>MOL_PROPERTY
Grad RMS
SciTegic.value.DoubleValue
0.000000

@<SCITEGIC>MOL_PROPERTY
U
SciTegic.value.DoubleValue
10.000

@<SCITEGIC>MOL_PROPERTY
W
SciTegic.value.DoubleValue
-61.379

@<SCITEGIC>MOL_PROPERTY
W(PB)
SciTegic.value.DoubleValue
-63.541

@<SCITEGIC>MOL_PROPERTY
W(SA)
SciTegic.value.DoubleValue
2.162

@<SCITEGIC>MOL_PROPERTY
Valence
SciTegic.value.DoubleValue
9.398

@<SCITEGIC>MOL_PROPERTY
Coulomb
SciTegic.value.DoubleValue
-0.504

@<SCITEGIC>MOL_PROPERTY
VdW
SciTegic.value.DoubleValue
1.105

@<SCITEGIC>MOL_PROPERTY
VdW6
SciTegic.value.DoubleValue
-7.975

@<SCITEGIC>MOL_PROPERTY
VdW12
SciTegic.value.DoubleValue
9.080

@<SCITEGIC>MOL_PROPERTY
Bond
SciTegic.value.DoubleValue
0.216

@<SCITEGIC>MOL_PROPERTY
Angle
SciTegic.value.DoubleValue
3.417

@<SCITEGIC>MOL_PROPERTY
Pdih
SciTegic.value.DoubleValue
5.765

@<SCITEGIC>MOL_PROPERTY
Idih
SciTegic.value.DoubleValue
0.001

@<SCITEGIC>MOL_PROPERTY
Tether
SciTegic.value.DoubleValue
0.000

@<TRIPOS>MOLECULE
guest-s22_confgen4.mol2 : confsearch ligand conformer 616
          20          19           1
SMALL
USER_CHARGES
 
@<TRIPOS>ATOM
       1    C1      21.442444   18.190775   19.597756 C.2        1 MOL1        -0.2535
       2    H1      21.959377   19.148883   19.612830 H          1 MOL1         0.0845
       3    H2      21.156506   17.790815   18.626481 H          1 MOL1         0.0845
       4    C2      21.164451   17.530627   20.725114 C.2        1 MOL1        -0.1324
       5    H3      20.643953   16.574012   20.688221 H          1 MOL1         0.0833
       6    C3      21.529009   18.022857   22.109595 C.3        1 MOL1        -0.1813
       7    H4      22.219337   18.875079   22.047631 H          1 MOL1         0.0753
       8    H5      22.066174   17.227503   22.643175 H          1 MOL1         0.0753
       9    C4      20.285783   18.424943   22.934615 C.3        1 MOL1        -0.1855
      10    H6      19.595101   17.572723   22.995950 H          1 MOL1         0.0755
      11    H7      20.600108   18.649783   23.962978 H          1 MOL1         0.0755
      12    C5      19.552101   19.652505   22.347772 C.3        1 MOL1        -0.1855
      13    H8      19.208775   19.430780   21.327873 H          1 MOL1         0.0755
      14    H9      20.249052   20.498506   22.271420 H          1 MOL1         0.0755
      15    C6      18.337052   20.066209   23.214101 C.3        1 MOL1        -0.1958
      16    H10     17.625591   19.235088   23.289266 H          1 MOL1         0.0753
      17    H11     18.662728   20.307857   24.232938 H          1 MOL1         0.0753
      18    C7      17.596056   21.275601   22.655181 C.2        1 MOL1         0.6174
      19    O1      17.966934   22.382187   22.993804 O.co2      1 MOL1        -0.6695
      20    O2      16.676595   21.079880   21.885132 O.co2      1 MOL1        -0.6695
@<TRIPOS>BOND
    1     1     2    1
    2     1     3    1
    3     1     4    2
    4     4     5    1
    5     4     6    1
    6     6     7    1
    7     6     8    1
    8     6     9    1
    9     9    10    1
   10     9    11    1
   11     9    12    1
   12    12    13    1
   13    12    14    1
   14    12    15    1
   15    15    16    1
   16    15    17    1
   17    15    18    1
   18    18    19    1
   19    18    20    2
@<TRIPOS>SUBSTRUCTURE
       1 MOL1            1 RESIDUE      1      MOL     
@<SCITEGIC>MOL_PROPERTY
VConf Rank
SciTegic.value.IntegerValue
616

@<SCITEGIC>MOL_PROPERTY
Conf_Id
SciTegic.value.IntegerValue
42

@<SCITEGIC>MOL_PROPERTY
Delta U+W
SciTegic.value.DoubleValue
-0.601

@<SCITEGIC>MOL_PROPERTY
U+W
SciTegic.value.DoubleValue
-52.347

@<SCITEGIC>MOL_PROPERTY
Grad RMS
SciTegic.value.DoubleValue
0.000000

@<SCITEGIC>MOL_PROPERTY
U
SciTegic.value.DoubleValue
8.428

@<SCITEGIC>MOL_PROPERTY
W
SciTegic.value.DoubleValue
-60.774

@<SCITEGIC>MOL_PROPERTY
W(PB)
SciTegic.value.DoubleValue
-62.982

@<SCITEGIC>MOL_PROPERTY
W(SA)
SciTegic.value.DoubleValue
2.208

@<SCITEGIC>MOL_PROPERTY
Valence
SciTegic.value.DoubleValue
9.231

@<SCITEGIC>MOL_PROPERTY
Coulomb
SciTegic.value.DoubleValue
-1.304

@<SCITEGIC>MOL_PROPERTY
VdW
SciTegic.value.DoubleValue
0.501

@<SCITEGIC>MOL_PROPERTY
VdW6
SciTegic.value.DoubleValue
-6.515

@<SCITEGIC>MOL_PROPERTY
VdW12
SciTegic.value.DoubleValue
7.016

@<SCITEGIC>MOL_PROPERTY
Bond
SciTegic.value.DoubleValue
0.103

@<SCITEGIC>MOL_PROPERTY
Angle
SciTegic.value.DoubleValue
2.328

@<SCITEGIC>MOL_PROPERTY
Pdih
SciTegic.value.DoubleValue
6.799

@<SCITEGIC>MOL_PROPERTY
Idih
SciTegic.value.DoubleValue
0.000

@<SCITEGIC>MOL_PROPERTY
Tether
SciTegic.value.DoubleValue
0.000

@<TRIPOS>MOLECULE
guest-s22_confgen4.mol2 : confsearch ligand conformer 617
          20          19           1
SMALL
USER_CHARGES
 
@<TRIPOS>ATOM
       1    C1      17.829583   16.984439   22.859144 C.2        1 MOL1        -0.2535
       2    H1      17.854109   16.517109   21.876089 H          1 MOL1         0.0845
       3    H2      16.884550   16.966391   23.399221 H          1 MOL1         0.0845
       4    C2      18.913552   17.562048   23.383933 C.2        1 MOL1        -0.1324
       5    H3      18.867029   18.026872   24.368402 H          1 MOL1         0.0833
       6    C3      20.259340   17.627806   22.693691 C.3        1 MOL1        -0.1813
       7    H4      20.273023   16.975581   21.809935 H          1 MOL1         0.0753
       8    H5      21.030808   17.243580   23.374146 H          1 MOL1         0.0753
       9    C4      20.634278   19.068211   22.278223 C.3        1 MOL1        -0.1855
      10    H6      20.626582   19.717380   23.164710 H          1 MOL1         0.0755
      11    H7      21.664566   19.071465   21.897123 H          1 MOL1         0.0755
      12    C5      19.689846   19.641995   21.195592 C.3        1 MOL1        -0.1855
      13    H8      18.660904   19.683641   21.578863 H          1 MOL1         0.0755
      14    H9      19.676806   18.964676   20.331127 H          1 MOL1         0.0755
      15    C6      20.115504   21.056027   20.722146 C.3        1 MOL1        -0.1958
      16    H10     21.149714   21.038683   20.357680 H          1 MOL1         0.0753
      17    H11     19.486782   21.364455   19.878599 H          1 MOL1         0.0753
      18    C7      19.996638   22.131566   21.798203 C.2        1 MOL1         0.6174
      19    O1      21.012109   22.510927   22.347811 O.co2      1 MOL1        -0.6695
      20    O2      18.892246   22.574702   22.045275 O.co2      1 MOL1        -0.6695
@<TRIPOS>BOND
    1     1     2    1
    2     1     3    1
    3     1     4    2
    4     4     5    1
    5     4     6    1
    6     6     7    1
    7     6     8    1
    8     6     9    1
    9     9    10    1
   10     9    11    1
   11     9    12    1
   12    12    13    1
   13    12    14    1
   14    12    15    1
   15    15    16    1
   16    15    17    1
   17    15    18    1
   18    18    19    1
   19    18    20    2
@<TRIPOS>SUBSTRUCTURE
       1 MOL1            1 RESIDUE      1      MOL     
@<SCITEGIC>MOL_PROPERTY
VConf Rank
SciTegic.value.IntegerValue
617

@<SCITEGIC>MOL_PROPERTY
Conf_Id
SciTegic.value.IntegerValue
68

@<SCITEGIC>MOL_PROPERTY
Delta U+W
SciTegic.value.DoubleValue
0.492

@<SCITEGIC>MOL_PROPERTY
U+W
SciTegic.value.DoubleValue
-51.253

@<SCITEGIC>MOL_PROPERTY
Grad RMS
SciTegic.value.DoubleValue
0.000000

@<SCITEGIC>MOL_PROPERTY
U
SciTegic.value.DoubleValue
10.179

@<SCITEGIC>MOL_PROPERTY
W
SciTegic.value.DoubleValue
-61.432

@<SCITEGIC>MOL_PROPERTY
W(PB)
SciTegic.value.DoubleValue
-63.627

@<SCITEGIC>MOL_PROPERTY
W(SA)
SciTegic.value.DoubleValue
2.195

@<SCITEGIC>MOL_PROPERTY
Valence
SciTegic.value.DoubleValue
9.483

@<SCITEGIC>MOL_PROPERTY
Coulomb
SciTegic.value.DoubleValue
0.361

@<SCITEGIC>MOL_PROPERTY
VdW
SciTegic.value.DoubleValue
0.335

@<SCITEGIC>MOL_PROPERTY
VdW6
SciTegic.value.DoubleValue
-7.385

@<SCITEGIC>MOL_PROPERTY
VdW12
SciTegic.value.DoubleValue
7.720

@<SCITEGIC>MOL_PROPERTY
Bond
SciTegic.value.DoubleValue
0.125

@<SCITEGIC>MOL_PROPERTY
Angle
SciTegic.value.DoubleValue
2.487

@<SCITEGIC>MOL_PROPERTY
Pdih
SciTegic.value.DoubleValue
6.870

@<SCITEGIC>MOL_PROPERTY
Idih
SciTegic.value.DoubleValue
0.001

@<SCITEGIC>MOL_PROPERTY
Tether
SciTegic.value.DoubleValue
0.000

@<TRIPOS>MOLECULE
guest-s22_confgen4.mol2 : confsearch ligand conformer 618
          20          19           1
SMALL
USER_CHARGES
 
@<TRIPOS>ATOM
       1    C1      18.514638   16.354630   21.363169 C.2        1 MOL1        -0.2535
       2    H1      18.590551   15.821283   22.309355 H          1 MOL1         0.0845
       3    H2      18.634021   15.774345   20.449826 H          1 MOL1         0.0845
       4    C2      18.287548   17.670036   21.320347 C.2        1 MOL1        -0.1324
       5    H3      18.212483   18.183702   20.362350 H          1 MOL1         0.0833
       6    C3      18.105602   18.539084   22.546492 C.3        1 MOL1        -0.1813
       7    H4      17.851970   17.911202   23.411335 H          1 MOL1         0.0753
       8    H5      17.255506   19.218790   22.400434 H          1 MOL1         0.0753
       9    C4      19.374279   19.355064   22.882377 C.3        1 MOL1        -0.1855
      10    H6      19.225824   19.859803   23.846714 H          1 MOL1         0.0755
      11    H7      20.222587   18.669339   23.015619 H          1 MOL1         0.0755
      12    C5      19.713319   20.411091   21.803680 C.3        1 MOL1        -0.1855
      13    H8      18.841103   21.059275   21.644282 H          1 MOL1         0.0755
      14    H9      19.920186   19.916631   20.844758 H          1 MOL1         0.0755
      15    C6      20.929349   21.290755   22.193957 C.3        1 MOL1        -0.1958
      16    H10     21.053710   22.091981   21.456002 H          1 MOL1         0.0753
      17    H11     20.752127   21.775301   23.161723 H          1 MOL1         0.0753
      18    C7      22.248698   20.527255   22.266243 C.2        1 MOL1         0.6174
      19    O1      22.808386   20.251830   21.223173 O.co2      1 MOL1        -0.6695
      20    O2      22.691588   20.245393   23.362385 O.co2      1 MOL1        -0.6695
@<TRIPOS>BOND
    1     1     2    1
    2     1     3    1
    3     1     4    2
    4     4     5    1
    5     4     6    1
    6     6     7    1
    7     6     8    1
    8     6     9    1
    9     9    10    1
   10     9    11    1
   11     9    12    1
   12    12    13    1
   13    12    14    1
   14    12    15    1
   15    15    16    1
   16    15    17    1
   17    15    18    1
   18    18    19    1
   19    18    20    2
@<TRIPOS>SUBSTRUCTURE
       1 MOL1            1 RESIDUE      1      MOL     
@<SCITEGIC>MOL_PROPERTY
VConf Rank
SciTegic.value.IntegerValue
618

@<SCITEGIC>MOL_PROPERTY
Conf_Id
SciTegic.value.IntegerValue
87

@<SCITEGIC>MOL_PROPERTY
Delta U+W
SciTegic.value.DoubleValue
0.339

@<SCITEGIC>MOL_PROPERTY
U+W
SciTegic.value.DoubleValue
-51.407

@<SCITEGIC>MOL_PROPERTY
Grad RMS
SciTegic.value.DoubleValue
0.000000

@<SCITEGIC>MOL_PROPERTY
U
SciTegic.value.DoubleValue
10.461

@<SCITEGIC>MOL_PROPERTY
W
SciTegic.value.DoubleValue
-61.867

@<SCITEGIC>MOL_PROPERTY
W(PB)
SciTegic.value.DoubleValue
-64.045

@<SCITEGIC>MOL_PROPERTY
W(SA)
SciTegic.value.DoubleValue
2.178

@<SCITEGIC>MOL_PROPERTY
Valence
SciTegic.value.DoubleValue
9.555

@<SCITEGIC>MOL_PROPERTY
Coulomb
SciTegic.value.DoubleValue
0.483

@<SCITEGIC>MOL_PROPERTY
VdW
SciTegic.value.DoubleValue
0.423

@<SCITEGIC>MOL_PROPERTY
VdW6
SciTegic.value.DoubleValue
-7.223

@<SCITEGIC>MOL_PROPERTY
VdW12
SciTegic.value.DoubleValue
7.646

@<SCITEGIC>MOL_PROPERTY
Bond
SciTegic.value.DoubleValue
0.126

@<SCITEGIC>MOL_PROPERTY
Angle
SciTegic.value.DoubleValue
2.492

@<SCITEGIC>MOL_PROPERTY
Pdih
SciTegic.value.DoubleValue
6.936

@<SCITEGIC>MOL_PROPERTY
Idih
SciTegic.value.DoubleValue
0.001

@<SCITEGIC>MOL_PROPERTY
Tether
SciTegic.value.DoubleValue
0.000

@<TRIPOS>MOLECULE
guest-s22_confgen4.mol2 : confsearch ligand conformer 619
          20          19           1
SMALL
USER_CHARGES
 
@<TRIPOS>ATOM
       1    C1      19.884320   21.485663   23.128510 C.2        1 MOL1        -0.2535
       2    H1      19.326161   22.132901   22.454004 H          1 MOL1         0.0845
       3    H2      19.854993   21.722407   24.190636 H          1 MOL1         0.0845
       4    C2      20.577432   20.438990   22.672676 C.2        1 MOL1        -0.1324
       5    H3      21.137089   19.808242   23.362407 H          1 MOL1         0.0833
       6    C3      20.672350   20.059416   21.210307 C.3        1 MOL1        -0.1813
       7    H4      21.542605   19.411352   21.041179 H          1 MOL1         0.0753
       8    H5      20.861332   20.970180   20.626182 H          1 MOL1         0.0753
       9    C4      19.392072   19.381724   20.661867 C.3        1 MOL1        -0.1855
      10    H6      18.502685   19.935020   20.993211 H          1 MOL1         0.0755
      11    H7      19.408606   19.466504   19.566753 H          1 MOL1         0.0755
      12    C5      19.246558   17.879878   21.014552 C.3        1 MOL1        -0.1855
      13    H8      20.143573   17.332318   20.694268 H          1 MOL1         0.0755
      14    H9      18.410986   17.468581   20.431334 H          1 MOL1         0.0755
      15    C6      18.977343   17.601138   22.515581 C.3        1 MOL1        -0.1958
      16    H10     19.852931   17.861764   23.118491 H          1 MOL1         0.0753
      17    H11     18.140455   18.213762   22.871438 H          1 MOL1         0.0753
      18    C7      18.647298   16.139250   22.794120 C.2        1 MOL1         0.6174
      19    O1      19.565868   15.375981   23.018928 O.co2      1 MOL1        -0.6695
      20    O2      17.481695   15.797238   22.758354 O.co2      1 MOL1        -0.6695
@<TRIPOS>BOND
    1     1     2    1
    2     1     3    1
    3     1     4    2
    4     4     5    1
    5     4     6    1
    6     6     7    1
    7     6     8    1
    8     6     9    1
    9     9    10    1
   10     9    11    1
   11     9    12    1
   12    12    13    1
   13    12    14    1
   14    12    15    1
   15    15    16    1
   16    15    17    1
   17    15    18    1
   18    18    19    1
   19    18    20    2
@<TRIPOS>SUBSTRUCTURE
       1 MOL1            1 RESIDUE      1      MOL     
@<SCITEGIC>MOL_PROPERTY
VConf Rank
SciTegic.value.IntegerValue
619

@<SCITEGIC>MOL_PROPERTY
Conf_Id
SciTegic.value.IntegerValue
51

@<SCITEGIC>MOL_PROPERTY
Delta U+W
SciTegic.value.DoubleValue
1.709

@<SCITEGIC>MOL_PROPERTY
U+W
SciTegic.value.DoubleValue
-50.036

@<SCITEGIC>MOL_PROPERTY
Grad RMS
SciTegic.value.DoubleValue
0.000000

@<SCITEGIC>MOL_PROPERTY
U
SciTegic.value.DoubleValue
10.643

@<SCITEGIC>MOL_PROPERTY
W
SciTegic.value.DoubleValue
-60.679

@<SCITEGIC>MOL_PROPERTY
W(PB)
SciTegic.value.DoubleValue
-62.882

@<SCITEGIC>MOL_PROPERTY
W(SA)
SciTegic.value.DoubleValue
2.203

@<SCITEGIC>MOL_PROPERTY
Valence
SciTegic.value.DoubleValue
11.231

@<SCITEGIC>MOL_PROPERTY
Coulomb
SciTegic.value.DoubleValue
-1.077

@<SCITEGIC>MOL_PROPERTY
VdW
SciTegic.value.DoubleValue
0.489

@<SCITEGIC>MOL_PROPERTY
VdW6
SciTegic.value.DoubleValue
-7.546

@<SCITEGIC>MOL_PROPERTY
VdW12
SciTegic.value.DoubleValue
8.035

@<SCITEGIC>MOL_PROPERTY
Bond
SciTegic.value.DoubleValue
0.159

@<SCITEGIC>MOL_PROPERTY
Angle
SciTegic.value.DoubleValue
3.005

@<SCITEGIC>MOL_PROPERTY
Pdih
SciTegic.value.DoubleValue
8.065

@<SCITEGIC>MOL_PROPERTY
Idih
SciTegic.value.DoubleValue
0.002

@<SCITEGIC>MOL_PROPERTY
Tether
SciTegic.value.DoubleValue
0.000

@<TRIPOS>MOLECULE
guest-s22_confgen4.mol2 : confsearch ligand conformer 620
          20          19           1
SMALL
USER_CHARGES
 
@<TRIPOS>ATOM
       1    C1      18.277660   20.892825   23.708426 C.2        1 MOL1        -0.2535
       2    H1      19.059320   21.178789   24.410315 H          1 MOL1         0.0845
       3    H2      17.266769   20.787094   24.098221 H          1 MOL1         0.0845
       4    C2      18.546933   20.676818   22.418253 C.2        1 MOL1        -0.1324
       5    H3      17.749552   20.400109   21.729479 H          1 MOL1         0.0833
       6    C3      19.924481   20.817562   21.806570 C.3        1 MOL1        -0.1813
       7    H4      20.375079   21.749022   22.175014 H          1 MOL1         0.0753
       8    H5      19.846936   20.934848   20.717458 H          1 MOL1         0.0753
       9    C4      20.876313   19.643967   22.146954 C.3        1 MOL1        -0.1855
      10    H6      21.906483   19.985401   21.976926 H          1 MOL1         0.0755
      11    H7      20.811020   19.405590   23.217395 H          1 MOL1         0.0755
      12    C5      20.660629   18.362877   21.302327 C.3        1 MOL1        -0.1855
      13    H8      21.494251   17.675055   21.500980 H          1 MOL1         0.0755
      14    H9      20.712581   18.607574   20.232532 H          1 MOL1         0.0755
      15    C6      19.333368   17.619319   21.600269 C.3        1 MOL1        -0.1958
      16    H10     19.225701   17.451865   22.678550 H          1 MOL1         0.0753
      17    H11     18.476004   18.216966   21.274955 H          1 MOL1         0.0753
      18    C7      19.243601   16.268794   20.899095 C.2        1 MOL1         0.6174
      19    O1      18.781715   16.234736   19.775534 O.co2      1 MOL1        -0.6695
      20    O2      19.656847   15.288568   21.486689 O.co2      1 MOL1        -0.6695
@<TRIPOS>BOND
    1     1     2    1
    2     1     3    1
    3     1     4    2
    4     4     5    1
    5     4     6    1
    6     6     7    1
    7     6     8    1
    8     6     9    1
    9     9    10    1
   10     9    11    1
   11     9    12    1
   12    12    13    1
   13    12    14    1
   14    12    15    1
   15    15    16    1
   16    15    17    1
   17    15    18    1
   18    18    19    1
   19    18    20    2
@<TRIPOS>SUBSTRUCTURE
       1 MOL1            1 RESIDUE      1      MOL     
@<SCITEGIC>MOL_PROPERTY
VConf Rank
SciTegic.value.IntegerValue
620

@<SCITEGIC>MOL_PROPERTY
Conf_Id
SciTegic.value.IntegerValue
91

@<SCITEGIC>MOL_PROPERTY
Delta U+W
SciTegic.value.DoubleValue
1.604

@<SCITEGIC>MOL_PROPERTY
U+W
SciTegic.value.DoubleValue
-50.141

@<SCITEGIC>MOL_PROPERTY
Grad RMS
SciTegic.value.DoubleValue
0.000000

@<SCITEGIC>MOL_PROPERTY
U
SciTegic.value.DoubleValue
10.644

@<SCITEGIC>MOL_PROPERTY
W
SciTegic.value.DoubleValue
-60.786

@<SCITEGIC>MOL_PROPERTY
W(PB)
SciTegic.value.DoubleValue
-62.965

@<SCITEGIC>MOL_PROPERTY
W(SA)
SciTegic.value.DoubleValue
2.179

@<SCITEGIC>MOL_PROPERTY
Valence
SciTegic.value.DoubleValue
11.230

@<SCITEGIC>MOL_PROPERTY
Coulomb
SciTegic.value.DoubleValue
-1.075

@<SCITEGIC>MOL_PROPERTY
VdW
SciTegic.value.DoubleValue
0.489

@<SCITEGIC>MOL_PROPERTY
VdW6
SciTegic.value.DoubleValue
-7.547

@<SCITEGIC>MOL_PROPERTY
VdW12
SciTegic.value.DoubleValue
8.036

@<SCITEGIC>MOL_PROPERTY
Bond
SciTegic.value.DoubleValue
0.159

@<SCITEGIC>MOL_PROPERTY
Angle
SciTegic.value.DoubleValue
3.006

@<SCITEGIC>MOL_PROPERTY
Pdih
SciTegic.value.DoubleValue
8.064

@<SCITEGIC>MOL_PROPERTY
Idih
SciTegic.value.DoubleValue
0.002

@<SCITEGIC>MOL_PROPERTY
Tether
SciTegic.value.DoubleValue
0.000

@<TRIPOS>MOLECULE
guest-s22_confgen4.mol2 : confsearch ligand conformer 621
          20          19           1
SMALL
USER_CHARGES
 
@<TRIPOS>ATOM
       1    C1      20.928912   17.537622   25.073651 C.2        1 MOL1        -0.2535
       2    H1      21.839929   17.221316   24.568091 H          1 MOL1         0.0845
       3    H2      20.664081   17.024248   25.996466 H          1 MOL1         0.0845
       4    C2      20.162124   18.514879   24.583084 C.2        1 MOL1        -0.1324
       5    H3      19.253642   18.815906   25.104333 H          1 MOL1         0.0833
       6    C3      20.465904   19.272555   23.309786 C.3        1 MOL1        -0.1813
       7    H4      21.504595   19.094258   22.999727 H          1 MOL1         0.0753
       8    H5      20.371641   20.351351   23.492701 H          1 MOL1         0.0753
       9    C4      19.511096   18.855119   22.171823 C.3        1 MOL1        -0.1855
      10    H6      19.606243   17.774685   21.995769 H          1 MOL1         0.0755
      11    H7      18.472640   19.037898   22.480629 H          1 MOL1         0.0755
      12    C5      19.805722   19.621903   20.864018 C.3        1 MOL1        -0.1855
      13    H8      20.844085   19.439183   20.554247 H          1 MOL1         0.0755
      14    H9      19.711943   20.702573   21.039750 H          1 MOL1         0.0755
      15    C6      18.845673   19.201242   19.719575 C.3        1 MOL1        -0.1958
      16    H10     18.938789   18.124679   19.534495 H          1 MOL1         0.0753
      17    H11     17.807617   19.386832   20.019415 H          1 MOL1         0.0753
      18    C7      19.069342   19.914376   18.385135 C.2        1 MOL1         0.6174
      19    O1      18.335572   19.612154   17.465145 O.co2      1 MOL1        -0.6695
      20    O2      19.953525   20.743161   18.285225 O.co2      1 MOL1        -0.6695
@<TRIPOS>BOND
    1     1     2    1
    2     1     3    1
    3     1     4    2
    4     4     5    1
    5     4     6    1
    6     6     7    1
    7     6     8    1
    8     6     9    1
    9     9    10    1
   10     9    11    1
   11     9    12    1
   12    12    13    1
   13    12    14    1
   14    12    15    1
   15    15    16    1
   16    15    17    1
   17    15    18    1
   18    18    19    1
   19    18    20    2
@<TRIPOS>SUBSTRUCTURE
       1 MOL1            1 RESIDUE      1      MOL     
@<SCITEGIC>MOL_PROPERTY
VConf Rank
SciTegic.value.IntegerValue
621

@<SCITEGIC>MOL_PROPERTY
Conf_Id
SciTegic.value.IntegerValue
33

@<SCITEGIC>MOL_PROPERTY
Delta U+W
SciTegic.value.DoubleValue
0.000

@<SCITEGIC>MOL_PROPERTY
U+W
SciTegic.value.DoubleValue
-51.745

@<SCITEGIC>MOL_PROPERTY
Grad RMS
SciTegic.value.DoubleValue
0.000000

@<SCITEGIC>MOL_PROPERTY
U
SciTegic.value.DoubleValue
7.593

@<SCITEGIC>MOL_PROPERTY
W
SciTegic.value.DoubleValue
-59.338

@<SCITEGIC>MOL_PROPERTY
W(PB)
SciTegic.value.DoubleValue
-61.574

@<SCITEGIC>MOL_PROPERTY
W(SA)
SciTegic.value.DoubleValue
2.236

@<SCITEGIC>MOL_PROPERTY
Valence
SciTegic.value.DoubleValue
9.570

@<SCITEGIC>MOL_PROPERTY
Coulomb
SciTegic.value.DoubleValue
-3.091

@<SCITEGIC>MOL_PROPERTY
VdW
SciTegic.value.DoubleValue
1.114

@<SCITEGIC>MOL_PROPERTY
VdW6
SciTegic.value.DoubleValue
-6.064

@<SCITEGIC>MOL_PROPERTY
VdW12
SciTegic.value.DoubleValue
7.178

@<SCITEGIC>MOL_PROPERTY
Bond
SciTegic.value.DoubleValue
0.117

@<SCITEGIC>MOL_PROPERTY
Angle
SciTegic.value.DoubleValue
2.692

@<SCITEGIC>MOL_PROPERTY
Pdih
SciTegic.value.DoubleValue
6.761

@<SCITEGIC>MOL_PROPERTY
Idih
SciTegic.value.DoubleValue
0.000

@<SCITEGIC>MOL_PROPERTY
Tether
SciTegic.value.DoubleValue
0.000

@<TRIPOS>MOLECULE
guest-s22_confgen4.mol2 : confsearch ligand conformer 622
          20          19           1
SMALL
USER_CHARGES
 
@<TRIPOS>ATOM
       1    C1      22.771452   18.960115   19.994500 C.2        1 MOL1        -0.2535
       2    H1      22.410186   18.086888   19.453631 H          1 MOL1         0.0845
       3    H2      23.813418   19.241774   19.852253 H          1 MOL1         0.0845
       4    C2      21.971751   19.659660   20.803690 C.2        1 MOL1        -0.1324
       5    H3      22.353369   20.530252   21.336669 H          1 MOL1         0.0833
       6    C3      20.516310   19.329808   21.049888 C.3        1 MOL1        -0.1813
       7    H4      20.155411   18.618086   20.295037 H          1 MOL1         0.0753
       8    H5      19.916749   20.242029   20.938403 H          1 MOL1         0.0753
       9    C4      20.314044   18.730951   22.459948 C.3        1 MOL1        -0.1855
      10    H6      20.986369   17.869920   22.578037 H          1 MOL1         0.0755
      11    H7      20.614304   19.465278   23.219948 H          1 MOL1         0.0755
      12    C5      18.863546   18.265050   22.730455 C.3        1 MOL1        -0.1855
      13    H8      18.833518   17.753214   23.702369 H          1 MOL1         0.0755
      14    H9      18.566368   17.520592   21.978883 H          1 MOL1         0.0755
      15    C6      17.833806   19.424514   22.746288 C.3        1 MOL1        -0.1958
      16    H10     18.142360   20.195137   23.462750 H          1 MOL1         0.0753
      17    H11     17.772822   19.900997   21.761408 H          1 MOL1         0.0753
      18    C7      16.431447   18.961638   23.124580 C.2        1 MOL1         0.6174
      19    O1      15.690760   18.589581   22.235949 O.co2      1 MOL1        -0.6695
      20    O2      16.123376   18.966566   24.300081 O.co2      1 MOL1        -0.6695
@<TRIPOS>BOND
    1     1     2    1
    2     1     3    1
    3     1     4    2
    4     4     5    1
    5     4     6    1
    6     6     7    1
    7     6     8    1
    8     6     9    1
    9     9    10    1
   10     9    11    1
   11     9    12    1
   12    12    13    1
   13    12    14    1
   14    12    15    1
   15    15    16    1
   16    15    17    1
   17    15    18    1
   18    18    19    1
   19    18    20    2
@<TRIPOS>SUBSTRUCTURE
       1 MOL1            1 RESIDUE      1      MOL     
@<SCITEGIC>MOL_PROPERTY
VConf Rank
SciTegic.value.IntegerValue
622

@<SCITEGIC>MOL_PROPERTY
Conf_Id
SciTegic.value.IntegerValue
37

@<SCITEGIC>MOL_PROPERTY
Delta U+W
SciTegic.value.DoubleValue
-0.384

@<SCITEGIC>MOL_PROPERTY
U+W
SciTegic.value.DoubleValue
-52.130

@<SCITEGIC>MOL_PROPERTY
Grad RMS
SciTegic.value.DoubleValue
0.000000

@<SCITEGIC>MOL_PROPERTY
U
SciTegic.value.DoubleValue
7.491

@<SCITEGIC>MOL_PROPERTY
W
SciTegic.value.DoubleValue
-59.621

@<SCITEGIC>MOL_PROPERTY
W(PB)
SciTegic.value.DoubleValue
-61.853

@<SCITEGIC>MOL_PROPERTY
W(SA)
SciTegic.value.DoubleValue
2.232

@<SCITEGIC>MOL_PROPERTY
Valence
SciTegic.value.DoubleValue
9.604

@<SCITEGIC>MOL_PROPERTY
Coulomb
SciTegic.value.DoubleValue
-2.799

@<SCITEGIC>MOL_PROPERTY
VdW
SciTegic.value.DoubleValue
0.686

@<SCITEGIC>MOL_PROPERTY
VdW6
SciTegic.value.DoubleValue
-6.435

@<SCITEGIC>MOL_PROPERTY
VdW12
SciTegic.value.DoubleValue
7.121

@<SCITEGIC>MOL_PROPERTY
Bond
SciTegic.value.DoubleValue
0.124

@<SCITEGIC>MOL_PROPERTY
Angle
SciTegic.value.DoubleValue
2.493

@<SCITEGIC>MOL_PROPERTY
Pdih
SciTegic.value.DoubleValue
6.986

@<SCITEGIC>MOL_PROPERTY
Idih
SciTegic.value.DoubleValue
0.001

@<SCITEGIC>MOL_PROPERTY
Tether
SciTegic.value.DoubleValue
0.000

@<TRIPOS>MOLECULE
guest-s22_confgen4.mol2 : confsearch ligand conformer 623
          20          19           1
SMALL
USER_CHARGES
 
@<TRIPOS>ATOM
       1    C1      22.033270   21.095764   20.546035 C.2        1 MOL1        -0.2535
       2    H1      22.753702   21.786929   20.111915 H          1 MOL1         0.0845
       3    H2      22.224578   20.034232   20.404264 H          1 MOL1         0.0845
       4    C2      20.969643   21.550504   21.218212 C.2        1 MOL1        -0.1324
       5    H3      20.831672   22.626036   21.326938 H          1 MOL1         0.0833
       6    C3      19.884968   20.713957   21.876000 C.3        1 MOL1        -0.1813
       7    H4      18.912333   21.004747   21.457005 H          1 MOL1         0.0753
       8    H5      19.837404   20.973098   22.942170 H          1 MOL1         0.0753
       9    C4      20.061627   19.184111   21.733359 C.3        1 MOL1        -0.1855
      10    H6      20.089032   18.915578   20.668358 H          1 MOL1         0.0755
      11    H7      21.024152   18.883588   22.169613 H          1 MOL1         0.0755
      12    C5      18.920466   18.409054   22.427664 C.3        1 MOL1        -0.1855
      13    H8      17.954482   18.705377   21.995607 H          1 MOL1         0.0755
      14    H9      18.887692   18.673462   23.493787 H          1 MOL1         0.0755
      15    C6      19.095095   16.876868   22.286252 C.3        1 MOL1        -0.1958
      16    H10     19.116327   16.594216   21.226884 H          1 MOL1         0.0753
      17    H11     20.049628   16.562325   22.725035 H          1 MOL1         0.0753
      18    C7      17.979911   16.089005   22.964209 C.2        1 MOL1         0.6174
      19    O1      16.989606   15.820674   22.313101 O.co2      1 MOL1        -0.6695
      20    O2      18.122472   15.781615   24.131185 O.co2      1 MOL1        -0.6695
@<TRIPOS>BOND
    1     1     2    1
    2     1     3    1
    3     1     4    2
    4     4     5    1
    5     4     6    1
    6     6     7    1
    7     6     8    1
    8     6     9    1
    9     9    10    1
   10     9    11    1
   11     9    12    1
   12    12    13    1
   13    12    14    1
   14    12    15    1
   15    15    16    1
   16    15    17    1
   17    15    18    1
   18    18    19    1
   19    18    20    2
@<TRIPOS>SUBSTRUCTURE
       1 MOL1            1 RESIDUE      1      MOL     
@<SCITEGIC>MOL_PROPERTY
VConf Rank
SciTegic.value.IntegerValue
623

@<SCITEGIC>MOL_PROPERTY
Conf_Id
SciTegic.value.IntegerValue
44

@<SCITEGIC>MOL_PROPERTY
Delta U+W
SciTegic.value.DoubleValue
-1.440

@<SCITEGIC>MOL_PROPERTY
U+W
SciTegic.value.DoubleValue
-53.185

@<SCITEGIC>MOL_PROPERTY
Grad RMS
SciTegic.value.DoubleValue
0.000000

@<SCITEGIC>MOL_PROPERTY
U
SciTegic.value.DoubleValue
6.572

@<SCITEGIC>MOL_PROPERTY
W
SciTegic.value.DoubleValue
-59.757

@<SCITEGIC>MOL_PROPERTY
W(PB)
SciTegic.value.DoubleValue
-62.007

@<SCITEGIC>MOL_PROPERTY
W(SA)
SciTegic.value.DoubleValue
2.249

@<SCITEGIC>MOL_PROPERTY
Valence
SciTegic.value.DoubleValue
7.989

@<SCITEGIC>MOL_PROPERTY
Coulomb
SciTegic.value.DoubleValue
-2.697

@<SCITEGIC>MOL_PROPERTY
VdW
SciTegic.value.DoubleValue
1.281

@<SCITEGIC>MOL_PROPERTY
VdW6
SciTegic.value.DoubleValue
-6.467

@<SCITEGIC>MOL_PROPERTY
VdW12
SciTegic.value.DoubleValue
7.748

@<SCITEGIC>MOL_PROPERTY
Bond
SciTegic.value.DoubleValue
0.136

@<SCITEGIC>MOL_PROPERTY
Angle
SciTegic.value.DoubleValue
2.854

@<SCITEGIC>MOL_PROPERTY
Pdih
SciTegic.value.DoubleValue
4.997

@<SCITEGIC>MOL_PROPERTY
Idih
SciTegic.value.DoubleValue
0.001

@<SCITEGIC>MOL_PROPERTY
Tether
SciTegic.value.DoubleValue
0.000

@<TRIPOS>MOLECULE
guest-s22_confgen4.mol2 : confsearch ligand conformer 624
          20          19           1
SMALL
USER_CHARGES
 
@<TRIPOS>ATOM
       1    C1      17.602329   16.396074   22.156964 C.2        1 MOL1        -0.2535
       2    H1      17.325359   16.926830   23.066449 H          1 MOL1         0.0845
       3    H2      17.242625   15.374779   22.043722 H          1 MOL1         0.0845
       4    C2      18.355876   16.970683   21.215842 C.2        1 MOL1        -0.1324
       5    H3      18.622306   16.421593   20.312985 H          1 MOL1         0.0833
       6    C3      18.889952   18.383171   21.302653 C.3        1 MOL1        -0.1813
       7    H4      18.358602   18.934867   22.088719 H          1 MOL1         0.0753
       8    H5      18.693473   18.908083   20.358304 H          1 MOL1         0.0753
       9    C4      20.408110   18.385804   21.591011 C.3        1 MOL1        -0.1855
      10    H6      20.598599   17.908725   22.562249 H          1 MOL1         0.0755
      11    H7      20.914191   17.766982   20.837336 H          1 MOL1         0.0755
      12    C5      21.038019   19.799018   21.572006 C.3        1 MOL1        -0.1855
      13    H8      20.856644   20.273629   20.597727 H          1 MOL1         0.0755
      14    H9      22.127977   19.699907   21.670336 H          1 MOL1         0.0755
      15    C6      20.518472   20.723721   22.703401 C.3        1 MOL1        -0.1958
      16    H10     19.446945   20.918408   22.582450 H          1 MOL1         0.0753
      17    H11     20.654037   20.241326   23.678755 H          1 MOL1         0.0753
      18    C7      21.232727   22.070028   22.738443 C.2        1 MOL1         0.6174
      19    O1      22.234480   22.170372   23.419000 O.co2      1 MOL1        -0.6695
      20    O2      20.780062   22.977346   22.068682 O.co2      1 MOL1        -0.6695
@<TRIPOS>BOND
    1     1     2    1
    2     1     3    1
    3     1     4    2
    4     4     5    1
    5     4     6    1
    6     6     7    1
    7     6     8    1
    8     6     9    1
    9     9    10    1
   10     9    11    1
   11     9    12    1
   12    12    13    1
   13    12    14    1
   14    12    15    1
   15    15    16    1
   16    15    17    1
   17    15    18    1
   18    18    19    1
   19    18    20    2
@<TRIPOS>SUBSTRUCTURE
       1 MOL1            1 RESIDUE      1      MOL     
@<SCITEGIC>MOL_PROPERTY
VConf Rank
SciTegic.value.IntegerValue
624

@<SCITEGIC>MOL_PROPERTY
Conf_Id
SciTegic.value.IntegerValue
38

@<SCITEGIC>MOL_PROPERTY
Delta U+W
SciTegic.value.DoubleValue
-0.381

@<SCITEGIC>MOL_PROPERTY
U+W
SciTegic.value.DoubleValue
-52.126

@<SCITEGIC>MOL_PROPERTY
Grad RMS
SciTegic.value.DoubleValue
0.000000

@<SCITEGIC>MOL_PROPERTY
U
SciTegic.value.DoubleValue
7.601

@<SCITEGIC>MOL_PROPERTY
W
SciTegic.value.DoubleValue
-59.727

@<SCITEGIC>MOL_PROPERTY
W(PB)
SciTegic.value.DoubleValue
-61.964

@<SCITEGIC>MOL_PROPERTY
W(SA)
SciTegic.value.DoubleValue
2.236

@<SCITEGIC>MOL_PROPERTY
Valence
SciTegic.value.DoubleValue
9.602

@<SCITEGIC>MOL_PROPERTY
Coulomb
SciTegic.value.DoubleValue
-2.686

@<SCITEGIC>MOL_PROPERTY
VdW
SciTegic.value.DoubleValue
0.685

@<SCITEGIC>MOL_PROPERTY
VdW6
SciTegic.value.DoubleValue
-6.453

@<SCITEGIC>MOL_PROPERTY
VdW12
SciTegic.value.DoubleValue
7.139

@<SCITEGIC>MOL_PROPERTY
Bond
SciTegic.value.DoubleValue
0.125

@<SCITEGIC>MOL_PROPERTY
Angle
SciTegic.value.DoubleValue
2.485

@<SCITEGIC>MOL_PROPERTY
Pdih
SciTegic.value.DoubleValue
6.991

@<SCITEGIC>MOL_PROPERTY
Idih
SciTegic.value.DoubleValue
0.001

@<SCITEGIC>MOL_PROPERTY
Tether
SciTegic.value.DoubleValue
0.000

@<TRIPOS>MOLECULE
guest-s22_confgen4.mol2 : confsearch ligand conformer 625
          20          19           1
SMALL
USER_CHARGES
 
@<TRIPOS>ATOM
       1    C1      16.990175   17.247312   23.195132 C.2        1 MOL1        -0.2535
       2    H1      16.282560   17.723010   22.517954 H          1 MOL1         0.0845
       3    H2      16.730802   16.262380   23.579714 H          1 MOL1         0.0845
       4    C2      18.133751   17.844084   23.541198 C.2        1 MOL1        -0.1324
       5    H3      18.828945   17.350221   24.219773 H          1 MOL1         0.0833
       6    C3      18.560637   19.208976   23.048768 C.3        1 MOL1        -0.1813
       7    H4      18.886761   19.821223   23.900191 H          1 MOL1         0.0753
       8    H5      17.709543   19.731427   22.591138 H          1 MOL1         0.0753
       9    C4      19.707837   19.097418   22.022854 C.3        1 MOL1        -0.1855
      10    H6      20.558595   18.576643   22.483762 H          1 MOL1         0.0755
      11    H7      19.379519   18.480392   21.175058 H          1 MOL1         0.0755
      12    C5      20.158372   20.484411   21.511386 C.3        1 MOL1        -0.1855
      13    H8      20.497432   21.100584   22.355817 H          1 MOL1         0.0755
      14    H9      19.298402   21.003302   21.066655 H          1 MOL1         0.0755
      15    C6      21.290845   20.391734   20.456013 C.3        1 MOL1        -0.1958
      16    H10     20.977544   19.756327   19.618780 H          1 MOL1         0.0753
      17    H11     21.488591   21.387535   20.042185 H          1 MOL1         0.0753
      18    C7      22.609517   19.856518   21.006935 C.2        1 MOL1         0.6174
      19    O1      22.927369   18.715849   20.733411 O.co2      1 MOL1        -0.6695
      20    O2      23.289516   20.599887   21.686716 O.co2      1 MOL1        -0.6695
@<TRIPOS>BOND
    1     1     2    1
    2     1     3    1
    3     1     4    2
    4     4     5    1
    5     4     6    1
    6     6     7    1
    7     6     8    1
    8     6     9    1
    9     9    10    1
   10     9    11    1
   11     9    12    1
   12    12    13    1
   13    12    14    1
   14    12    15    1
   15    15    16    1
   16    15    17    1
   17    15    18    1
   18    18    19    1
   19    18    20    2
@<TRIPOS>SUBSTRUCTURE
       1 MOL1            1 RESIDUE      1      MOL     
@<SCITEGIC>MOL_PROPERTY
VConf Rank
SciTegic.value.IntegerValue
625

@<SCITEGIC>MOL_PROPERTY
Conf_Id
SciTegic.value.IntegerValue
58

@<SCITEGIC>MOL_PROPERTY
Delta U+W
SciTegic.value.DoubleValue
0.019

@<SCITEGIC>MOL_PROPERTY
U+W
SciTegic.value.DoubleValue
-51.727

@<SCITEGIC>MOL_PROPERTY
Grad RMS
SciTegic.value.DoubleValue
0.000000

@<SCITEGIC>MOL_PROPERTY
U
SciTegic.value.DoubleValue
8.963

@<SCITEGIC>MOL_PROPERTY
W
SciTegic.value.DoubleValue
-60.690

@<SCITEGIC>MOL_PROPERTY
W(PB)
SciTegic.value.DoubleValue
-62.934

@<SCITEGIC>MOL_PROPERTY
W(SA)
SciTegic.value.DoubleValue
2.244

@<SCITEGIC>MOL_PROPERTY
Valence
SciTegic.value.DoubleValue
9.327

@<SCITEGIC>MOL_PROPERTY
Coulomb
SciTegic.value.DoubleValue
-0.780

@<SCITEGIC>MOL_PROPERTY
VdW
SciTegic.value.DoubleValue
0.417

@<SCITEGIC>MOL_PROPERTY
VdW6
SciTegic.value.DoubleValue
-6.635

@<SCITEGIC>MOL_PROPERTY
VdW12
SciTegic.value.DoubleValue
7.052

@<SCITEGIC>MOL_PROPERTY
Bond
SciTegic.value.DoubleValue
0.105

@<SCITEGIC>MOL_PROPERTY
Angle
SciTegic.value.DoubleValue
2.399

@<SCITEGIC>MOL_PROPERTY
Pdih
SciTegic.value.DoubleValue
6.822

@<SCITEGIC>MOL_PROPERTY
Idih
SciTegic.value.DoubleValue
0.000

@<SCITEGIC>MOL_PROPERTY
Tether
SciTegic.value.DoubleValue
0.000

@<TRIPOS>MOLECULE
guest-s22_confgen4.mol2 : confsearch ligand conformer 626
          20          19           1
SMALL
USER_CHARGES
 
@<TRIPOS>ATOM
       1    C1      21.618557   16.399594   23.119642 C.2        1 MOL1        -0.2535
       2    H1      22.521946   16.731781   22.610607 H          1 MOL1         0.0845
       3    H2      21.537021   15.339718   23.354763 H          1 MOL1         0.0845
       4    C2      20.645009   17.254964   23.442460 C.2        1 MOL1        -0.1324
       5    H3      19.748218   16.901749   23.951050 H          1 MOL1         0.0833
       6    C3      20.687927   18.738166   23.149353 C.3        1 MOL1        -0.1813
       7    H4      21.708012   19.042892   22.878600 H          1 MOL1         0.0753
       8    H5      20.420044   19.299399   24.054551 H          1 MOL1         0.0753
       9    C4      19.719875   19.108408   22.006195 C.3        1 MOL1        -0.1855
      10    H6      19.988028   18.541565   21.103946 H          1 MOL1         0.0755
      11    H7      18.700085   18.804691   22.280453 H          1 MOL1         0.0755
      12    C5      19.749204   20.622061   21.695833 C.3        1 MOL1        -0.1855
      13    H8      20.774842   20.919137   21.438161 H          1 MOL1         0.0755
      14    H9      19.471016   21.191700   22.593506 H          1 MOL1         0.0755
      15    C6      18.804817   21.009784   20.528487 C.3        1 MOL1        -0.1958
      16    H10     18.952190   22.065731   20.273075 H          1 MOL1         0.0753
      17    H11     19.052211   20.428611   19.631886 H          1 MOL1         0.0753
      18    C7      17.323184   20.818175   20.839798 C.2        1 MOL1         0.6174
      19    O1      16.780532   21.630698   21.562592 O.co2      1 MOL1        -0.6695
      20    O2      16.748368   19.869374   20.343480 O.co2      1 MOL1        -0.6695
@<TRIPOS>BOND
    1     1     2    1
    2     1     3    1
    3     1     4    2
    4     4     5    1
    5     4     6    1
    6     6     7    1
    7     6     8    1
    8     6     9    1
    9     9    10    1
   10     9    11    1
   11     9    12    1
   12    12    13    1
   13    12    14    1
   14    12    15    1
   15    15    16    1
   16    15    17    1
   17    15    18    1
   18    18    19    1
   19    18    20    2
@<TRIPOS>SUBSTRUCTURE
       1 MOL1            1 RESIDUE      1      MOL     
@<SCITEGIC>MOL_PROPERTY
VConf Rank
SciTegic.value.IntegerValue
626

@<SCITEGIC>MOL_PROPERTY
Conf_Id
SciTegic.value.IntegerValue
54

@<SCITEGIC>MOL_PROPERTY
Delta U+W
SciTegic.value.DoubleValue
-0.048

@<SCITEGIC>MOL_PROPERTY
U+W
SciTegic.value.DoubleValue
-51.793

@<SCITEGIC>MOL_PROPERTY
Grad RMS
SciTegic.value.DoubleValue
0.000000

@<SCITEGIC>MOL_PROPERTY
U
SciTegic.value.DoubleValue
8.964

@<SCITEGIC>MOL_PROPERTY
W
SciTegic.value.DoubleValue
-60.756

@<SCITEGIC>MOL_PROPERTY
W(PB)
SciTegic.value.DoubleValue
-63.007

@<SCITEGIC>MOL_PROPERTY
W(SA)
SciTegic.value.DoubleValue
2.251

@<SCITEGIC>MOL_PROPERTY
Valence
SciTegic.value.DoubleValue
9.327

@<SCITEGIC>MOL_PROPERTY
Coulomb
SciTegic.value.DoubleValue
-0.780

@<SCITEGIC>MOL_PROPERTY
VdW
SciTegic.value.DoubleValue
0.417

@<SCITEGIC>MOL_PROPERTY
VdW6
SciTegic.value.DoubleValue
-6.635

@<SCITEGIC>MOL_PROPERTY
VdW12
SciTegic.value.DoubleValue
7.052

@<SCITEGIC>MOL_PROPERTY
Bond
SciTegic.value.DoubleValue
0.105

@<SCITEGIC>MOL_PROPERTY
Angle
SciTegic.value.DoubleValue
2.399

@<SCITEGIC>MOL_PROPERTY
Pdih
SciTegic.value.DoubleValue
6.822

@<SCITEGIC>MOL_PROPERTY
Idih
SciTegic.value.DoubleValue
0.000

@<SCITEGIC>MOL_PROPERTY
Tether
SciTegic.value.DoubleValue
0.000

@<TRIPOS>MOLECULE
guest-s22_confgen4.mol2 : confsearch ligand conformer 627
          20          19           1
SMALL
USER_CHARGES
 
@<TRIPOS>ATOM
       1    C1      18.137283   20.828370   24.387170 C.2        1 MOL1        -0.2535
       2    H1      18.451220   21.572894   25.116770 H          1 MOL1         0.0845
       3    H2      17.160262   20.960273   23.925064 H          1 MOL1         0.0845
       4    C2      18.924240   19.796442   24.071745 C.2        1 MOL1        -0.1324
       5    H3      19.897084   19.681414   24.548813 H          1 MOL1         0.0833
       6    C3      18.551896   18.720841   23.073601 C.3        1 MOL1        -0.1813
       7    H4      17.462777   18.709191   22.931416 H          1 MOL1         0.0753
       8    H5      18.820327   17.732641   23.470401 H          1 MOL1         0.0753
       9    C4      19.227709   18.932259   21.700000 C.3        1 MOL1        -0.1855
      10    H6      18.811743   18.205893   20.988418 H          1 MOL1         0.0755
      11    H7      18.970420   19.928897   21.315743 H          1 MOL1         0.0755
      12    C5      20.765769   18.772760   21.755070 C.3        1 MOL1        -0.1855
      13    H8      21.023430   17.781484   22.153089 H          1 MOL1         0.0755
      14    H9      21.186329   19.511727   22.449730 H          1 MOL1         0.0755
      15    C6      21.433857   18.958885   20.367916 C.3        1 MOL1        -0.1958
      16    H10     21.158221   19.931373   19.942329 H          1 MOL1         0.0753
      17    H11     22.524055   18.960570   20.483766 H          1 MOL1         0.0753
      18    C7      21.084385   17.868513   19.359059 C.2        1 MOL1         0.6174
      19    O1      20.294706   18.134127   18.474239 O.co2      1 MOL1        -0.6695
      20    O2      21.620487   16.784410   19.479190 O.co2      1 MOL1        -0.6695
@<TRIPOS>BOND
    1     1     2    1
    2     1     3    1
    3     1     4    2
    4     4     5    1
    5     4     6    1
    6     6     7    1
    7     6     8    1
    8     6     9    1
    9     9    10    1
   10     9    11    1
   11     9    12    1
   12    12    13    1
   13    12    14    1
   14    12    15    1
   15    15    16    1
   16    15    17    1
   17    15    18    1
   18    18    19    1
   19    18    20    2
@<TRIPOS>SUBSTRUCTURE
       1 MOL1            1 RESIDUE      1      MOL     
@<SCITEGIC>MOL_PROPERTY
VConf Rank
SciTegic.value.IntegerValue
627

@<SCITEGIC>MOL_PROPERTY
Conf_Id
SciTegic.value.IntegerValue
27

@<SCITEGIC>MOL_PROPERTY
Delta U+W
SciTegic.value.DoubleValue
0.478

@<SCITEGIC>MOL_PROPERTY
U+W
SciTegic.value.DoubleValue
-51.267

@<SCITEGIC>MOL_PROPERTY
Grad RMS
SciTegic.value.DoubleValue
0.000000

@<SCITEGIC>MOL_PROPERTY
U
SciTegic.value.DoubleValue
9.192

@<SCITEGIC>MOL_PROPERTY
W
SciTegic.value.DoubleValue
-60.459

@<SCITEGIC>MOL_PROPERTY
W(PB)
SciTegic.value.DoubleValue
-62.649

@<SCITEGIC>MOL_PROPERTY
W(SA)
SciTegic.value.DoubleValue
2.190

@<SCITEGIC>MOL_PROPERTY
Valence
SciTegic.value.DoubleValue
9.572

@<SCITEGIC>MOL_PROPERTY
Coulomb
SciTegic.value.DoubleValue
-0.884

@<SCITEGIC>MOL_PROPERTY
VdW
SciTegic.value.DoubleValue
0.504

@<SCITEGIC>MOL_PROPERTY
VdW6
SciTegic.value.DoubleValue
-7.168

@<SCITEGIC>MOL_PROPERTY
VdW12
SciTegic.value.DoubleValue
7.672

@<SCITEGIC>MOL_PROPERTY
Bond
SciTegic.value.DoubleValue
0.127

@<SCITEGIC>MOL_PROPERTY
Angle
SciTegic.value.DoubleValue
2.504

@<SCITEGIC>MOL_PROPERTY
Pdih
SciTegic.value.DoubleValue
6.941

@<SCITEGIC>MOL_PROPERTY
Idih
SciTegic.value.DoubleValue
0.001

@<SCITEGIC>MOL_PROPERTY
Tether
SciTegic.value.DoubleValue
0.000

@<TRIPOS>MOLECULE
guest-s22_confgen4.mol2 : confsearch ligand conformer 628
          20          19           1
SMALL
USER_CHARGES
 
@<TRIPOS>ATOM
       1    C1      16.659212   17.780734   22.953834 C.2        1 MOL1        -0.2535
       2    H1      16.277258   17.110630   22.185344 H          1 MOL1         0.0845
       3    H2      15.930647   18.340190   23.538129 H          1 MOL1         0.0845
       4    C2      17.969779   17.916450   23.172171 C.2        1 MOL1        -0.1324
       5    H3      18.330554   18.590437   23.948622 H          1 MOL1         0.0833
       6    C3      19.038769   17.167885   22.404897 C.3        1 MOL1        -0.1813
       7    H4      18.598384   16.284895   21.922253 H          1 MOL1         0.0753
       8    H5      19.801989   16.790290   23.098424 H          1 MOL1         0.0753
       9    C4      19.706567   18.043392   21.320649 C.3        1 MOL1        -0.1855
      10    H6      20.371914   17.411675   20.716393 H          1 MOL1         0.0755
      11    H7      18.936486   18.430911   20.639393 H          1 MOL1         0.0755
      12    C5      20.520716   19.216686   21.912751 C.3        1 MOL1        -0.1855
      13    H8      21.273196   18.829321   22.613521 H          1 MOL1         0.0755
      14    H9      19.859776   19.879266   22.487928 H          1 MOL1         0.0755
      15    C6      21.226775   20.041845   20.808824 C.3        1 MOL1        -0.1958
      16    H10     21.905178   19.401618   20.232270 H          1 MOL1         0.0753
      17    H11     20.487174   20.445911   20.107162 H          1 MOL1         0.0753
      18    C7      22.036021   21.206891   21.367247 C.2        1 MOL1         0.6174
      19    O1      21.480458   22.279264   21.501506 O.co2      1 MOL1        -0.6695
      20    O2      23.195816   21.006697   21.669732 O.co2      1 MOL1        -0.6695
@<TRIPOS>BOND
    1     1     2    1
    2     1     3    1
    3     1     4    2
    4     4     5    1
    5     4     6    1
    6     6     7    1
    7     6     8    1
    8     6     9    1
    9     9    10    1
   10     9    11    1
   11     9    12    1
   12    12    13    1
   13    12    14    1
   14    12    15    1
   15    15    16    1
   16    15    17    1
   17    15    18    1
   18    18    19    1
   19    18    20    2
@<TRIPOS>SUBSTRUCTURE
       1 MOL1            1 RESIDUE      1      MOL     
@<SCITEGIC>MOL_PROPERTY
VConf Rank
SciTegic.value.IntegerValue
628

@<SCITEGIC>MOL_PROPERTY
Conf_Id
SciTegic.value.IntegerValue
41

@<SCITEGIC>MOL_PROPERTY
Delta U+W
SciTegic.value.DoubleValue
-0.634

@<SCITEGIC>MOL_PROPERTY
U+W
SciTegic.value.DoubleValue
-52.379

@<SCITEGIC>MOL_PROPERTY
Grad RMS
SciTegic.value.DoubleValue
0.000000

@<SCITEGIC>MOL_PROPERTY
U
SciTegic.value.DoubleValue
7.828

@<SCITEGIC>MOL_PROPERTY
W
SciTegic.value.DoubleValue
-60.207

@<SCITEGIC>MOL_PROPERTY
W(PB)
SciTegic.value.DoubleValue
-62.449

@<SCITEGIC>MOL_PROPERTY
W(SA)
SciTegic.value.DoubleValue
2.242

@<SCITEGIC>MOL_PROPERTY
Valence
SciTegic.value.DoubleValue
9.300

@<SCITEGIC>MOL_PROPERTY
Coulomb
SciTegic.value.DoubleValue
-2.080

@<SCITEGIC>MOL_PROPERTY
VdW
SciTegic.value.DoubleValue
0.608

@<SCITEGIC>MOL_PROPERTY
VdW6
SciTegic.value.DoubleValue
-6.341

@<SCITEGIC>MOL_PROPERTY
VdW12
SciTegic.value.DoubleValue
6.949

@<SCITEGIC>MOL_PROPERTY
Bond
SciTegic.value.DoubleValue
0.103

@<SCITEGIC>MOL_PROPERTY
Angle
SciTegic.value.DoubleValue
2.334

@<SCITEGIC>MOL_PROPERTY
Pdih
SciTegic.value.DoubleValue
6.862

@<SCITEGIC>MOL_PROPERTY
Idih
SciTegic.value.DoubleValue
0.001

@<SCITEGIC>MOL_PROPERTY
Tether
SciTegic.value.DoubleValue
0.000

@<TRIPOS>MOLECULE
guest-s22_confgen4.mol2 : confsearch ligand conformer 629
          20          19           1
SMALL
USER_CHARGES
 
@<TRIPOS>ATOM
       1    C1      18.795525   15.895617   23.459851 C.2        1 MOL1        -0.2535
       2    H1      18.499471   14.866294   23.264695 H          1 MOL1         0.0845
       3    H2      19.040027   16.160456   24.487290 H          1 MOL1         0.0845
       4    C2      18.857264   16.794669   22.474149 C.2        1 MOL1        -0.1324
       5    H3      18.609119   16.509323   21.452059 H          1 MOL1         0.0833
       6    C3      19.258250   18.240030   22.668420 C.3        1 MOL1        -0.1813
       7    H4      19.237584   18.500305   23.735287 H          1 MOL1         0.0753
       8    H5      18.526007   18.886609   22.167711 H          1 MOL1         0.0753
       9    C4      20.670066   18.505314   22.099585 C.3        1 MOL1        -0.1855
      10    H6      21.370899   17.782077   22.538813 H          1 MOL1         0.0755
      11    H7      20.671183   18.317268   21.017044 H          1 MOL1         0.0755
      12    C5      21.193627   19.934541   22.384868 C.3        1 MOL1        -0.1855
      13    H8      22.226186   20.012749   22.017320 H          1 MOL1         0.0755
      14    H9      21.241129   20.092293   23.470808 H          1 MOL1         0.0755
      15    C6      20.348659   21.068295   21.742177 C.3        1 MOL1        -0.1958
      16    H10     19.329037   21.066671   22.143891 H          1 MOL1         0.0753
      17    H11     20.784025   22.039191   22.005850 H          1 MOL1         0.0753
      18    C7      20.274117   21.002990   20.219378 C.2        1 MOL1         0.6174
      19    O1      21.269639   21.291978   19.584691 O.co2      1 MOL1        -0.6695
      20    O2      19.219387   20.682905   19.707476 O.co2      1 MOL1        -0.6695
@<TRIPOS>BOND
    1     1     2    1
    2     1     3    1
    3     1     4    2
    4     4     5    1
    5     4     6    1
    6     6     7    1
    7     6     8    1
    8     6     9    1
    9     9    10    1
   10     9    11    1
   11     9    12    1
   12    12    13    1
   13    12    14    1
   14    12    15    1
   15    15    16    1
   16    15    17    1
   17    15    18    1
   18    18    19    1
   19    18    20    2
@<TRIPOS>SUBSTRUCTURE
       1 MOL1            1 RESIDUE      1      MOL     
@<SCITEGIC>MOL_PROPERTY
VConf Rank
SciTegic.value.IntegerValue
629

@<SCITEGIC>MOL_PROPERTY
Conf_Id
SciTegic.value.IntegerValue
84

@<SCITEGIC>MOL_PROPERTY
Delta U+W
SciTegic.value.DoubleValue
0.942

@<SCITEGIC>MOL_PROPERTY
U+W
SciTegic.value.DoubleValue
-50.803

@<SCITEGIC>MOL_PROPERTY
Grad RMS
SciTegic.value.DoubleValue
0.000000

@<SCITEGIC>MOL_PROPERTY
U
SciTegic.value.DoubleValue
10.196

@<SCITEGIC>MOL_PROPERTY
W
SciTegic.value.DoubleValue
-60.999

@<SCITEGIC>MOL_PROPERTY
W(PB)
SciTegic.value.DoubleValue
-63.182

@<SCITEGIC>MOL_PROPERTY
W(SA)
SciTegic.value.DoubleValue
2.182

@<SCITEGIC>MOL_PROPERTY
Valence
SciTegic.value.DoubleValue
9.837

@<SCITEGIC>MOL_PROPERTY
Coulomb
SciTegic.value.DoubleValue
0.032

@<SCITEGIC>MOL_PROPERTY
VdW
SciTegic.value.DoubleValue
0.328

@<SCITEGIC>MOL_PROPERTY
VdW6
SciTegic.value.DoubleValue
-7.642

@<SCITEGIC>MOL_PROPERTY
VdW12
SciTegic.value.DoubleValue
7.969

@<SCITEGIC>MOL_PROPERTY
Bond
SciTegic.value.DoubleValue
0.151

@<SCITEGIC>MOL_PROPERTY
Angle
SciTegic.value.DoubleValue
2.748

@<SCITEGIC>MOL_PROPERTY
Pdih
SciTegic.value.DoubleValue
6.937

@<SCITEGIC>MOL_PROPERTY
Idih
SciTegic.value.DoubleValue
0.001

@<SCITEGIC>MOL_PROPERTY
Tether
SciTegic.value.DoubleValue
0.000

@<TRIPOS>MOLECULE
guest-s22_confgen4.mol2 : confsearch ligand conformer 630
          20          19           1
SMALL
USER_CHARGES
 
@<TRIPOS>ATOM
       1    C1      20.613279   22.378183   20.964788 C.2        1 MOL1        -0.2535
       2    H1      20.564778   23.451103   21.142979 H          1 MOL1         0.0845
       3    H2      21.589269   21.951397   20.739225 H          1 MOL1         0.0845
       4    C2      19.516455   21.618492   21.024032 C.2        1 MOL1        -0.1324
       5    H3      18.549066   22.065381   21.252252 H          1 MOL1         0.0833
       6    C3      19.506128   20.124599   20.787722 C.3        1 MOL1        -0.1813
       7    H4      20.447960   19.807048   20.319852 H          1 MOL1         0.0753
       8    H5      18.702072   19.869635   20.084466 H          1 MOL1         0.0753
       9    C4      19.303214   19.352782   22.108399 C.3        1 MOL1        -0.1855
      10    H6      20.107247   19.617426   22.809236 H          1 MOL1         0.0755
      11    H7      18.359402   19.666879   22.574886 H          1 MOL1         0.0755
      12    C5      19.286805   17.823875   21.883657 C.3        1 MOL1        -0.1855
      13    H8      20.235311   17.504169   21.429964 H          1 MOL1         0.0755
      14    H9      18.492981   17.571422   21.167640 H          1 MOL1         0.0755
      15    C6      19.052015   17.030714   23.195393 C.3        1 MOL1        -0.1958
      16    H10     18.121470   17.358029   23.674773 H          1 MOL1         0.0753
      17    H11     18.932124   15.965933   22.963350 H          1 MOL1         0.0753
      18    C7      20.189355   17.152175   24.205640 C.2        1 MOL1         0.6174
      19    O1      20.020528   17.857522   25.180809 O.co2      1 MOL1        -0.6695
      20    O2      21.210115   16.526650   23.996179 O.co2      1 MOL1        -0.6695
@<TRIPOS>BOND
    1     1     2    1
    2     1     3    1
    3     1     4    2
    4     4     5    1
    5     4     6    1
    6     6     7    1
    7     6     8    1
    8     6     9    1
    9     9    10    1
   10     9    11    1
   11     9    12    1
   12    12    13    1
   13    12    14    1
   14    12    15    1
   15    15    16    1
   16    15    17    1
   17    15    18    1
   18    18    19    1
   19    18    20    2
@<TRIPOS>SUBSTRUCTURE
       1 MOL1            1 RESIDUE      1      MOL     
@<SCITEGIC>MOL_PROPERTY
VConf Rank
SciTegic.value.IntegerValue
630

@<SCITEGIC>MOL_PROPERTY
Conf_Id
SciTegic.value.IntegerValue
81

@<SCITEGIC>MOL_PROPERTY
Delta U+W
SciTegic.value.DoubleValue
-0.051

@<SCITEGIC>MOL_PROPERTY
U+W
SciTegic.value.DoubleValue
-51.796

@<SCITEGIC>MOL_PROPERTY
Grad RMS
SciTegic.value.DoubleValue
0.000000

@<SCITEGIC>MOL_PROPERTY
U
SciTegic.value.DoubleValue
9.412

@<SCITEGIC>MOL_PROPERTY
W
SciTegic.value.DoubleValue
-61.209

@<SCITEGIC>MOL_PROPERTY
W(PB)
SciTegic.value.DoubleValue
-63.452

@<SCITEGIC>MOL_PROPERTY
W(SA)
SciTegic.value.DoubleValue
2.243

@<SCITEGIC>MOL_PROPERTY
Valence
SciTegic.value.DoubleValue
9.329

@<SCITEGIC>MOL_PROPERTY
Coulomb
SciTegic.value.DoubleValue
-0.323

@<SCITEGIC>MOL_PROPERTY
VdW
SciTegic.value.DoubleValue
0.406

@<SCITEGIC>MOL_PROPERTY
VdW6
SciTegic.value.DoubleValue
-6.640

@<SCITEGIC>MOL_PROPERTY
VdW12
SciTegic.value.DoubleValue
7.046

@<SCITEGIC>MOL_PROPERTY
Bond
SciTegic.value.DoubleValue
0.105

@<SCITEGIC>MOL_PROPERTY
Angle
SciTegic.value.DoubleValue
2.401

@<SCITEGIC>MOL_PROPERTY
Pdih
SciTegic.value.DoubleValue
6.823

@<SCITEGIC>MOL_PROPERTY
Idih
SciTegic.value.DoubleValue
0.000

@<SCITEGIC>MOL_PROPERTY
Tether
SciTegic.value.DoubleValue
0.000

@<TRIPOS>MOLECULE
guest-s22_confgen4.mol2 : confsearch ligand conformer 631
          20          19           1
SMALL
USER_CHARGES
 
@<TRIPOS>ATOM
       1    C1      18.862011   18.458567   25.116736 C.2        1 MOL1        -0.2535
       2    H1      19.513441   19.060944   25.747798 H          1 MOL1         0.0845
       3    H2      17.978378   18.022945   25.579954 H          1 MOL1         0.0845
       4    C2      19.131367   18.261736   23.823529 C.2        1 MOL1        -0.1324
       5    H3      18.467544   17.653422   23.209920 H          1 MOL1         0.0833
       6    C3      20.341418   18.829792   23.113167 C.3        1 MOL1        -0.1813
       7    H4      20.806001   18.058599   22.485189 H          1 MOL1         0.0753
       8    H5      21.103941   19.114197   23.850655 H          1 MOL1         0.0753
       9    C4      19.996031   20.073537   22.259638 C.3        1 MOL1        -0.1855
      10    H6      19.614127   20.862131   22.922286 H          1 MOL1         0.0755
      11    H7      20.920395   20.469382   21.817110 H          1 MOL1         0.0755
      12    C5      18.958751   19.820474   21.135316 C.3        1 MOL1        -0.1855
      13    H8      18.767786   20.768101   20.613093 H          1 MOL1         0.0755
      14    H9      18.000860   19.521420   21.581082 H          1 MOL1         0.0755
      15    C6      19.389924   18.754784   20.091005 C.3        1 MOL1        -0.1958
      16    H10     19.516017   17.775971   20.567520 H          1 MOL1         0.0753
      17    H11     18.596092   18.636254   19.344420 H          1 MOL1         0.0753
      18    C7      20.672082   19.101870   19.339909 C.2        1 MOL1         0.6174
      19    O1      21.677179   18.466411   19.591022 O.co2      1 MOL1        -0.6695
      20    O2      20.626885   19.988502   18.509667 O.co2      1 MOL1        -0.6695
@<TRIPOS>BOND
    1     1     2    1
    2     1     3    1
    3     1     4    2
    4     4     5    1
    5     4     6    1
    6     6     7    1
    7     6     8    1
    8     6     9    1
    9     9    10    1
   10     9    11    1
   11     9    12    1
   12    12    13    1
   13    12    14    1
   14    12    15    1
   15    15    16    1
   16    15    17    1
   17    15    18    1
   18    18    19    1
   19    18    20    2
@<TRIPOS>SUBSTRUCTURE
       1 MOL1            1 RESIDUE      1      MOL     
@<SCITEGIC>MOL_PROPERTY
VConf Rank
SciTegic.value.IntegerValue
631

@<SCITEGIC>MOL_PROPERTY
Conf_Id
SciTegic.value.IntegerValue
86

@<SCITEGIC>MOL_PROPERTY
Delta U+W
SciTegic.value.DoubleValue
1.248

@<SCITEGIC>MOL_PROPERTY
U+W
SciTegic.value.DoubleValue
-50.498

@<SCITEGIC>MOL_PROPERTY
Grad RMS
SciTegic.value.DoubleValue
0.000000

@<SCITEGIC>MOL_PROPERTY
U
SciTegic.value.DoubleValue
10.404

@<SCITEGIC>MOL_PROPERTY
W
SciTegic.value.DoubleValue
-60.901

@<SCITEGIC>MOL_PROPERTY
W(PB)
SciTegic.value.DoubleValue
-63.061

@<SCITEGIC>MOL_PROPERTY
W(SA)
SciTegic.value.DoubleValue
2.159

@<SCITEGIC>MOL_PROPERTY
Valence
SciTegic.value.DoubleValue
10.021

@<SCITEGIC>MOL_PROPERTY
Coulomb
SciTegic.value.DoubleValue
0.094

@<SCITEGIC>MOL_PROPERTY
VdW
SciTegic.value.DoubleValue
0.289

@<SCITEGIC>MOL_PROPERTY
VdW6
SciTegic.value.DoubleValue
-8.409

@<SCITEGIC>MOL_PROPERTY
VdW12
SciTegic.value.DoubleValue
8.698

@<SCITEGIC>MOL_PROPERTY
Bond
SciTegic.value.DoubleValue
0.179

@<SCITEGIC>MOL_PROPERTY
Angle
SciTegic.value.DoubleValue
2.939

@<SCITEGIC>MOL_PROPERTY
Pdih
SciTegic.value.DoubleValue
6.902

@<SCITEGIC>MOL_PROPERTY
Idih
SciTegic.value.DoubleValue
0.001

@<SCITEGIC>MOL_PROPERTY
Tether
SciTegic.value.DoubleValue
0.000

@<TRIPOS>MOLECULE
guest-s22_confgen4.mol2 : confsearch ligand conformer 632
          20          19           1
SMALL
USER_CHARGES
 
@<TRIPOS>ATOM
       1    C1      21.683469   19.953377   19.679167 C.2        1 MOL1        -0.2535
       2    H1      22.628253   20.477585   19.546152 H          1 MOL1         0.0845
       3    H2      21.609740   18.943658   19.278601 H          1 MOL1         0.0845
       4    C2      20.658100   20.528697   20.312927 C.2        1 MOL1        -0.1324
       5    H3      20.753294   21.539586   20.708441 H          1 MOL1         0.0833
       6    C3      19.316482   19.863690   20.536262 C.3        1 MOL1        -0.1813
       7    H4      19.236201   18.944476   19.940224 H          1 MOL1         0.0753
       8    H5      18.521255   20.532890   20.181854 H          1 MOL1         0.0753
       9    C4      19.064806   19.536115   22.025361 C.3        1 MOL1        -0.1855
      10    H6      19.148780   20.454282   22.622721 H          1 MOL1         0.0755
      11    H7      18.030722   19.182765   22.138608 H          1 MOL1         0.0755
      12    C5      20.036309   18.463872   22.573153 C.3        1 MOL1        -0.1855
      13    H8      21.070167   18.818703   22.466842 H          1 MOL1         0.0755
      14    H9      19.954782   17.547019   21.973082 H          1 MOL1         0.0755
      15    C6      19.774672   18.127879   24.064356 C.3        1 MOL1        -0.1958
      16    H10     20.562076   17.459881   24.432752 H          1 MOL1         0.0753
      17    H11     19.821787   19.039730   24.671880 H          1 MOL1         0.0753
      18    C7      18.436545   17.440317   24.320092 C.2        1 MOL1         0.6174
      19    O1      18.334092   16.263188   24.035492 O.co2      1 MOL1        -0.6695
      20    O2      17.536173   18.095449   24.807145 O.co2      1 MOL1        -0.6695
@<TRIPOS>BOND
    1     1     2    1
    2     1     3    1
    3     1     4    2
    4     4     5    1
    5     4     6    1
    6     6     7    1
    7     6     8    1
    8     6     9    1
    9     9    10    1
   10     9    11    1
   11     9    12    1
   12    12    13    1
   13    12    14    1
   14    12    15    1
   15    15    16    1
   16    15    17    1
   17    15    18    1
   18    18    19    1
   19    18    20    2
@<TRIPOS>SUBSTRUCTURE
       1 MOL1            1 RESIDUE      1      MOL     
@<SCITEGIC>MOL_PROPERTY
VConf Rank
SciTegic.value.IntegerValue
632

@<SCITEGIC>MOL_PROPERTY
Conf_Id
SciTegic.value.IntegerValue
28

@<SCITEGIC>MOL_PROPERTY
Delta U+W
SciTegic.value.DoubleValue
0.446

@<SCITEGIC>MOL_PROPERTY
U+W
SciTegic.value.DoubleValue
-51.299

@<SCITEGIC>MOL_PROPERTY
Grad RMS
SciTegic.value.DoubleValue
0.000000

@<SCITEGIC>MOL_PROPERTY
U
SciTegic.value.DoubleValue
9.295

@<SCITEGIC>MOL_PROPERTY
W
SciTegic.value.DoubleValue
-60.594

@<SCITEGIC>MOL_PROPERTY
W(PB)
SciTegic.value.DoubleValue
-62.806

@<SCITEGIC>MOL_PROPERTY
W(SA)
SciTegic.value.DoubleValue
2.212

@<SCITEGIC>MOL_PROPERTY
Valence
SciTegic.value.DoubleValue
9.495

@<SCITEGIC>MOL_PROPERTY
Coulomb
SciTegic.value.DoubleValue
-0.610

@<SCITEGIC>MOL_PROPERTY
VdW
SciTegic.value.DoubleValue
0.409

@<SCITEGIC>MOL_PROPERTY
VdW6
SciTegic.value.DoubleValue
-7.332

@<SCITEGIC>MOL_PROPERTY
VdW12
SciTegic.value.DoubleValue
7.741

@<SCITEGIC>MOL_PROPERTY
Bond
SciTegic.value.DoubleValue
0.126

@<SCITEGIC>MOL_PROPERTY
Angle
SciTegic.value.DoubleValue
2.497

@<SCITEGIC>MOL_PROPERTY
Pdih
SciTegic.value.DoubleValue
6.872

@<SCITEGIC>MOL_PROPERTY
Idih
SciTegic.value.DoubleValue
0.000

@<SCITEGIC>MOL_PROPERTY
Tether
SciTegic.value.DoubleValue
0.000

@<TRIPOS>MOLECULE
guest-s22_confgen4.mol2 : confsearch ligand conformer 633
          20          19           1
SMALL
USER_CHARGES
 
@<TRIPOS>ATOM
       1    C1      21.594968   21.808394   22.486024 C.2        1 MOL1        -0.2535
       2    H1      20.911740   21.991408   21.659465 H          1 MOL1         0.0845
       3    H2      22.194823   22.651839   22.823536 H          1 MOL1         0.0845
       4    C2      21.704775   20.612443   23.075615 C.2        1 MOL1        -0.1324
       5    H3      22.405629   20.491233   23.901237 H          1 MOL1         0.0833
       6    C3      20.940747   19.348607   22.717237 C.3        1 MOL1        -0.1813
       7    H4      20.341796   19.048005   23.586464 H          1 MOL1         0.0753
       8    H5      21.661853   18.536564   22.554924 H          1 MOL1         0.0753
       9    C4      20.028163   19.468041   21.471634 C.3        1 MOL1        -0.1855
      10    H6      19.246156   20.217112   21.657460 H          1 MOL1         0.0755
      11    H7      20.623712   19.838118   20.626023 H          1 MOL1         0.0755
      12    C5      19.375447   18.127092   21.053451 C.3        1 MOL1        -0.1855
      13    H8      20.163384   17.398081   20.820885 H          1 MOL1         0.0755
      14    H9      18.816118   18.282673   20.120523 H          1 MOL1         0.0755
      15    C6      18.416032   17.519141   22.112968 C.3        1 MOL1        -0.1958
      16    H10     18.013146   16.571972   21.735859 H          1 MOL1         0.0753
      17    H11     18.958214   17.279682   23.034703 H          1 MOL1         0.0753
      18    C7      17.227011   18.409784   22.462093 C.2        1 MOL1         0.6174
      19    O1      16.357091   18.557241   21.626062 O.co2      1 MOL1        -0.6695
      20    O2      17.190900   18.915314   23.566626 O.co2      1 MOL1        -0.6695
@<TRIPOS>BOND
    1     1     2    1
    2     1     3    1
    3     1     4    2
    4     4     5    1
    5     4     6    1
    6     6     7    1
    7     6     8    1
    8     6     9    1
    9     9    10    1
   10     9    11    1
   11     9    12    1
   12    12    13    1
   13    12    14    1
   14    12    15    1
   15    15    16    1
   16    15    17    1
   17    15    18    1
   18    18    19    1
   19    18    20    2
@<TRIPOS>SUBSTRUCTURE
       1 MOL1            1 RESIDUE      1      MOL     
@<SCITEGIC>MOL_PROPERTY
VConf Rank
SciTegic.value.IntegerValue
633

@<SCITEGIC>MOL_PROPERTY
Conf_Id
SciTegic.value.IntegerValue
53

@<SCITEGIC>MOL_PROPERTY
Delta U+W
SciTegic.value.DoubleValue
0.549

@<SCITEGIC>MOL_PROPERTY
U+W
SciTegic.value.DoubleValue
-51.197

@<SCITEGIC>MOL_PROPERTY
Grad RMS
SciTegic.value.DoubleValue
0.000000

@<SCITEGIC>MOL_PROPERTY
U
SciTegic.value.DoubleValue
10.870

@<SCITEGIC>MOL_PROPERTY
W
SciTegic.value.DoubleValue
-62.067

@<SCITEGIC>MOL_PROPERTY
W(PB)
SciTegic.value.DoubleValue
-64.228

@<SCITEGIC>MOL_PROPERTY
W(SA)
SciTegic.value.DoubleValue
2.161

@<SCITEGIC>MOL_PROPERTY
Valence
SciTegic.value.DoubleValue
8.803

@<SCITEGIC>MOL_PROPERTY
Coulomb
SciTegic.value.DoubleValue
1.020

@<SCITEGIC>MOL_PROPERTY
VdW
SciTegic.value.DoubleValue
1.048

@<SCITEGIC>MOL_PROPERTY
VdW6
SciTegic.value.DoubleValue
-8.312

@<SCITEGIC>MOL_PROPERTY
VdW12
SciTegic.value.DoubleValue
9.360

@<SCITEGIC>MOL_PROPERTY
Bond
SciTegic.value.DoubleValue
0.212

@<SCITEGIC>MOL_PROPERTY
Angle
SciTegic.value.DoubleValue
3.379

@<SCITEGIC>MOL_PROPERTY
Pdih
SciTegic.value.DoubleValue
5.211

@<SCITEGIC>MOL_PROPERTY
Idih
SciTegic.value.DoubleValue
0.001

@<SCITEGIC>MOL_PROPERTY
Tether
SciTegic.value.DoubleValue
0.000

@<TRIPOS>MOLECULE
guest-s22_confgen4.mol2 : confsearch ligand conformer 634
          20          19           1
SMALL
USER_CHARGES
 
@<TRIPOS>ATOM
       1    C1      22.012084   17.417554   21.430109 C.2        1 MOL1        -0.2535
       2    H1      22.454664   18.371732   21.707536 H          1 MOL1         0.0845
       3    H2      22.558477   16.809812   20.711062 H          1 MOL1         0.0845
       4    C2      20.852986   16.993655   21.945334 C.2        1 MOL1        -0.1324
       5    H3      20.454718   16.027857   21.635625 H          1 MOL1         0.0833
       6    C3      19.985999   17.737252   22.947974 C.3        1 MOL1        -0.1813
       7    H4      20.188486   17.339770   23.951173 H          1 MOL1         0.0753
       8    H5      18.932616   17.493983   22.758807 H          1 MOL1         0.0753
       9    C4      20.146099   19.279881   22.968898 C.3        1 MOL1        -0.1855
      10    H6      19.525292   19.684605   23.779846 H          1 MOL1         0.0755
      11    H7      21.180257   19.535965   23.233967 H          1 MOL1         0.0755
      12    C5      19.765409   19.990938   21.643633 C.3        1 MOL1        -0.1855
      13    H8      20.427595   19.649386   20.837775 H          1 MOL1         0.0755
      14    H9      19.953017   21.067600   21.755970 H          1 MOL1         0.0755
      15    C6      18.289893   19.786888   21.203706 C.3        1 MOL1        -0.1958
      16    H10     18.115955   20.318495   20.260994 H          1 MOL1         0.0753
      17    H11     18.090190   18.728174   21.003093 H          1 MOL1         0.0753
      18    C7      17.262258   20.297537   22.209505 C.2        1 MOL1         0.6174
      19    O1      16.614329   19.482196   22.836054 O.co2      1 MOL1        -0.6695
      20    O2      17.124242   21.499509   22.326649 O.co2      1 MOL1        -0.6695
@<TRIPOS>BOND
    1     1     2    1
    2     1     3    1
    3     1     4    2
    4     4     5    1
    5     4     6    1
    6     6     7    1
    7     6     8    1
    8     6     9    1
    9     9    10    1
   10     9    11    1
   11     9    12    1
   12    12    13    1
   13    12    14    1
   14    12    15    1
   15    15    16    1
   16    15    17    1
   17    15    18    1
   18    18    19    1
   19    18    20    2
@<TRIPOS>SUBSTRUCTURE
       1 MOL1            1 RESIDUE      1      MOL     
@<SCITEGIC>MOL_PROPERTY
VConf Rank
SciTegic.value.IntegerValue
634

@<SCITEGIC>MOL_PROPERTY
Conf_Id
SciTegic.value.IntegerValue
66

@<SCITEGIC>MOL_PROPERTY
Delta U+W
SciTegic.value.DoubleValue
1.737

@<SCITEGIC>MOL_PROPERTY
U+W
SciTegic.value.DoubleValue
-50.008

@<SCITEGIC>MOL_PROPERTY
Grad RMS
SciTegic.value.DoubleValue
0.000000

@<SCITEGIC>MOL_PROPERTY
U
SciTegic.value.DoubleValue
11.091

@<SCITEGIC>MOL_PROPERTY
W
SciTegic.value.DoubleValue
-61.099

@<SCITEGIC>MOL_PROPERTY
W(PB)
SciTegic.value.DoubleValue
-63.213

@<SCITEGIC>MOL_PROPERTY
W(SA)
SciTegic.value.DoubleValue
2.114

@<SCITEGIC>MOL_PROPERTY
Valence
SciTegic.value.DoubleValue
9.664

@<SCITEGIC>MOL_PROPERTY
Coulomb
SciTegic.value.DoubleValue
0.658

@<SCITEGIC>MOL_PROPERTY
VdW
SciTegic.value.DoubleValue
0.769

@<SCITEGIC>MOL_PROPERTY
VdW6
SciTegic.value.DoubleValue
-9.171

@<SCITEGIC>MOL_PROPERTY
VdW12
SciTegic.value.DoubleValue
9.940

@<SCITEGIC>MOL_PROPERTY
Bond
SciTegic.value.DoubleValue
0.244

@<SCITEGIC>MOL_PROPERTY
Angle
SciTegic.value.DoubleValue
3.658

@<SCITEGIC>MOL_PROPERTY
Pdih
SciTegic.value.DoubleValue
5.762

@<SCITEGIC>MOL_PROPERTY
Idih
SciTegic.value.DoubleValue
0.001

@<SCITEGIC>MOL_PROPERTY
Tether
SciTegic.value.DoubleValue
0.000

@<TRIPOS>MOLECULE
guest-s22_confgen4.mol2 : confsearch ligand conformer 635
          20          19           1
SMALL
USER_CHARGES
 
@<TRIPOS>ATOM
       1    C1      19.671156   18.090443   24.506642 C.2        1 MOL1        -0.2535
       2    H1      20.710031   18.004898   24.195832 H          1 MOL1         0.0845
       3    H2      19.487000   18.334990   25.551257 H          1 MOL1         0.0845
       4    C2      18.654908   17.901186   23.657936 C.2        1 MOL1        -0.1324
       5    H3      17.632910   17.996880   24.023592 H          1 MOL1         0.0833
       6    C3      18.761785   17.562468   22.179949 C.3        1 MOL1        -0.1813
       7    H4      17.933445   18.043102   21.644697 H          1 MOL1         0.0753
       8    H5      18.589239   16.485422   22.054318 H          1 MOL1         0.0753
       9    C4      20.097225   17.947070   21.490749 C.3        1 MOL1        -0.1855
      10    H6      20.926383   17.423750   21.984841 H          1 MOL1         0.0755
      11    H7      20.082008   17.569843   20.459198 H          1 MOL1         0.0755
      12    C5      20.395304   19.467867   21.458698 C.3        1 MOL1        -0.1855
      13    H8      21.395283   19.619231   21.029383 H          1 MOL1         0.0755
      14    H9      20.435945   19.868576   22.480157 H          1 MOL1         0.0755
      15    C6      19.369937   20.283082   20.628659 C.3        1 MOL1        -0.1958
      16    H10     19.279859   19.863836   19.619566 H          1 MOL1         0.0753
      17    H11     18.377602   20.237633   21.091313 H          1 MOL1         0.0753
      18    C7      19.753617   21.752621   20.496412 C.2        1 MOL1         0.6174
      19    O1      19.331451   22.534141   21.325721 O.co2      1 MOL1        -0.6695
      20    O2      20.477011   22.075338   19.574735 O.co2      1 MOL1        -0.6695
@<TRIPOS>BOND
    1     1     2    1
    2     1     3    1
    3     1     4    2
    4     4     5    1
    5     4     6    1
    6     6     7    1
    7     6     8    1
    8     6     9    1
    9     9    10    1
   10     9    11    1
   11     9    12    1
   12    12    13    1
   13    12    14    1
   14    12    15    1
   15    15    16    1
   16    15    17    1
   17    15    18    1
   18    18    19    1
   19    18    20    2
@<TRIPOS>SUBSTRUCTURE
       1 MOL1            1 RESIDUE      1      MOL     
@<SCITEGIC>MOL_PROPERTY
VConf Rank
SciTegic.value.IntegerValue
635

@<SCITEGIC>MOL_PROPERTY
Conf_Id
SciTegic.value.IntegerValue
64

@<SCITEGIC>MOL_PROPERTY
Delta U+W
SciTegic.value.DoubleValue
0.366

@<SCITEGIC>MOL_PROPERTY
U+W
SciTegic.value.DoubleValue
-51.379

@<SCITEGIC>MOL_PROPERTY
Grad RMS
SciTegic.value.DoubleValue
0.000000

@<SCITEGIC>MOL_PROPERTY
U
SciTegic.value.DoubleValue
10.000

@<SCITEGIC>MOL_PROPERTY
W
SciTegic.value.DoubleValue
-61.379

@<SCITEGIC>MOL_PROPERTY
W(PB)
SciTegic.value.DoubleValue
-63.541

@<SCITEGIC>MOL_PROPERTY
W(SA)
SciTegic.value.DoubleValue
2.162

@<SCITEGIC>MOL_PROPERTY
Valence
SciTegic.value.DoubleValue
9.398

@<SCITEGIC>MOL_PROPERTY
Coulomb
SciTegic.value.DoubleValue
-0.504

@<SCITEGIC>MOL_PROPERTY
VdW
SciTegic.value.DoubleValue
1.105

@<SCITEGIC>MOL_PROPERTY
VdW6
SciTegic.value.DoubleValue
-7.975

@<SCITEGIC>MOL_PROPERTY
VdW12
SciTegic.value.DoubleValue
9.080

@<SCITEGIC>MOL_PROPERTY
Bond
SciTegic.value.DoubleValue
0.216

@<SCITEGIC>MOL_PROPERTY
Angle
SciTegic.value.DoubleValue
3.417

@<SCITEGIC>MOL_PROPERTY
Pdih
SciTegic.value.DoubleValue
5.765

@<SCITEGIC>MOL_PROPERTY
Idih
SciTegic.value.DoubleValue
0.001

@<SCITEGIC>MOL_PROPERTY
Tether
SciTegic.value.DoubleValue
0.000

@<TRIPOS>MOLECULE
guest-s22_confgen4.mol2 : confsearch ligand conformer 636
          20          19           1
SMALL
USER_CHARGES
 
@<TRIPOS>ATOM
       1    C1      18.691173   16.407433   21.598352 C.2        1 MOL1        -0.2535
       2    H1      19.671920   16.048726   21.290320 H          1 MOL1         0.0845
       3    H2      17.827785   16.044583   21.043370 H          1 MOL1         0.0845
       4    C2      18.548980   17.262593   22.614469 C.2        1 MOL1        -0.1324
       5    H3      17.558439   17.611380   22.905276 H          1 MOL1         0.0833
       6    C3      19.700118   17.810500   23.430961 C.3        1 MOL1        -0.1813
       7    H4      20.625740   17.261194   23.211505 H          1 MOL1         0.0753
       8    H5      19.491222   17.651574   24.497239 H          1 MOL1         0.0753
       9    C4      19.925557   19.319621   23.186680 C.3        1 MOL1        -0.1855
      10    H6      18.999524   19.868841   23.405548 H          1 MOL1         0.0755
      11    H7      20.682397   19.684301   23.894553 H          1 MOL1         0.0755
      12    C5      20.388714   19.627630   21.744390 C.3        1 MOL1        -0.1855
      13    H8      19.627257   19.291473   21.027166 H          1 MOL1         0.0755
      14    H9      21.305388   19.064182   21.521850 H          1 MOL1         0.0755
      15    C6      20.652506   21.138999   21.534159 C.3        1 MOL1        -0.1958
      16    H10     19.741961   21.714202   21.740648 H          1 MOL1         0.0753
      17    H11     21.423070   21.489773   22.231062 H          1 MOL1         0.0753
      18    C7      21.110499   21.468441   20.117894 C.2        1 MOL1         0.6174
      19    O1      22.300546   21.425866   19.875562 O.co2      1 MOL1        -0.6695
      20    O2      20.264329   21.745303   19.290831 O.co2      1 MOL1        -0.6695
@<TRIPOS>BOND
    1     1     2    1
    2     1     3    1
    3     1     4    2
    4     4     5    1
    5     4     6    1
    6     6     7    1
    7     6     8    1
    8     6     9    1
    9     9    10    1
   10     9    11    1
   11     9    12    1
   12    12    13    1
   13    12    14    1
   14    12    15    1
   15    15    16    1
   16    15    17    1
   17    15    18    1
   18    18    19    1
   19    18    20    2
@<TRIPOS>SUBSTRUCTURE
       1 MOL1            1 RESIDUE      1      MOL     
@<SCITEGIC>MOL_PROPERTY
VConf Rank
SciTegic.value.IntegerValue
636

@<SCITEGIC>MOL_PROPERTY
Conf_Id
SciTegic.value.IntegerValue
42

@<SCITEGIC>MOL_PROPERTY
Delta U+W
SciTegic.value.DoubleValue
-0.601

@<SCITEGIC>MOL_PROPERTY
U+W
SciTegic.value.DoubleValue
-52.347

@<SCITEGIC>MOL_PROPERTY
Grad RMS
SciTegic.value.DoubleValue
0.000000

@<SCITEGIC>MOL_PROPERTY
U
SciTegic.value.DoubleValue
8.428

@<SCITEGIC>MOL_PROPERTY
W
SciTegic.value.DoubleValue
-60.774

@<SCITEGIC>MOL_PROPERTY
W(PB)
SciTegic.value.DoubleValue
-62.982

@<SCITEGIC>MOL_PROPERTY
W(SA)
SciTegic.value.DoubleValue
2.208

@<SCITEGIC>MOL_PROPERTY
Valence
SciTegic.value.DoubleValue
9.231

@<SCITEGIC>MOL_PROPERTY
Coulomb
SciTegic.value.DoubleValue
-1.304

@<SCITEGIC>MOL_PROPERTY
VdW
SciTegic.value.DoubleValue
0.501

@<SCITEGIC>MOL_PROPERTY
VdW6
SciTegic.value.DoubleValue
-6.515

@<SCITEGIC>MOL_PROPERTY
VdW12
SciTegic.value.DoubleValue
7.016

@<SCITEGIC>MOL_PROPERTY
Bond
SciTegic.value.DoubleValue
0.103

@<SCITEGIC>MOL_PROPERTY
Angle
SciTegic.value.DoubleValue
2.328

@<SCITEGIC>MOL_PROPERTY
Pdih
SciTegic.value.DoubleValue
6.799

@<SCITEGIC>MOL_PROPERTY
Idih
SciTegic.value.DoubleValue
0.000

@<SCITEGIC>MOL_PROPERTY
Tether
SciTegic.value.DoubleValue
0.000

@<TRIPOS>MOLECULE
guest-s22_confgen4.mol2 : confsearch ligand conformer 637
          20          19           1
SMALL
USER_CHARGES
 
@<TRIPOS>ATOM
       1    C1      20.894973   18.702454   19.359711 C.2        1 MOL1        -0.2535
       2    H1      20.235922   17.863144   19.143825 H          1 MOL1         0.0845
       3    H2      21.927211   18.628964   19.021807 H          1 MOL1         0.0845
       4    C2      20.458922   19.780428   20.016867 C.2        1 MOL1        -0.1324
       5    H3      21.135709   20.608597   20.225439 H          1 MOL1         0.0833
       6    C3      19.040996   19.953696   20.518236 C.3        1 MOL1        -0.1813
       7    H4      18.385799   19.176650   20.101672 H          1 MOL1         0.0753
       8    H5      18.648522   20.914584   20.159811 H          1 MOL1         0.0753
       9    C4      18.958269   19.926253   22.061078 C.3        1 MOL1        -0.1855
      10    H6      19.609103   20.708630   22.475370 H          1 MOL1         0.0755
      11    H7      17.933497   20.177673   22.366643 H          1 MOL1         0.0755
      12    C5      19.342895   18.550514   22.654943 C.3        1 MOL1        -0.1855
      13    H8      20.381123   18.305102   22.391868 H          1 MOL1         0.0755
      14    H9      18.711570   17.772832   22.204531 H          1 MOL1         0.0755
      15    C6      19.181856   18.500817   24.196507 C.3        1 MOL1        -0.1958
      16    H10     18.156200   18.766630   24.479525 H          1 MOL1         0.0753
      17    H11     19.353501   17.477245   24.549819 H          1 MOL1         0.0753
      18    C7      20.146400   19.412323   24.949913 C.2        1 MOL1         0.6174
      19    O1      19.718941   20.457875   25.398539 O.co2      1 MOL1        -0.6695
      20    O2      21.296561   19.043140   25.083813 O.co2      1 MOL1        -0.6695
@<TRIPOS>BOND
    1     1     2    1
    2     1     3    1
    3     1     4    2
    4     4     5    1
    5     4     6    1
    6     6     7    1
    7     6     8    1
    8     6     9    1
    9     9    10    1
   10     9    11    1
   11     9    12    1
   12    12    13    1
   13    12    14    1
   14    12    15    1
   15    15    16    1
   16    15    17    1
   17    15    18    1
   18    18    19    1
   19    18    20    2
@<TRIPOS>SUBSTRUCTURE
       1 MOL1            1 RESIDUE      1      MOL     
@<SCITEGIC>MOL_PROPERTY
VConf Rank
SciTegic.value.IntegerValue
637

@<SCITEGIC>MOL_PROPERTY
Conf_Id
SciTegic.value.IntegerValue
68

@<SCITEGIC>MOL_PROPERTY
Delta U+W
SciTegic.value.DoubleValue
0.492

@<SCITEGIC>MOL_PROPERTY
U+W
SciTegic.value.DoubleValue
-51.253

@<SCITEGIC>MOL_PROPERTY
Grad RMS
SciTegic.value.DoubleValue
0.000000

@<SCITEGIC>MOL_PROPERTY
U
SciTegic.value.DoubleValue
10.179

@<SCITEGIC>MOL_PROPERTY
W
SciTegic.value.DoubleValue
-61.432

@<SCITEGIC>MOL_PROPERTY
W(PB)
SciTegic.value.DoubleValue
-63.627

@<SCITEGIC>MOL_PROPERTY
W(SA)
SciTegic.value.DoubleValue
2.195

@<SCITEGIC>MOL_PROPERTY
Valence
SciTegic.value.DoubleValue
9.483

@<SCITEGIC>MOL_PROPERTY
Coulomb
SciTegic.value.DoubleValue
0.361

@<SCITEGIC>MOL_PROPERTY
VdW
SciTegic.value.DoubleValue
0.335

@<SCITEGIC>MOL_PROPERTY
VdW6
SciTegic.value.DoubleValue
-7.385

@<SCITEGIC>MOL_PROPERTY
VdW12
SciTegic.value.DoubleValue
7.720

@<SCITEGIC>MOL_PROPERTY
Bond
SciTegic.value.DoubleValue
0.125

@<SCITEGIC>MOL_PROPERTY
Angle
SciTegic.value.DoubleValue
2.487

@<SCITEGIC>MOL_PROPERTY
Pdih
SciTegic.value.DoubleValue
6.870

@<SCITEGIC>MOL_PROPERTY
Idih
SciTegic.value.DoubleValue
0.001

@<SCITEGIC>MOL_PROPERTY
Tether
SciTegic.value.DoubleValue
0.000

@<TRIPOS>MOLECULE
guest-s22_confgen4.mol2 : confsearch ligand conformer 638
          20          19           1
SMALL
USER_CHARGES
 
@<TRIPOS>ATOM
       1    C1      21.177328   21.216286   20.085043 C.2        1 MOL1        -0.2535
       2    H1      22.190063   21.232406   20.484541 H          1 MOL1         0.0845
       3    H2      20.815376   22.121365   19.600275 H          1 MOL1         0.0845
       4    C2      20.404673   20.131692   20.186807 C.2        1 MOL1        -0.1324
       5    H3      19.394852   20.136162   19.777557 H          1 MOL1         0.0833
       6    C3      20.841518   18.838180   20.840851 C.3        1 MOL1        -0.1813
       7    H4      21.937769   18.805457   20.901538 H          1 MOL1         0.0753
       8    H5      20.542667   17.984526   20.217987 H          1 MOL1         0.0753
       9    C4      20.261934   18.673863   22.263969 C.3        1 MOL1        -0.1855
      10    H6      20.715690   17.789298   22.731297 H          1 MOL1         0.0755
      11    H7      20.555326   19.536962   22.877630 H          1 MOL1         0.0755
      12    C5      18.722567   18.518915   22.272301 C.3        1 MOL1        -0.1855
      13    H8      18.438744   17.684569   21.616845 H          1 MOL1         0.0755
      14    H9      18.251211   19.421073   21.859081 H          1 MOL1         0.0755
      15    C6      18.158817   18.256980   23.693016 C.3        1 MOL1        -0.1958
      16    H10     17.086129   18.040147   23.627208 H          1 MOL1         0.0753
      17    H11     18.635011   17.372474   24.133074 H          1 MOL1         0.0753
      18    C7      18.329746   19.430414   24.653575 C.2        1 MOL1         0.6174
      19    O1      17.569111   20.372363   24.547397 O.co2      1 MOL1        -0.6695
      20    O2      19.204942   19.363661   25.494229 O.co2      1 MOL1        -0.6695
@<TRIPOS>BOND
    1     1     2    1
    2     1     3    1
    3     1     4    2
    4     4     5    1
    5     4     6    1
    6     6     7    1
    7     6     8    1
    8     6     9    1
    9     9    10    1
   10     9    11    1
   11     9    12    1
   12    12    13    1
   13    12    14    1
   14    12    15    1
   15    15    16    1
   16    15    17    1
   17    15    18    1
   18    18    19    1
   19    18    20    2
@<TRIPOS>SUBSTRUCTURE
       1 MOL1            1 RESIDUE      1      MOL     
@<SCITEGIC>MOL_PROPERTY
VConf Rank
SciTegic.value.IntegerValue
638

@<SCITEGIC>MOL_PROPERTY
Conf_Id
SciTegic.value.IntegerValue
87

@<SCITEGIC>MOL_PROPERTY
Delta U+W
SciTegic.value.DoubleValue
0.339

@<SCITEGIC>MOL_PROPERTY
U+W
SciTegic.value.DoubleValue
-51.407

@<SCITEGIC>MOL_PROPERTY
Grad RMS
SciTegic.value.DoubleValue
0.000000

@<SCITEGIC>MOL_PROPERTY
U
SciTegic.value.DoubleValue
10.461

@<SCITEGIC>MOL_PROPERTY
W
SciTegic.value.DoubleValue
-61.867

@<SCITEGIC>MOL_PROPERTY
W(PB)
SciTegic.value.DoubleValue
-64.045

@<SCITEGIC>MOL_PROPERTY
W(SA)
SciTegic.value.DoubleValue
2.178

@<SCITEGIC>MOL_PROPERTY
Valence
SciTegic.value.DoubleValue
9.555

@<SCITEGIC>MOL_PROPERTY
Coulomb
SciTegic.value.DoubleValue
0.483

@<SCITEGIC>MOL_PROPERTY
VdW
SciTegic.value.DoubleValue
0.423

@<SCITEGIC>MOL_PROPERTY
VdW6
SciTegic.value.DoubleValue
-7.223

@<SCITEGIC>MOL_PROPERTY
VdW12
SciTegic.value.DoubleValue
7.646

@<SCITEGIC>MOL_PROPERTY
Bond
SciTegic.value.DoubleValue
0.126

@<SCITEGIC>MOL_PROPERTY
Angle
SciTegic.value.DoubleValue
2.492

@<SCITEGIC>MOL_PROPERTY
Pdih
SciTegic.value.DoubleValue
6.936

@<SCITEGIC>MOL_PROPERTY
Idih
SciTegic.value.DoubleValue
0.001

@<SCITEGIC>MOL_PROPERTY
Tether
SciTegic.value.DoubleValue
0.000

@<TRIPOS>MOLECULE
guest-s22_confgen4.mol2 : confsearch ligand conformer 639
          20          19           1
SMALL
USER_CHARGES
 
@<TRIPOS>ATOM
       1    C1      17.623594   17.394901   20.593751 C.2        1 MOL1        -0.2535
       2    H1      16.749336   17.485073   21.236369 H          1 MOL1         0.0845
       3    H2      17.455538   17.362938   19.518690 H          1 MOL1         0.0845
       4    C2      18.856560   17.328297   21.102742 C.2        1 MOL1        -0.1324
       5    H3      19.718325   17.229153   20.443711 H          1 MOL1         0.0833
       6    C3      19.162227   17.354235   22.585139 C.3        1 MOL1        -0.1813
       7    H4      20.164008   16.946045   22.774221 H          1 MOL1         0.0753
       8    H5      18.463785   16.677860   23.096120 H          1 MOL1         0.0753
       9    C4      19.034780   18.761598   23.219373 C.3        1 MOL1        -0.1855
      10    H6      18.110550   19.246176   22.875980 H          1 MOL1         0.0755
      11    H7      18.922069   18.633255   24.304527 H          1 MOL1         0.0755
      12    C5      20.246696   19.697153   22.980425 C.3        1 MOL1        -0.1855
      13    H8      21.170599   19.203794   23.312149 H          1 MOL1         0.0755
      14    H9      20.127043   20.585021   23.616713 H          1 MOL1         0.0755
      15    C6      20.408570   20.167660   21.512201 C.3        1 MOL1        -0.1958
      16    H10     20.677975   19.326325   20.865937 H          1 MOL1         0.0753
      17    H11     19.462927   20.578073   21.138509 H          1 MOL1         0.0753
      18    C7      21.485685   21.234007   21.349858 C.2        1 MOL1         0.6174
      19    O1      22.628497   20.870496   21.153056 O.co2      1 MOL1        -0.6695
      20    O2      21.157589   22.400249   21.445327 O.co2      1 MOL1        -0.6695
@<TRIPOS>BOND
    1     1     2    1
    2     1     3    1
    3     1     4    2
    4     4     5    1
    5     4     6    1
    6     6     7    1
    7     6     8    1
    8     6     9    1
    9     9    10    1
   10     9    11    1
   11     9    12    1
   12    12    13    1
   13    12    14    1
   14    12    15    1
   15    15    16    1
   16    15    17    1
   17    15    18    1
   18    18    19    1
   19    18    20    2
@<TRIPOS>SUBSTRUCTURE
       1 MOL1            1 RESIDUE      1      MOL     
@<SCITEGIC>MOL_PROPERTY
VConf Rank
SciTegic.value.IntegerValue
639

@<SCITEGIC>MOL_PROPERTY
Conf_Id
SciTegic.value.IntegerValue
51

@<SCITEGIC>MOL_PROPERTY
Delta U+W
SciTegic.value.DoubleValue
1.709

@<SCITEGIC>MOL_PROPERTY
U+W
SciTegic.value.DoubleValue
-50.036

@<SCITEGIC>MOL_PROPERTY
Grad RMS
SciTegic.value.DoubleValue
0.000000

@<SCITEGIC>MOL_PROPERTY
U
SciTegic.value.DoubleValue
10.643

@<SCITEGIC>MOL_PROPERTY
W
SciTegic.value.DoubleValue
-60.679

@<SCITEGIC>MOL_PROPERTY
W(PB)
SciTegic.value.DoubleValue
-62.882

@<SCITEGIC>MOL_PROPERTY
W(SA)
SciTegic.value.DoubleValue
2.203

@<SCITEGIC>MOL_PROPERTY
Valence
SciTegic.value.DoubleValue
11.231

@<SCITEGIC>MOL_PROPERTY
Coulomb
SciTegic.value.DoubleValue
-1.077

@<SCITEGIC>MOL_PROPERTY
VdW
SciTegic.value.DoubleValue
0.489

@<SCITEGIC>MOL_PROPERTY
VdW6
SciTegic.value.DoubleValue
-7.546

@<SCITEGIC>MOL_PROPERTY
VdW12
SciTegic.value.DoubleValue
8.035

@<SCITEGIC>MOL_PROPERTY
Bond
SciTegic.value.DoubleValue
0.159

@<SCITEGIC>MOL_PROPERTY
Angle
SciTegic.value.DoubleValue
3.005

@<SCITEGIC>MOL_PROPERTY
Pdih
SciTegic.value.DoubleValue
8.065

@<SCITEGIC>MOL_PROPERTY
Idih
SciTegic.value.DoubleValue
0.002

@<SCITEGIC>MOL_PROPERTY
Tether
SciTegic.value.DoubleValue
0.000

@<TRIPOS>MOLECULE
guest-s22_confgen4.mol2 : confsearch ligand conformer 640
          20          19           1
SMALL
USER_CHARGES
 
@<TRIPOS>ATOM
       1    C1      22.371422   19.018263   22.586428 C.2        1 MOL1        -0.2535
       2    H1      22.377887   18.653860   23.612384 H          1 MOL1         0.0845
       3    H2      23.126245   19.752075   22.309329 H          1 MOL1         0.0845
       4    C2      21.470891   18.584871   21.700467 C.2        1 MOL1        -0.1324
       5    H3      21.486189   18.954693   20.675874 H          1 MOL1         0.0833
       6    C3      20.403038   17.558380   22.012893 C.3        1 MOL1        -0.1813
       7    H4      20.865941   16.734206   22.572237 H          1 MOL1         0.0753
       8    H5      20.021979   17.111374   21.085038 H          1 MOL1         0.0753
       9    C4      19.228702   18.121601   22.851278 C.3        1 MOL1        -0.1855
      10    H6      18.709478   17.272814   23.316791 H          1 MOL1         0.0755
      11    H7      19.616462   18.728826   23.680646 H          1 MOL1         0.0755
      12    C5      18.180018   18.929066   22.045444 C.3        1 MOL1        -0.1855
      13    H8      17.316664   19.119769   22.697932 H          1 MOL1         0.0755
      14    H9      17.804932   18.323849   21.208748 H          1 MOL1         0.0755
      15    C6      18.696915   20.289248   21.510663 C.3        1 MOL1        -0.1958
      16    H10     19.159166   20.865079   22.321258 H          1 MOL1         0.0753
      17    H11     19.460836   20.135376   20.742007 H          1 MOL1         0.0753
      18    C7      17.591607   21.139560   20.895126 C.2        1 MOL1         0.6174
      19    O1      17.344183   20.992582   19.714419 O.co2      1 MOL1        -0.6695
      20    O2      16.992690   21.912287   21.616980 O.co2      1 MOL1        -0.6695
@<TRIPOS>BOND
    1     1     2    1
    2     1     3    1
    3     1     4    2
    4     4     5    1
    5     4     6    1
    6     6     7    1
    7     6     8    1
    8     6     9    1
    9     9    10    1
   10     9    11    1
   11     9    12    1
   12    12    13    1
   13    12    14    1
   14    12    15    1
   15    15    16    1
   16    15    17    1
   17    15    18    1
   18    18    19    1
   19    18    20    2
@<TRIPOS>SUBSTRUCTURE
       1 MOL1            1 RESIDUE      1      MOL     
@<SCITEGIC>MOL_PROPERTY
VConf Rank
SciTegic.value.IntegerValue
640

@<SCITEGIC>MOL_PROPERTY
Conf_Id
SciTegic.value.IntegerValue
91

@<SCITEGIC>MOL_PROPERTY
Delta U+W
SciTegic.value.DoubleValue
1.604

@<SCITEGIC>MOL_PROPERTY
U+W
SciTegic.value.DoubleValue
-50.141

@<SCITEGIC>MOL_PROPERTY
Grad RMS
SciTegic.value.DoubleValue
0.000000

@<SCITEGIC>MOL_PROPERTY
U
SciTegic.value.DoubleValue
10.644

@<SCITEGIC>MOL_PROPERTY
W
SciTegic.value.DoubleValue
-60.786

@<SCITEGIC>MOL_PROPERTY
W(PB)
SciTegic.value.DoubleValue
-62.965

@<SCITEGIC>MOL_PROPERTY
W(SA)
SciTegic.value.DoubleValue
2.179

@<SCITEGIC>MOL_PROPERTY
Valence
SciTegic.value.DoubleValue
11.230

@<SCITEGIC>MOL_PROPERTY
Coulomb
SciTegic.value.DoubleValue
-1.075

@<SCITEGIC>MOL_PROPERTY
VdW
SciTegic.value.DoubleValue
0.489

@<SCITEGIC>MOL_PROPERTY
VdW6
SciTegic.value.DoubleValue
-7.547

@<SCITEGIC>MOL_PROPERTY
VdW12
SciTegic.value.DoubleValue
8.036

@<SCITEGIC>MOL_PROPERTY
Bond
SciTegic.value.DoubleValue
0.159

@<SCITEGIC>MOL_PROPERTY
Angle
SciTegic.value.DoubleValue
3.006

@<SCITEGIC>MOL_PROPERTY
Pdih
SciTegic.value.DoubleValue
8.064

@<SCITEGIC>MOL_PROPERTY
Idih
SciTegic.value.DoubleValue
0.002

@<SCITEGIC>MOL_PROPERTY
Tether
SciTegic.value.DoubleValue
0.000

@<TRIPOS>MOLECULE
guest-s22_confgen4.mol2 : confsearch ligand conformer 641
          20          19           1
SMALL
USER_CHARGES
 
@<TRIPOS>ATOM
       1    C1      20.482850   22.229736   20.205128 C.2        1 MOL1        -0.2535
       2    H1      21.302823   21.744167   19.678386 H          1 MOL1         0.0845
       3    H2      20.501308   23.316495   20.267509 H          1 MOL1         0.0845
       4    C2      19.492579   21.523540   20.756762 C.2        1 MOL1        -0.1324
       5    H3      18.681441   22.029062   21.280366 H          1 MOL1         0.0833
       6    C3      19.399270   20.014652   20.709946 C.3        1 MOL1        -0.1813
       7    H4      20.093157   19.613823   19.958505 H          1 MOL1         0.0753
       8    H5      18.389116   19.718457   20.396895 H          1 MOL1         0.0753
       9    C4      19.717556   19.393820   22.086221 C.3        1 MOL1        -0.1855
      10    H6      20.727223   19.696564   22.396549 H          1 MOL1         0.0755
      11    H7      19.020398   19.791531   22.836526 H          1 MOL1         0.0755
      12    C5      19.623959   17.852554   22.056985 C.3        1 MOL1        -0.1855
      13    H8      20.321344   17.453991   21.307089 H          1 MOL1         0.0755
      14    H9      18.614780   17.549151   21.745492 H          1 MOL1         0.0755
      15    C6      19.944856   17.228522   23.441184 C.3        1 MOL1        -0.1958
      16    H10     20.953347   17.522068   23.755334 H          1 MOL1         0.0753
      17    H11     19.248431   17.617068   24.193469 H          1 MOL1         0.0753
      18    C7      19.875047   15.701786   23.500525 C.2        1 MOL1         0.6174
      19    O1      20.118854   15.176705   24.568695 O.co2      1 MOL1        -0.6695
      20    O2      19.584736   15.072247   22.501502 O.co2      1 MOL1        -0.6695
@<TRIPOS>BOND
    1     1     2    1
    2     1     3    1
    3     1     4    2
    4     4     5    1
    5     4     6    1
    6     6     7    1
    7     6     8    1
    8     6     9    1
    9     9    10    1
   10     9    11    1
   11     9    12    1
   12    12    13    1
   13    12    14    1
   14    12    15    1
   15    15    16    1
   16    15    17    1
   17    15    18    1
   18    18    19    1
   19    18    20    2
@<TRIPOS>SUBSTRUCTURE
       1 MOL1            1 RESIDUE      1      MOL     
@<SCITEGIC>MOL_PROPERTY
VConf Rank
SciTegic.value.IntegerValue
641

@<SCITEGIC>MOL_PROPERTY
Conf_Id
SciTegic.value.IntegerValue
33

@<SCITEGIC>MOL_PROPERTY
Delta U+W
SciTegic.value.DoubleValue
0.000

@<SCITEGIC>MOL_PROPERTY
U+W
SciTegic.value.DoubleValue
-51.745

@<SCITEGIC>MOL_PROPERTY
Grad RMS
SciTegic.value.DoubleValue
0.000000

@<SCITEGIC>MOL_PROPERTY
U
SciTegic.value.DoubleValue
7.593

@<SCITEGIC>MOL_PROPERTY
W
SciTegic.value.DoubleValue
-59.338

@<SCITEGIC>MOL_PROPERTY
W(PB)
SciTegic.value.DoubleValue
-61.574

@<SCITEGIC>MOL_PROPERTY
W(SA)
SciTegic.value.DoubleValue
2.236

@<SCITEGIC>MOL_PROPERTY
Valence
SciTegic.value.DoubleValue
9.570

@<SCITEGIC>MOL_PROPERTY
Coulomb
SciTegic.value.DoubleValue
-3.091

@<SCITEGIC>MOL_PROPERTY
VdW
SciTegic.value.DoubleValue
1.114

@<SCITEGIC>MOL_PROPERTY
VdW6
SciTegic.value.DoubleValue
-6.064

@<SCITEGIC>MOL_PROPERTY
VdW12
SciTegic.value.DoubleValue
7.178

@<SCITEGIC>MOL_PROPERTY
Bond
SciTegic.value.DoubleValue
0.117

@<SCITEGIC>MOL_PROPERTY
Angle
SciTegic.value.DoubleValue
2.692

@<SCITEGIC>MOL_PROPERTY
Pdih
SciTegic.value.DoubleValue
6.761

@<SCITEGIC>MOL_PROPERTY
Idih
SciTegic.value.DoubleValue
0.000

@<SCITEGIC>MOL_PROPERTY
Tether
SciTegic.value.DoubleValue
0.000

@<TRIPOS>MOLECULE
guest-s22_confgen4.mol2 : confsearch ligand conformer 642
          20          19           1
SMALL
USER_CHARGES
 
@<TRIPOS>ATOM
       1    C1      19.908544   16.155146   19.704980 C.2        1 MOL1        -0.2535
       2    H1      18.907191   16.375077   19.338237 H          1 MOL1         0.0845
       3    H2      20.351584   15.204638   19.412560 H          1 MOL1         0.0845
       4    C2      20.569963   17.013842   20.485262 C.2        1 MOL1        -0.1324
       5    H3      21.571252   16.774111   20.842446 H          1 MOL1         0.0833
       6    C3      20.020463   18.350585   20.931236 C.3        1 MOL1        -0.1813
       7    H4      19.140808   18.618922   20.330571 H          1 MOL1         0.0753
       8    H5      20.775048   19.127190   20.753650 H          1 MOL1         0.0753
       9    C4      19.632440   18.319865   22.426664 C.3        1 MOL1        -0.1855
      10    H6      18.942036   17.481912   22.595528 H          1 MOL1         0.0755
      11    H7      20.523592   18.114882   23.035617 H          1 MOL1         0.0755
      12    C5      18.955984   19.622708   22.915734 C.3        1 MOL1        -0.1855
      13    H8      18.612830   19.474880   23.949119 H          1 MOL1         0.0755
      14    H9      18.056962   19.822006   22.316208 H          1 MOL1         0.0755
      15    C6      19.891107   20.859134   22.873662 C.3        1 MOL1        -0.1958
      16    H10     20.811872   20.656658   23.433642 H          1 MOL1         0.0753
      17    H11     20.181007   21.089790   21.842401 H          1 MOL1         0.0753
      18    C7      19.244078   22.107262   23.463154 C.2        1 MOL1         0.6174
      19    O1      18.601316   22.824778   22.722387 O.co2      1 MOL1        -0.6695
      20    O2      19.383289   22.318665   24.651709 O.co2      1 MOL1        -0.6695
@<TRIPOS>BOND
    1     1     2    1
    2     1     3    1
    3     1     4    2
    4     4     5    1
    5     4     6    1
    6     6     7    1
    7     6     8    1
    8     6     9    1
    9     9    10    1
   10     9    11    1
   11     9    12    1
   12    12    13    1
   13    12    14    1
   14    12    15    1
   15    15    16    1
   16    15    17    1
   17    15    18    1
   18    18    19    1
   19    18    20    2
@<TRIPOS>SUBSTRUCTURE
       1 MOL1            1 RESIDUE      1      MOL     
@<SCITEGIC>MOL_PROPERTY
VConf Rank
SciTegic.value.IntegerValue
642

@<SCITEGIC>MOL_PROPERTY
Conf_Id
SciTegic.value.IntegerValue
37

@<SCITEGIC>MOL_PROPERTY
Delta U+W
SciTegic.value.DoubleValue
-0.384

@<SCITEGIC>MOL_PROPERTY
U+W
SciTegic.value.DoubleValue
-52.130

@<SCITEGIC>MOL_PROPERTY
Grad RMS
SciTegic.value.DoubleValue
0.000000

@<SCITEGIC>MOL_PROPERTY
U
SciTegic.value.DoubleValue
7.491

@<SCITEGIC>MOL_PROPERTY
W
SciTegic.value.DoubleValue
-59.621

@<SCITEGIC>MOL_PROPERTY
W(PB)
SciTegic.value.DoubleValue
-61.853

@<SCITEGIC>MOL_PROPERTY
W(SA)
SciTegic.value.DoubleValue
2.232

@<SCITEGIC>MOL_PROPERTY
Valence
SciTegic.value.DoubleValue
9.604

@<SCITEGIC>MOL_PROPERTY
Coulomb
SciTegic.value.DoubleValue
-2.799

@<SCITEGIC>MOL_PROPERTY
VdW
SciTegic.value.DoubleValue
0.686

@<SCITEGIC>MOL_PROPERTY
VdW6
SciTegic.value.DoubleValue
-6.435

@<SCITEGIC>MOL_PROPERTY
VdW12
SciTegic.value.DoubleValue
7.121

@<SCITEGIC>MOL_PROPERTY
Bond
SciTegic.value.DoubleValue
0.124

@<SCITEGIC>MOL_PROPERTY
Angle
SciTegic.value.DoubleValue
2.493

@<SCITEGIC>MOL_PROPERTY
Pdih
SciTegic.value.DoubleValue
6.986

@<SCITEGIC>MOL_PROPERTY
Idih
SciTegic.value.DoubleValue
0.001

@<SCITEGIC>MOL_PROPERTY
Tether
SciTegic.value.DoubleValue
0.000

@<TRIPOS>MOLECULE
guest-s22_confgen4.mol2 : confsearch ligand conformer 643
          20          19           1
SMALL
USER_CHARGES
 
@<TRIPOS>ATOM
       1    C1      19.389269   17.324070   19.037122 C.2        1 MOL1        -0.2535
       2    H1      19.254725   16.790410   18.097816 H          1 MOL1         0.0845
       3    H2      19.720362   16.737788   19.891639 H          1 MOL1         0.0845
       4    C2      19.153194   18.638593   19.115936 C.2        1 MOL1        -0.1324
       5    H3      18.823003   19.172019   18.224837 H          1 MOL1         0.0833
       6    C3      19.295518   19.514826   20.349214 C.3        1 MOL1        -0.1813
       7    H4      18.332168   20.003231   20.548095 H          1 MOL1         0.0753
       8    H5      19.998932   20.327907   20.125064 H          1 MOL1         0.0753
       9    C4      19.763157   18.777174   21.625602 C.3        1 MOL1        -0.1855
      10    H6      19.052063   17.975319   21.867389 H          1 MOL1         0.0755
      11    H7      20.736900   18.303494   21.439760 H          1 MOL1         0.0755
      12    C5      19.881962   19.736567   22.829958 C.3        1 MOL1        -0.1855
      13    H8      18.910746   20.213879   23.021058 H          1 MOL1         0.0755
      14    H9      20.592132   20.541381   22.594296 H          1 MOL1         0.0755
      15    C6      20.350106   19.000288   24.109341 C.3        1 MOL1        -0.1958
      16    H10     19.644169   18.201433   24.366410 H          1 MOL1         0.0753
      17    H11     21.325577   18.528863   23.939584 H          1 MOL1         0.0753
      18    C7      20.475257   19.927037   25.313276 C.2        1 MOL1         0.6174
      19    O1      19.499043   20.084902   26.019487 O.co2      1 MOL1        -0.6695
      20    O2      21.539777   20.481958   25.501709 O.co2      1 MOL1        -0.6695
@<TRIPOS>BOND
    1     1     2    1
    2     1     3    1
    3     1     4    2
    4     4     5    1
    5     4     6    1
    6     6     7    1
    7     6     8    1
    8     6     9    1
    9     9    10    1
   10     9    11    1
   11     9    12    1
   12    12    13    1
   13    12    14    1
   14    12    15    1
   15    15    16    1
   16    15    17    1
   17    15    18    1
   18    18    19    1
   19    18    20    2
@<TRIPOS>SUBSTRUCTURE
       1 MOL1            1 RESIDUE      1      MOL     
@<SCITEGIC>MOL_PROPERTY
VConf Rank
SciTegic.value.IntegerValue
643

@<SCITEGIC>MOL_PROPERTY
Conf_Id
SciTegic.value.IntegerValue
44

@<SCITEGIC>MOL_PROPERTY
Delta U+W
SciTegic.value.DoubleValue
-1.440

@<SCITEGIC>MOL_PROPERTY
U+W
SciTegic.value.DoubleValue
-53.185

@<SCITEGIC>MOL_PROPERTY
Grad RMS
SciTegic.value.DoubleValue
0.000000

@<SCITEGIC>MOL_PROPERTY
U
SciTegic.value.DoubleValue
6.572

@<SCITEGIC>MOL_PROPERTY
W
SciTegic.value.DoubleValue
-59.757

@<SCITEGIC>MOL_PROPERTY
W(PB)
SciTegic.value.DoubleValue
-62.007

@<SCITEGIC>MOL_PROPERTY
W(SA)
SciTegic.value.DoubleValue
2.249

@<SCITEGIC>MOL_PROPERTY
Valence
SciTegic.value.DoubleValue
7.989

@<SCITEGIC>MOL_PROPERTY
Coulomb
SciTegic.value.DoubleValue
-2.697

@<SCITEGIC>MOL_PROPERTY
VdW
SciTegic.value.DoubleValue
1.281

@<SCITEGIC>MOL_PROPERTY
VdW6
SciTegic.value.DoubleValue
-6.467

@<SCITEGIC>MOL_PROPERTY
VdW12
SciTegic.value.DoubleValue
7.748

@<SCITEGIC>MOL_PROPERTY
Bond
SciTegic.value.DoubleValue
0.136

@<SCITEGIC>MOL_PROPERTY
Angle
SciTegic.value.DoubleValue
2.854

@<SCITEGIC>MOL_PROPERTY
Pdih
SciTegic.value.DoubleValue
4.997

@<SCITEGIC>MOL_PROPERTY
Idih
SciTegic.value.DoubleValue
0.001

@<SCITEGIC>MOL_PROPERTY
Tether
SciTegic.value.DoubleValue
0.000

@<TRIPOS>MOLECULE
guest-s22_confgen4.mol2 : confsearch ligand conformer 644
          20          19           1
SMALL
USER_CHARGES
 
@<TRIPOS>ATOM
       1    C1      17.908413   21.129773   19.894210 C.2        1 MOL1        -0.2535
       2    H1      18.901179   21.502726   19.647431 H          1 MOL1         0.0845
       3    H2      17.055736   21.729944   19.581177 H          1 MOL1         0.0845
       4    C2      17.738876   19.982840   20.557172 C.2        1 MOL1        -0.1324
       5    H3      16.736399   19.627582   20.794801 H          1 MOL1         0.0833
       6    C3      18.873056   19.096698   21.022238 C.3        1 MOL1        -0.1813
       7    H4      19.802351   19.382779   20.513153 H          1 MOL1         0.0753
       8    H5      18.664333   18.055994   20.740633 H          1 MOL1         0.0753
       9    C4      19.059892   19.191900   22.553247 C.3        1 MOL1        -0.1855
      10    H6      19.322507   20.222766   22.828095 H          1 MOL1         0.0755
      11    H7      18.100274   18.975714   23.042615 H          1 MOL1         0.0755
      12    C5      20.126219   18.217020   23.107211 C.3        1 MOL1        -0.1855
      13    H8      19.859748   17.184691   22.841386 H          1 MOL1         0.0755
      14    H9      20.113050   18.267649   24.204829 H          1 MOL1         0.0755
      15    C6      21.563306   18.524901   22.612188 C.3        1 MOL1        -0.1958
      16    H10     21.634837   18.394053   21.526617 H          1 MOL1         0.0753
      17    H11     21.824569   19.566755   22.832821 H          1 MOL1         0.0753
      18    C7      22.613362   17.627407   23.257029 C.2        1 MOL1         0.6174
      19    O1      23.128503   17.999908   24.292696 O.co2      1 MOL1        -0.6695
      20    O2      22.874174   16.570249   22.717486 O.co2      1 MOL1        -0.6695
@<TRIPOS>BOND
    1     1     2    1
    2     1     3    1
    3     1     4    2
    4     4     5    1
    5     4     6    1
    6     6     7    1
    7     6     8    1
    8     6     9    1
    9     9    10    1
   10     9    11    1
   11     9    12    1
   12    12    13    1
   13    12    14    1
   14    12    15    1
   15    15    16    1
   16    15    17    1
   17    15    18    1
   18    18    19    1
   19    18    20    2
@<TRIPOS>SUBSTRUCTURE
       1 MOL1            1 RESIDUE      1      MOL     
@<SCITEGIC>MOL_PROPERTY
VConf Rank
SciTegic.value.IntegerValue
644

@<SCITEGIC>MOL_PROPERTY
Conf_Id
SciTegic.value.IntegerValue
38

@<SCITEGIC>MOL_PROPERTY
Delta U+W
SciTegic.value.DoubleValue
-0.381

@<SCITEGIC>MOL_PROPERTY
U+W
SciTegic.value.DoubleValue
-52.126

@<SCITEGIC>MOL_PROPERTY
Grad RMS
SciTegic.value.DoubleValue
0.000000

@<SCITEGIC>MOL_PROPERTY
U
SciTegic.value.DoubleValue
7.601

@<SCITEGIC>MOL_PROPERTY
W
SciTegic.value.DoubleValue
-59.727

@<SCITEGIC>MOL_PROPERTY
W(PB)
SciTegic.value.DoubleValue
-61.964

@<SCITEGIC>MOL_PROPERTY
W(SA)
SciTegic.value.DoubleValue
2.236

@<SCITEGIC>MOL_PROPERTY
Valence
SciTegic.value.DoubleValue
9.602

@<SCITEGIC>MOL_PROPERTY
Coulomb
SciTegic.value.DoubleValue
-2.686

@<SCITEGIC>MOL_PROPERTY
VdW
SciTegic.value.DoubleValue
0.685

@<SCITEGIC>MOL_PROPERTY
VdW6
SciTegic.value.DoubleValue
-6.453

@<SCITEGIC>MOL_PROPERTY
VdW12
SciTegic.value.DoubleValue
7.139

@<SCITEGIC>MOL_PROPERTY
Bond
SciTegic.value.DoubleValue
0.125

@<SCITEGIC>MOL_PROPERTY
Angle
SciTegic.value.DoubleValue
2.485

@<SCITEGIC>MOL_PROPERTY
Pdih
SciTegic.value.DoubleValue
6.991

@<SCITEGIC>MOL_PROPERTY
Idih
SciTegic.value.DoubleValue
0.001

@<SCITEGIC>MOL_PROPERTY
Tether
SciTegic.value.DoubleValue
0.000

@<TRIPOS>MOLECULE
guest-s22_confgen4.mol2 : confsearch ligand conformer 645
          20          19           1
SMALL
USER_CHARGES
 
@<TRIPOS>ATOM
       1    C1      21.088329   15.942595   22.039135 C.2        1 MOL1        -0.2535
       2    H1      21.744517   16.155921   22.881445 H          1 MOL1         0.0845
       3    H2      20.850539   14.898780   21.841208 H          1 MOL1         0.0845
       4    C2      20.590538   16.920192   21.277445 C.2        1 MOL1        -0.1324
       5    H3      19.934631   16.685243   20.439444 H          1 MOL1         0.0833
       6    C3      20.876397   18.390058   21.490584 C.3        1 MOL1        -0.1813
       7    H4      21.165377   18.850243   20.536201 H          1 MOL1         0.0753
       8    H5      21.727576   18.516789   22.173353 H          1 MOL1         0.0753
       9    C4      19.643736   19.119911   22.064057 C.3        1 MOL1        -0.1855
      10    H6      18.794565   18.993596   21.378211 H          1 MOL1         0.0755
      11    H7      19.354789   18.653761   23.016152 H          1 MOL1         0.0755
      12    C5      19.918110   20.624613   22.285241 C.3        1 MOL1        -0.1855
      13    H8      20.197181   21.096211   21.332660 H          1 MOL1         0.0755
      14    H9      20.777638   20.740786   22.959257 H          1 MOL1         0.0755
      15    C6      18.700195   21.370194   22.889963 C.3        1 MOL1        -0.1958
      16    H10     18.391820   20.893562   23.828359 H          1 MOL1         0.0753
      17    H11     18.985787   22.399775   23.135678 H          1 MOL1         0.0753
      18    C7      17.492444   21.441365   21.959835 C.2        1 MOL1         0.6174
      19    O1      16.544254   20.717045   22.190631 O.co2      1 MOL1        -0.6695
      20    O2      17.528287   22.228592   21.034585 O.co2      1 MOL1        -0.6695
@<TRIPOS>BOND
    1     1     2    1
    2     1     3    1
    3     1     4    2
    4     4     5    1
    5     4     6    1
    6     6     7    1
    7     6     8    1
    8     6     9    1
    9     9    10    1
   10     9    11    1
   11     9    12    1
   12    12    13    1
   13    12    14    1
   14    12    15    1
   15    15    16    1
   16    15    17    1
   17    15    18    1
   18    18    19    1
   19    18    20    2
@<TRIPOS>SUBSTRUCTURE
       1 MOL1            1 RESIDUE      1      MOL     
@<SCITEGIC>MOL_PROPERTY
VConf Rank
SciTegic.value.IntegerValue
645

@<SCITEGIC>MOL_PROPERTY
Conf_Id
SciTegic.value.IntegerValue
58

@<SCITEGIC>MOL_PROPERTY
Delta U+W
SciTegic.value.DoubleValue
0.019

@<SCITEGIC>MOL_PROPERTY
U+W
SciTegic.value.DoubleValue
-51.727

@<SCITEGIC>MOL_PROPERTY
Grad RMS
SciTegic.value.DoubleValue
0.000000

@<SCITEGIC>MOL_PROPERTY
U
SciTegic.value.DoubleValue
8.963

@<SCITEGIC>MOL_PROPERTY
W
SciTegic.value.DoubleValue
-60.690

@<SCITEGIC>MOL_PROPERTY
W(PB)
SciTegic.value.DoubleValue
-62.934

@<SCITEGIC>MOL_PROPERTY
W(SA)
SciTegic.value.DoubleValue
2.244

@<SCITEGIC>MOL_PROPERTY
Valence
SciTegic.value.DoubleValue
9.327

@<SCITEGIC>MOL_PROPERTY
Coulomb
SciTegic.value.DoubleValue
-0.780

@<SCITEGIC>MOL_PROPERTY
VdW
SciTegic.value.DoubleValue
0.417

@<SCITEGIC>MOL_PROPERTY
VdW6
SciTegic.value.DoubleValue
-6.635

@<SCITEGIC>MOL_PROPERTY
VdW12
SciTegic.value.DoubleValue
7.052

@<SCITEGIC>MOL_PROPERTY
Bond
SciTegic.value.DoubleValue
0.105

@<SCITEGIC>MOL_PROPERTY
Angle
SciTegic.value.DoubleValue
2.399

@<SCITEGIC>MOL_PROPERTY
Pdih
SciTegic.value.DoubleValue
6.822

@<SCITEGIC>MOL_PROPERTY
Idih
SciTegic.value.DoubleValue
0.000

@<SCITEGIC>MOL_PROPERTY
Tether
SciTegic.value.DoubleValue
0.000

@<TRIPOS>MOLECULE
guest-s22_confgen4.mol2 : confsearch ligand conformer 646
          20          19           1
SMALL
USER_CHARGES
 
@<TRIPOS>ATOM
       1    C1      18.260942   21.614828   24.241876 C.2        1 MOL1        -0.2535
       2    H1      17.264798   21.454922   23.832358 H          1 MOL1         0.0845
       3    H2      18.443546   22.552965   24.763241 H          1 MOL1         0.0845
       4    C2      19.224738   20.699775   24.109814 C.2        1 MOL1        -0.1324
       5    H3      20.215537   20.879862   24.526403 H          1 MOL1         0.0833
       6    C3      19.045446   19.375869   23.400749 C.3        1 MOL1        -0.1813
       7    H4      17.977835   19.169964   23.244069 H          1 MOL1         0.0753
       8    H5      19.434453   18.565552   24.031768 H          1 MOL1         0.0753
       9    C4      19.775725   19.368484   22.041465 C.3        1 MOL1        -0.1855
      10    H6      19.387293   20.183252   21.414931 H          1 MOL1         0.0755
      11    H7      20.843599   19.572364   22.201181 H          1 MOL1         0.0755
      12    C5      19.605011   18.020784   21.304655 C.3        1 MOL1        -0.1855
      13    H8      18.534671   17.818203   21.163529 H          1 MOL1         0.0755
      14    H9      20.002344   17.204722   21.924222 H          1 MOL1         0.0755
      15    C6      20.306789   18.004144   19.921859 C.3        1 MOL1        -0.1958
      16    H10     20.056155   17.076054   19.394784 H          1 MOL1         0.0753
      17    H11     19.940579   18.830804   19.301068 H          1 MOL1         0.0753
      18    C7      21.828596   18.088991   19.997810 C.2        1 MOL1         0.6174
      19    O1      22.441246   17.094119   20.332452 O.co2      1 MOL1        -0.6695
      20    O2      22.361784   19.142538   19.710202 O.co2      1 MOL1        -0.6695
@<TRIPOS>BOND
    1     1     2    1
    2     1     3    1
    3     1     4    2
    4     4     5    1
    5     4     6    1
    6     6     7    1
    7     6     8    1
    8     6     9    1
    9     9    10    1
   10     9    11    1
   11     9    12    1
   12    12    13    1
   13    12    14    1
   14    12    15    1
   15    15    16    1
   16    15    17    1
   17    15    18    1
   18    18    19    1
   19    18    20    2
@<TRIPOS>SUBSTRUCTURE
       1 MOL1            1 RESIDUE      1      MOL     
@<SCITEGIC>MOL_PROPERTY
VConf Rank
SciTegic.value.IntegerValue
646

@<SCITEGIC>MOL_PROPERTY
Conf_Id
SciTegic.value.IntegerValue
54

@<SCITEGIC>MOL_PROPERTY
Delta U+W
SciTegic.value.DoubleValue
-0.048

@<SCITEGIC>MOL_PROPERTY
U+W
SciTegic.value.DoubleValue
-51.793

@<SCITEGIC>MOL_PROPERTY
Grad RMS
SciTegic.value.DoubleValue
0.000000

@<SCITEGIC>MOL_PROPERTY
U
SciTegic.value.DoubleValue
8.964

@<SCITEGIC>MOL_PROPERTY
W
SciTegic.value.DoubleValue
-60.756

@<SCITEGIC>MOL_PROPERTY
W(PB)
SciTegic.value.DoubleValue
-63.007

@<SCITEGIC>MOL_PROPERTY
W(SA)
SciTegic.value.DoubleValue
2.251

@<SCITEGIC>MOL_PROPERTY
Valence
SciTegic.value.DoubleValue
9.327

@<SCITEGIC>MOL_PROPERTY
Coulomb
SciTegic.value.DoubleValue
-0.780

@<SCITEGIC>MOL_PROPERTY
VdW
SciTegic.value.DoubleValue
0.417

@<SCITEGIC>MOL_PROPERTY
VdW6
SciTegic.value.DoubleValue
-6.635

@<SCITEGIC>MOL_PROPERTY
VdW12
SciTegic.value.DoubleValue
7.052

@<SCITEGIC>MOL_PROPERTY
Bond
SciTegic.value.DoubleValue
0.105

@<SCITEGIC>MOL_PROPERTY
Angle
SciTegic.value.DoubleValue
2.399

@<SCITEGIC>MOL_PROPERTY
Pdih
SciTegic.value.DoubleValue
6.822

@<SCITEGIC>MOL_PROPERTY
Idih
SciTegic.value.DoubleValue
0.000

@<SCITEGIC>MOL_PROPERTY
Tether
SciTegic.value.DoubleValue
0.000

@<TRIPOS>MOLECULE
guest-s22_confgen4.mol2 : confsearch ligand conformer 647
          20          19           1
SMALL
USER_CHARGES
 
@<TRIPOS>ATOM
       1    C1      19.560154   18.588835   25.333411 C.2        1 MOL1        -0.2535
       2    H1      20.043875   17.893347   26.017150 H          1 MOL1         0.0845
       3    H2      19.381575   19.601399   25.691645 H          1 MOL1         0.0845
       4    C2      19.203925   18.211586   24.102779 C.2        1 MOL1        -0.1324
       5    H3      19.388807   17.192122   23.765492 H          1 MOL1         0.0833
       6    C3      18.522480   19.120210   23.101837 C.3        1 MOL1        -0.1813
       7    H4      18.060072   19.967389   23.626239 H          1 MOL1         0.0753
       8    H5      17.703731   18.582762   22.605002 H          1 MOL1         0.0753
       9    C4      19.503605   19.670455   22.042203 C.3        1 MOL1        -0.1855
      10    H6      18.980798   20.423808   21.437129 H          1 MOL1         0.0755
      11    H7      20.329802   20.191728   22.545005 H          1 MOL1         0.0755
      12    C5      20.067005   18.568296   21.113802 C.3        1 MOL1        -0.1855
      13    H8      19.240338   18.037121   20.621956 H          1 MOL1         0.0755
      14    H9      20.608258   17.824935   21.713764 H          1 MOL1         0.0755
      15    C6      21.028994   19.131994   20.035839 C.3        1 MOL1        -0.1958
      16    H10     21.842111   19.694247   20.510754 H          1 MOL1         0.0753
      17    H11     21.493370   18.302554   19.489634 H          1 MOL1         0.0753
      18    C7      20.350068   20.031786   19.007117 C.2        1 MOL1         0.6174
      19    O1      20.519405   21.232345   19.090987 O.co2      1 MOL1        -0.6695
      20    O2      19.677825   19.506042   18.141786 O.co2      1 MOL1        -0.6695
@<TRIPOS>BOND
    1     1     2    1
    2     1     3    1
    3     1     4    2
    4     4     5    1
    5     4     6    1
    6     6     7    1
    7     6     8    1
    8     6     9    1
    9     9    10    1
   10     9    11    1
   11     9    12    1
   12    12    13    1
   13    12    14    1
   14    12    15    1
   15    15    16    1
   16    15    17    1
   17    15    18    1
   18    18    19    1
   19    18    20    2
@<TRIPOS>SUBSTRUCTURE
       1 MOL1            1 RESIDUE      1      MOL     
@<SCITEGIC>MOL_PROPERTY
VConf Rank
SciTegic.value.IntegerValue
647

@<SCITEGIC>MOL_PROPERTY
Conf_Id
SciTegic.value.IntegerValue
27

@<SCITEGIC>MOL_PROPERTY
Delta U+W
SciTegic.value.DoubleValue
0.478

@<SCITEGIC>MOL_PROPERTY
U+W
SciTegic.value.DoubleValue
-51.267

@<SCITEGIC>MOL_PROPERTY
Grad RMS
SciTegic.value.DoubleValue
0.000000

@<SCITEGIC>MOL_PROPERTY
U
SciTegic.value.DoubleValue
9.192

@<SCITEGIC>MOL_PROPERTY
W
SciTegic.value.DoubleValue
-60.459

@<SCITEGIC>MOL_PROPERTY
W(PB)
SciTegic.value.DoubleValue
-62.649

@<SCITEGIC>MOL_PROPERTY
W(SA)
SciTegic.value.DoubleValue
2.190

@<SCITEGIC>MOL_PROPERTY
Valence
SciTegic.value.DoubleValue
9.572

@<SCITEGIC>MOL_PROPERTY
Coulomb
SciTegic.value.DoubleValue
-0.884

@<SCITEGIC>MOL_PROPERTY
VdW
SciTegic.value.DoubleValue
0.504

@<SCITEGIC>MOL_PROPERTY
VdW6
SciTegic.value.DoubleValue
-7.168

@<SCITEGIC>MOL_PROPERTY
VdW12
SciTegic.value.DoubleValue
7.672

@<SCITEGIC>MOL_PROPERTY
Bond
SciTegic.value.DoubleValue
0.127

@<SCITEGIC>MOL_PROPERTY
Angle
SciTegic.value.DoubleValue
2.504

@<SCITEGIC>MOL_PROPERTY
Pdih
SciTegic.value.DoubleValue
6.941

@<SCITEGIC>MOL_PROPERTY
Idih
SciTegic.value.DoubleValue
0.001

@<SCITEGIC>MOL_PROPERTY
Tether
SciTegic.value.DoubleValue
0.000

@<TRIPOS>MOLECULE
guest-s22_confgen4.mol2 : confsearch ligand conformer 648
          20          19           1
SMALL
USER_CHARGES
 
@<TRIPOS>ATOM
       1    C1      16.915132   16.917766   22.029879 C.2        1 MOL1        -0.2535
       2    H1      16.145066   17.456348   21.479939 H          1 MOL1         0.0845
       3    H2      16.589478   16.260246   22.834127 H          1 MOL1         0.0845
       4    C2      18.210067   17.057982   21.734649 C.2        1 MOL1        -0.1324
       5    H3      18.964333   16.507058   22.295772 H          1 MOL1         0.0833
       6    C3      18.735543   17.947477   20.628092 C.3        1 MOL1        -0.1813
       7    H4      17.929568   18.166089   19.914531 H          1 MOL1         0.0753
       8    H5      19.513201   17.418950   20.060669 H          1 MOL1         0.0753
       9    C4      19.297946   19.283254   21.164247 C.3        1 MOL1        -0.1855
      10    H6      19.538522   19.933166   20.311829 H          1 MOL1         0.0755
      11    H7      18.520568   19.799817   21.744035 H          1 MOL1         0.0755
      12    C5      20.562981   19.097264   22.033233 C.3        1 MOL1        -0.1855
      13    H8      21.329986   18.557650   21.460628 H          1 MOL1         0.0755
      14    H9      20.327452   18.480900   22.911471 H          1 MOL1         0.0755
      15    C6      21.139278   20.453899   22.508086 C.3        1 MOL1        -0.1958
      16    H10     21.397063   21.079315   21.644988 H          1 MOL1         0.0753
      17    H11     20.388788   21.000103   23.092068 H          1 MOL1         0.0753
      18    C7      22.387725   20.297650   23.368906 C.2        1 MOL1         0.6174
      19    O1      22.246124   20.190883   24.571075 O.co2      1 MOL1        -0.6695
      20    O2      23.467846   20.269166   22.812824 O.co2      1 MOL1        -0.6695
@<TRIPOS>BOND
    1     1     2    1
    2     1     3    1
    3     1     4    2
    4     4     5    1
    5     4     6    1
    6     6     7    1
    7     6     8    1
    8     6     9    1
    9     9    10    1
   10     9    11    1
   11     9    12    1
   12    12    13    1
   13    12    14    1
   14    12    15    1
   15    15    16    1
   16    15    17    1
   17    15    18    1
   18    18    19    1
   19    18    20    2
@<TRIPOS>SUBSTRUCTURE
       1 MOL1            1 RESIDUE      1      MOL     
@<SCITEGIC>MOL_PROPERTY
VConf Rank
SciTegic.value.IntegerValue
648

@<SCITEGIC>MOL_PROPERTY
Conf_Id
SciTegic.value.IntegerValue
41

@<SCITEGIC>MOL_PROPERTY
Delta U+W
SciTegic.value.DoubleValue
-0.634

@<SCITEGIC>MOL_PROPERTY
U+W
SciTegic.value.DoubleValue
-52.379

@<SCITEGIC>MOL_PROPERTY
Grad RMS
SciTegic.value.DoubleValue
0.000000

@<SCITEGIC>MOL_PROPERTY
U
SciTegic.value.DoubleValue
7.828

@<SCITEGIC>MOL_PROPERTY
W
SciTegic.value.DoubleValue
-60.207

@<SCITEGIC>MOL_PROPERTY
W(PB)
SciTegic.value.DoubleValue
-62.449

@<SCITEGIC>MOL_PROPERTY
W(SA)
SciTegic.value.DoubleValue
2.242

@<SCITEGIC>MOL_PROPERTY
Valence
SciTegic.value.DoubleValue
9.300

@<SCITEGIC>MOL_PROPERTY
Coulomb
SciTegic.value.DoubleValue
-2.080

@<SCITEGIC>MOL_PROPERTY
VdW
SciTegic.value.DoubleValue
0.608

@<SCITEGIC>MOL_PROPERTY
VdW6
SciTegic.value.DoubleValue
-6.341

@<SCITEGIC>MOL_PROPERTY
VdW12
SciTegic.value.DoubleValue
6.949

@<SCITEGIC>MOL_PROPERTY
Bond
SciTegic.value.DoubleValue
0.103

@<SCITEGIC>MOL_PROPERTY
Angle
SciTegic.value.DoubleValue
2.334

@<SCITEGIC>MOL_PROPERTY
Pdih
SciTegic.value.DoubleValue
6.862

@<SCITEGIC>MOL_PROPERTY
Idih
SciTegic.value.DoubleValue
0.001

@<SCITEGIC>MOL_PROPERTY
Tether
SciTegic.value.DoubleValue
0.000

@<TRIPOS>MOLECULE
guest-s22_confgen4.mol2 : confsearch ligand conformer 649
          20          19           1
SMALL
USER_CHARGES
 
@<TRIPOS>ATOM
       1    C1      20.783293   22.247764   21.846817 C.2        1 MOL1        -0.2535
       2    H1      21.043127   23.068562   21.180473 H          1 MOL1         0.0845
       3    H2      20.418464   22.504912   22.839958 H          1 MOL1         0.0845
       4    C2      20.906599   20.976485   21.456483 C.2        1 MOL1        -0.1324
       5    H3      21.273130   20.740038   20.457777 H          1 MOL1         0.0833
       6    C3      20.567044   19.785822   22.325172 C.3        1 MOL1        -0.1813
       7    H4      20.458962   20.097845   23.372709 H          1 MOL1         0.0753
       8    H5      21.396001   19.067113   22.289928 H          1 MOL1         0.0753
       9    C4      19.262225   19.107528   21.851314 C.3        1 MOL1        -0.1855
      10    H6      18.468195   19.865016   21.797568 H          1 MOL1         0.0755
      11    H7      19.395914   18.727990   20.828897 H          1 MOL1         0.0755
      12    C5      18.788242   17.961725   22.779035 C.3        1 MOL1        -0.1855
      13    H8      17.820745   17.589255   22.414889 H          1 MOL1         0.0755
      14    H9      18.604255   18.363228   23.784694 H          1 MOL1         0.0755
      15    C6      19.775870   16.767276   22.880536 C.3        1 MOL1        -0.1958
      16    H10     20.730383   17.089563   23.311859 H          1 MOL1         0.0753
      17    H11     19.365642   16.014423   23.563640 H          1 MOL1         0.0753
      18    C7      20.050697   16.071384   21.550520 C.2        1 MOL1         0.6174
      19    O1      19.167915   15.388933   21.068480 O.co2      1 MOL1        -0.6695
      20    O2      21.144499   16.214716   21.040612 O.co2      1 MOL1        -0.6695
@<TRIPOS>BOND
    1     1     2    1
    2     1     3    1
    3     1     4    2
    4     4     5    1
    5     4     6    1
    6     6     7    1
    7     6     8    1
    8     6     9    1
    9     9    10    1
   10     9    11    1
   11     9    12    1
   12    12    13    1
   13    12    14    1
   14    12    15    1
   15    15    16    1
   16    15    17    1
   17    15    18    1
   18    18    19    1
   19    18    20    2
@<TRIPOS>SUBSTRUCTURE
       1 MOL1            1 RESIDUE      1      MOL     
@<SCITEGIC>MOL_PROPERTY
VConf Rank
SciTegic.value.IntegerValue
649

@<SCITEGIC>MOL_PROPERTY
Conf_Id
SciTegic.value.IntegerValue
84

@<SCITEGIC>MOL_PROPERTY
Delta U+W
SciTegic.value.DoubleValue
0.942

@<SCITEGIC>MOL_PROPERTY
U+W
SciTegic.value.DoubleValue
-50.803

@<SCITEGIC>MOL_PROPERTY
Grad RMS
SciTegic.value.DoubleValue
0.000000

@<SCITEGIC>MOL_PROPERTY
U
SciTegic.value.DoubleValue
10.196

@<SCITEGIC>MOL_PROPERTY
W
SciTegic.value.DoubleValue
-60.999

@<SCITEGIC>MOL_PROPERTY
W(PB)
SciTegic.value.DoubleValue
-63.182

@<SCITEGIC>MOL_PROPERTY
W(SA)
SciTegic.value.DoubleValue
2.182

@<SCITEGIC>MOL_PROPERTY
Valence
SciTegic.value.DoubleValue
9.837

@<SCITEGIC>MOL_PROPERTY
Coulomb
SciTegic.value.DoubleValue
0.032

@<SCITEGIC>MOL_PROPERTY
VdW
SciTegic.value.DoubleValue
0.328

@<SCITEGIC>MOL_PROPERTY
VdW6
SciTegic.value.DoubleValue
-7.642

@<SCITEGIC>MOL_PROPERTY
VdW12
SciTegic.value.DoubleValue
7.969

@<SCITEGIC>MOL_PROPERTY
Bond
SciTegic.value.DoubleValue
0.151

@<SCITEGIC>MOL_PROPERTY
Angle
SciTegic.value.DoubleValue
2.748

@<SCITEGIC>MOL_PROPERTY
Pdih
SciTegic.value.DoubleValue
6.937

@<SCITEGIC>MOL_PROPERTY
Idih
SciTegic.value.DoubleValue
0.001

@<SCITEGIC>MOL_PROPERTY
Tether
SciTegic.value.DoubleValue
0.000

@<TRIPOS>MOLECULE
guest-s22_confgen4.mol2 : confsearch ligand conformer 650
          20          19           1
SMALL
USER_CHARGES
 
@<TRIPOS>ATOM
       1    C1      19.222242   16.119264   23.552378 C.2        1 MOL1        -0.2535
       2    H1      19.590559   15.421711   24.302727 H          1 MOL1         0.0845
       3    H2      18.147508   16.288968   23.510775 H          1 MOL1         0.0845
       4    C2      20.059672   16.742238   22.719145 C.2        1 MOL1        -0.1324
       5    H3      21.132323   16.558951   22.777962 H          1 MOL1         0.0833
       6    C3      19.622155   17.721739   21.652926 C.3        1 MOL1        -0.1813
       7    H4      18.537556   17.650972   21.493475 H          1 MOL1         0.0753
       8    H5      20.099575   17.462929   20.698374 H          1 MOL1         0.0753
       9    C4      19.990646   19.169115   22.040714 C.3        1 MOL1        -0.1855
      10    H6      19.515017   19.419005   22.999364 H          1 MOL1         0.0755
      11    H7      21.075803   19.241616   22.196364 H          1 MOL1         0.0755
      12    C5      19.553156   20.182760   20.959297 C.3        1 MOL1        -0.1855
      13    H8      18.465890   20.122815   20.811070 H          1 MOL1         0.0755
      14    H9      20.018116   19.913657   20.001192 H          1 MOL1         0.0755
      15    C6      19.943127   21.640738   21.315816 C.3        1 MOL1        -0.1958
      16    H10     21.023064   21.711513   21.493528 H          1 MOL1         0.0753
      17    H11     19.717108   22.298268   20.468145 H          1 MOL1         0.0753
      18    C7      19.211463   22.198379   22.533436 C.2        1 MOL1         0.6174
      19    O1      19.825135   22.299753   23.577515 O.co2      1 MOL1        -0.6695
      20    O2      18.049459   22.529021   22.401039 O.co2      1 MOL1        -0.6695
@<TRIPOS>BOND
    1     1     2    1
    2     1     3    1
    3     1     4    2
    4     4     5    1
    5     4     6    1
    6     6     7    1
    7     6     8    1
    8     6     9    1
    9     9    10    1
   10     9    11    1
   11     9    12    1
   12    12    13    1
   13    12    14    1
   14    12    15    1
   15    15    16    1
   16    15    17    1
   17    15    18    1
   18    18    19    1
   19    18    20    2
@<TRIPOS>SUBSTRUCTURE
       1 MOL1            1 RESIDUE      1      MOL     
@<SCITEGIC>MOL_PROPERTY
VConf Rank
SciTegic.value.IntegerValue
650

@<SCITEGIC>MOL_PROPERTY
Conf_Id
SciTegic.value.IntegerValue
81

@<SCITEGIC>MOL_PROPERTY
Delta U+W
SciTegic.value.DoubleValue
-0.051

@<SCITEGIC>MOL_PROPERTY
U+W
SciTegic.value.DoubleValue
-51.796

@<SCITEGIC>MOL_PROPERTY
Grad RMS
SciTegic.value.DoubleValue
0.000000

@<SCITEGIC>MOL_PROPERTY
U
SciTegic.value.DoubleValue
9.412

@<SCITEGIC>MOL_PROPERTY
W
SciTegic.value.DoubleValue
-61.209

@<SCITEGIC>MOL_PROPERTY
W(PB)
SciTegic.value.DoubleValue
-63.452

@<SCITEGIC>MOL_PROPERTY
W(SA)
SciTegic.value.DoubleValue
2.243

@<SCITEGIC>MOL_PROPERTY
Valence
SciTegic.value.DoubleValue
9.329

@<SCITEGIC>MOL_PROPERTY
Coulomb
SciTegic.value.DoubleValue
-0.323

@<SCITEGIC>MOL_PROPERTY
VdW
SciTegic.value.DoubleValue
0.406

@<SCITEGIC>MOL_PROPERTY
VdW6
SciTegic.value.DoubleValue
-6.640

@<SCITEGIC>MOL_PROPERTY
VdW12
SciTegic.value.DoubleValue
7.046

@<SCITEGIC>MOL_PROPERTY
Bond
SciTegic.value.DoubleValue
0.105

@<SCITEGIC>MOL_PROPERTY
Angle
SciTegic.value.DoubleValue
2.401

@<SCITEGIC>MOL_PROPERTY
Pdih
SciTegic.value.DoubleValue
6.823

@<SCITEGIC>MOL_PROPERTY
Idih
SciTegic.value.DoubleValue
0.000

@<SCITEGIC>MOL_PROPERTY
Tether
SciTegic.value.DoubleValue
0.000

@<TRIPOS>MOLECULE
guest-s22_confgen4.mol2 : confsearch ligand conformer 651
          20          19           1
SMALL
USER_CHARGES
 
@<TRIPOS>ATOM
       1    C1      21.232471   19.049875   24.861799 C.2        1 MOL1        -0.2535
       2    H1      22.269446   18.793851   24.650624 H          1 MOL1         0.0845
       3    H2      21.010394   19.476250   25.838544 H          1 MOL1         0.0845
       4    C2      20.267911   18.852824   23.959317 C.2        1 MOL1        -0.1324
       5    H3      19.235839   19.113784   24.191587 H          1 MOL1         0.0833
       6    C3      20.499808   18.260696   22.585587 C.3        1 MOL1        -0.1813
       7    H4      19.730952   17.509019   22.364738 H          1 MOL1         0.0753
       8    H5      21.457032   17.722429   22.571270 H          1 MOL1         0.0753
       9    C4      20.525440   19.337394   21.474384 C.3        1 MOL1        -0.1855
      10    H6      21.357210   20.027801   21.670167 H          1 MOL1         0.0755
      11    H7      20.751729   18.853025   20.514617 H          1 MOL1         0.0755
      12    C5      19.217200   20.158152   21.336709 C.3        1 MOL1        -0.1855
      13    H8      19.353067   20.906199   20.543521 H          1 MOL1         0.0755
      14    H9      19.041015   20.724490   22.260785 H          1 MOL1         0.0755
      15    C6      17.957653   19.310015   21.010526 C.3        1 MOL1        -0.1958
      16    H10     17.748402   18.602022   21.820465 H          1 MOL1         0.0753
      17    H11     17.084351   19.968921   20.941293 H          1 MOL1         0.0753
      18    C7      18.049623   18.537851   19.697573 C.2        1 MOL1         0.6174
      19    O1      18.176567   17.330149   19.746846 O.co2      1 MOL1        -0.6695
      20    O2      17.974119   19.164292   18.658664 O.co2      1 MOL1        -0.6695
@<TRIPOS>BOND
    1     1     2    1
    2     1     3    1
    3     1     4    2
    4     4     5    1
    5     4     6    1
    6     6     7    1
    7     6     8    1
    8     6     9    1
    9     9    10    1
   10     9    11    1
   11     9    12    1
   12    12    13    1
   13    12    14    1
   14    12    15    1
   15    15    16    1
   16    15    17    1
   17    15    18    1
   18    18    19    1
   19    18    20    2
@<TRIPOS>SUBSTRUCTURE
       1 MOL1            1 RESIDUE      1      MOL     
@<SCITEGIC>MOL_PROPERTY
VConf Rank
SciTegic.value.IntegerValue
651

@<SCITEGIC>MOL_PROPERTY
Conf_Id
SciTegic.value.IntegerValue
86

@<SCITEGIC>MOL_PROPERTY
Delta U+W
SciTegic.value.DoubleValue
1.248

@<SCITEGIC>MOL_PROPERTY
U+W
SciTegic.value.DoubleValue
-50.498

@<SCITEGIC>MOL_PROPERTY
Grad RMS
SciTegic.value.DoubleValue
0.000000

@<SCITEGIC>MOL_PROPERTY
U
SciTegic.value.DoubleValue
10.404

@<SCITEGIC>MOL_PROPERTY
W
SciTegic.value.DoubleValue
-60.901

@<SCITEGIC>MOL_PROPERTY
W(PB)
SciTegic.value.DoubleValue
-63.061

@<SCITEGIC>MOL_PROPERTY
W(SA)
SciTegic.value.DoubleValue
2.159

@<SCITEGIC>MOL_PROPERTY
Valence
SciTegic.value.DoubleValue
10.021

@<SCITEGIC>MOL_PROPERTY
Coulomb
SciTegic.value.DoubleValue
0.094

@<SCITEGIC>MOL_PROPERTY
VdW
SciTegic.value.DoubleValue
0.289

@<SCITEGIC>MOL_PROPERTY
VdW6
SciTegic.value.DoubleValue
-8.409

@<SCITEGIC>MOL_PROPERTY
VdW12
SciTegic.value.DoubleValue
8.698

@<SCITEGIC>MOL_PROPERTY
Bond
SciTegic.value.DoubleValue
0.179

@<SCITEGIC>MOL_PROPERTY
Angle
SciTegic.value.DoubleValue
2.939

@<SCITEGIC>MOL_PROPERTY
Pdih
SciTegic.value.DoubleValue
6.902

@<SCITEGIC>MOL_PROPERTY
Idih
SciTegic.value.DoubleValue
0.001

@<SCITEGIC>MOL_PROPERTY
Tether
SciTegic.value.DoubleValue
0.000

@<TRIPOS>MOLECULE
guest-s22_confgen4.mol2 : confsearch ligand conformer 652
          20          19           1
SMALL
USER_CHARGES
 
@<TRIPOS>ATOM
       1    C1      18.838036   21.861730   23.006767 C.2        1 MOL1        -0.2535
       2    H1      19.262816   22.836112   23.241812 H          1 MOL1         0.0845
       3    H2      18.060215   21.824350   22.245834 H          1 MOL1         0.0845
       4    C2      19.259958   20.756848   23.627447 C.2        1 MOL1        -0.1324
       5    H3      20.041311   20.815711   24.384686 H          1 MOL1         0.0833
       6    C3      18.718434   19.369699   23.354274 C.3        1 MOL1        -0.1813
       7    H4      17.810119   19.423134   22.738832 H          1 MOL1         0.0753
       8    H5      18.421488   18.907167   24.304909 H          1 MOL1         0.0753
       9    C4      19.757913   18.460178   22.661225 C.3        1 MOL1        -0.1855
      10    H6      20.668178   18.409323   23.274213 H          1 MOL1         0.0755
      11    H7      19.355956   17.438856   22.612817 H          1 MOL1         0.0755
      12    C5      20.113425   18.939846   21.233945 C.3        1 MOL1        -0.1855
      13    H8      20.521778   19.958203   21.281555 H          1 MOL1         0.0755
      14    H9      19.202240   18.994234   20.622279 H          1 MOL1         0.0755
      15    C6      21.147833   18.019340   20.535591 C.3        1 MOL1        -0.1958
      16    H10     21.454434   18.469066   19.583916 H          1 MOL1         0.0753
      17    H11     22.051527   17.930345   21.150566 H          1 MOL1         0.0753
      18    C7      20.625665   16.618212   20.230785 C.2        1 MOL1         0.6174
      19    O1      19.867524   16.481716   19.290722 O.co2      1 MOL1        -0.6695
      20    O2      20.998858   15.699085   20.932938 O.co2      1 MOL1        -0.6695
@<TRIPOS>BOND
    1     1     2    1
    2     1     3    1
    3     1     4    2
    4     4     5    1
    5     4     6    1
    6     6     7    1
    7     6     8    1
    8     6     9    1
    9     9    10    1
   10     9    11    1
   11     9    12    1
   12    12    13    1
   13    12    14    1
   14    12    15    1
   15    15    16    1
   16    15    17    1
   17    15    18    1
   18    18    19    1
   19    18    20    2
@<TRIPOS>SUBSTRUCTURE
       1 MOL1            1 RESIDUE      1      MOL     
@<SCITEGIC>MOL_PROPERTY
VConf Rank
SciTegic.value.IntegerValue
652

@<SCITEGIC>MOL_PROPERTY
Conf_Id
SciTegic.value.IntegerValue
28

@<SCITEGIC>MOL_PROPERTY
Delta U+W
SciTegic.value.DoubleValue
0.446

@<SCITEGIC>MOL_PROPERTY
U+W
SciTegic.value.DoubleValue
-51.299

@<SCITEGIC>MOL_PROPERTY
Grad RMS
SciTegic.value.DoubleValue
0.000000

@<SCITEGIC>MOL_PROPERTY
U
SciTegic.value.DoubleValue
9.295

@<SCITEGIC>MOL_PROPERTY
W
SciTegic.value.DoubleValue
-60.594

@<SCITEGIC>MOL_PROPERTY
W(PB)
SciTegic.value.DoubleValue
-62.806

@<SCITEGIC>MOL_PROPERTY
W(SA)
SciTegic.value.DoubleValue
2.212

@<SCITEGIC>MOL_PROPERTY
Valence
SciTegic.value.DoubleValue
9.495

@<SCITEGIC>MOL_PROPERTY
Coulomb
SciTegic.value.DoubleValue
-0.610

@<SCITEGIC>MOL_PROPERTY
VdW
SciTegic.value.DoubleValue
0.409

@<SCITEGIC>MOL_PROPERTY
VdW6
SciTegic.value.DoubleValue
-7.332

@<SCITEGIC>MOL_PROPERTY
VdW12
SciTegic.value.DoubleValue
7.741

@<SCITEGIC>MOL_PROPERTY
Bond
SciTegic.value.DoubleValue
0.126

@<SCITEGIC>MOL_PROPERTY
Angle
SciTegic.value.DoubleValue
2.497

@<SCITEGIC>MOL_PROPERTY
Pdih
SciTegic.value.DoubleValue
6.872

@<SCITEGIC>MOL_PROPERTY
Idih
SciTegic.value.DoubleValue
0.000

@<SCITEGIC>MOL_PROPERTY
Tether
SciTegic.value.DoubleValue
0.000

@<TRIPOS>MOLECULE
guest-s22_confgen4.mol2 : confsearch ligand conformer 653
          20          19           1
SMALL
USER_CHARGES
 
@<TRIPOS>ATOM
       1    C1      19.750349   17.135899   24.465388 C.2        1 MOL1        -0.2535
       2    H1      19.234269   18.024543   24.822415 H          1 MOL1         0.0845
       3    H2      19.700894   16.251492   25.098253 H          1 MOL1         0.0845
       4    C2      20.416167   17.109559   23.305229 C.2        1 MOL1        -0.1324
       5    H3      20.911684   16.188348   22.999659 H          1 MOL1         0.0833
       6    C3      20.574327   18.257092   22.321557 C.3        1 MOL1        -0.1813
       7    H4      20.114512   17.962681   21.369427 H          1 MOL1         0.0753
       8    H5      21.643079   18.392492   22.108983 H          1 MOL1         0.0753
       9    C4      19.979518   19.607442   22.792044 C.3        1 MOL1        -0.1855
      10    H6      18.893252   19.506774   22.922679 H          1 MOL1         0.0755
      11    H7      20.393323   19.856200   23.778745 H          1 MOL1         0.0755
      12    C5      20.281219   20.783623   21.830465 C.3        1 MOL1        -0.1855
      13    H8      21.368792   20.910407   21.743859 H          1 MOL1         0.0755
      14    H9      19.898582   21.711738   22.277230 H          1 MOL1         0.0755
      15    C6      19.672174   20.627502   20.410132 C.3        1 MOL1        -0.1958
      16    H10     19.945982   21.496727   19.800924 H          1 MOL1         0.0753
      17    H11     20.090287   19.750395   19.903413 H          1 MOL1         0.0753
      18    C7      18.149755   20.523502   20.392007 C.2        1 MOL1         0.6174
      19    O1      17.504644   21.518650   20.658395 O.co2      1 MOL1        -0.6695
      20    O2      17.648895   19.457677   20.091983 O.co2      1 MOL1        -0.6695
@<TRIPOS>BOND
    1     1     2    1
    2     1     3    1
    3     1     4    2
    4     4     5    1
    5     4     6    1
    6     6     7    1
    7     6     8    1
    8     6     9    1
    9     9    10    1
   10     9    11    1
   11     9    12    1
   12    12    13    1
   13    12    14    1
   14    12    15    1
   15    15    16    1
   16    15    17    1
   17    15    18    1
   18    18    19    1
   19    18    20    2
@<TRIPOS>SUBSTRUCTURE
       1 MOL1            1 RESIDUE      1      MOL     
@<SCITEGIC>MOL_PROPERTY
VConf Rank
SciTegic.value.IntegerValue
653

@<SCITEGIC>MOL_PROPERTY
Conf_Id
SciTegic.value.IntegerValue
53

@<SCITEGIC>MOL_PROPERTY
Delta U+W
SciTegic.value.DoubleValue
0.549

@<SCITEGIC>MOL_PROPERTY
U+W
SciTegic.value.DoubleValue
-51.197

@<SCITEGIC>MOL_PROPERTY
Grad RMS
SciTegic.value.DoubleValue
0.000000

@<SCITEGIC>MOL_PROPERTY
U
SciTegic.value.DoubleValue
10.870

@<SCITEGIC>MOL_PROPERTY
W
SciTegic.value.DoubleValue
-62.067

@<SCITEGIC>MOL_PROPERTY
W(PB)
SciTegic.value.DoubleValue
-64.228

@<SCITEGIC>MOL_PROPERTY
W(SA)
SciTegic.value.DoubleValue
2.161

@<SCITEGIC>MOL_PROPERTY
Valence
SciTegic.value.DoubleValue
8.803

@<SCITEGIC>MOL_PROPERTY
Coulomb
SciTegic.value.DoubleValue
1.020

@<SCITEGIC>MOL_PROPERTY
VdW
SciTegic.value.DoubleValue
1.048

@<SCITEGIC>MOL_PROPERTY
VdW6
SciTegic.value.DoubleValue
-8.312

@<SCITEGIC>MOL_PROPERTY
VdW12
SciTegic.value.DoubleValue
9.360

@<SCITEGIC>MOL_PROPERTY
Bond
SciTegic.value.DoubleValue
0.212

@<SCITEGIC>MOL_PROPERTY
Angle
SciTegic.value.DoubleValue
3.379

@<SCITEGIC>MOL_PROPERTY
Pdih
SciTegic.value.DoubleValue
5.211

@<SCITEGIC>MOL_PROPERTY
Idih
SciTegic.value.DoubleValue
0.001

@<SCITEGIC>MOL_PROPERTY
Tether
SciTegic.value.DoubleValue
0.000

@<TRIPOS>MOLECULE
guest-s22_confgen4.mol2 : confsearch ligand conformer 654
          20          19           1
SMALL
USER_CHARGES
 
@<TRIPOS>ATOM
       1    C1      19.719095   21.642409   22.531569 C.2        1 MOL1        -0.2535
       2    H1      18.670407   21.498468   22.280902 H          1 MOL1         0.0845
       3    H2      20.150544   22.617219   22.311295 H          1 MOL1         0.0845
       4    C2      20.456368   20.677118   23.091298 C.2        1 MOL1        -0.1324
       5    H3      21.502131   20.874471   23.325253 H          1 MOL1         0.0833
       6    C3      19.988065   19.275399   23.445934 C.3        1 MOL1        -0.1813
       7    H4      19.747074   19.245323   24.516644 H          1 MOL1         0.0753
       8    H5      20.827621   18.578196   23.329173 H          1 MOL1         0.0753
       9    C4      18.778440   18.740284   22.635853 C.3        1 MOL1        -0.1855
      10    H6      18.496716   17.757148   23.036993 H          1 MOL1         0.0755
      11    H7      17.908954   19.388321   22.807220 H          1 MOL1         0.0755
      12    C5      19.025724   18.606933   21.110100 C.3        1 MOL1        -0.1855
      13    H8      19.236791   19.595384   20.682349 H          1 MOL1         0.0755
      14    H9      18.098858   18.260359   20.632791 H          1 MOL1         0.0755
      15    C6      20.175536   17.635939   20.726140 C.3        1 MOL1        -0.1958
      16    H10     20.278956   17.610093   19.635176 H          1 MOL1         0.0753
      17    H11     21.132697   17.997172   21.119018 H          1 MOL1         0.0753
      18    C7      19.963199   16.199931   21.196481 C.2        1 MOL1         0.6174
      19    O1      20.652228   15.783718   22.107065 O.co2      1 MOL1        -0.6695
      20    O2      19.125163   15.528904   20.626457 O.co2      1 MOL1        -0.6695
@<TRIPOS>BOND
    1     1     2    1
    2     1     3    1
    3     1     4    2
    4     4     5    1
    5     4     6    1
    6     6     7    1
    7     6     8    1
    8     6     9    1
    9     9    10    1
   10     9    11    1
   11     9    12    1
   12    12    13    1
   13    12    14    1
   14    12    15    1
   15    15    16    1
   16    15    17    1
   17    15    18    1
   18    18    19    1
   19    18    20    2
@<TRIPOS>SUBSTRUCTURE
       1 MOL1            1 RESIDUE      1      MOL     
@<SCITEGIC>MOL_PROPERTY
VConf Rank
SciTegic.value.IntegerValue
654

@<SCITEGIC>MOL_PROPERTY
Conf_Id
SciTegic.value.IntegerValue
66

@<SCITEGIC>MOL_PROPERTY
Delta U+W
SciTegic.value.DoubleValue
1.737

@<SCITEGIC>MOL_PROPERTY
U+W
SciTegic.value.DoubleValue
-50.008

@<SCITEGIC>MOL_PROPERTY
Grad RMS
SciTegic.value.DoubleValue
0.000000

@<SCITEGIC>MOL_PROPERTY
U
SciTegic.value.DoubleValue
11.091

@<SCITEGIC>MOL_PROPERTY
W
SciTegic.value.DoubleValue
-61.099

@<SCITEGIC>MOL_PROPERTY
W(PB)
SciTegic.value.DoubleValue
-63.213

@<SCITEGIC>MOL_PROPERTY
W(SA)
SciTegic.value.DoubleValue
2.114

@<SCITEGIC>MOL_PROPERTY
Valence
SciTegic.value.DoubleValue
9.664

@<SCITEGIC>MOL_PROPERTY
Coulomb
SciTegic.value.DoubleValue
0.658

@<SCITEGIC>MOL_PROPERTY
VdW
SciTegic.value.DoubleValue
0.769

@<SCITEGIC>MOL_PROPERTY
VdW6
SciTegic.value.DoubleValue
-9.171

@<SCITEGIC>MOL_PROPERTY
VdW12
SciTegic.value.DoubleValue
9.940

@<SCITEGIC>MOL_PROPERTY
Bond
SciTegic.value.DoubleValue
0.244

@<SCITEGIC>MOL_PROPERTY
Angle
SciTegic.value.DoubleValue
3.658

@<SCITEGIC>MOL_PROPERTY
Pdih
SciTegic.value.DoubleValue
5.762

@<SCITEGIC>MOL_PROPERTY
Idih
SciTegic.value.DoubleValue
0.001

@<SCITEGIC>MOL_PROPERTY
Tether
SciTegic.value.DoubleValue
0.000

@<TRIPOS>MOLECULE
guest-s22_confgen4.mol2 : confsearch ligand conformer 655
          20          19           1
SMALL
USER_CHARGES
 
@<TRIPOS>ATOM
       1    C1      20.354398   18.794246   24.555906 C.2        1 MOL1        -0.2535
       2    H1      20.110872   19.853134   24.504586 H          1 MOL1         0.0845
       3    H2      20.145163   18.284574   25.494731 H          1 MOL1         0.0845
       4    C2      20.892066   18.135237   23.523675 C.2        1 MOL1        -0.1324
       5    H3      21.118576   17.074776   23.630708 H          1 MOL1         0.0833
       6    C3      21.230857   18.713068   22.159149 C.3        1 MOL1        -0.1813
       7    H4      21.063066   17.943081   21.395856 H          1 MOL1         0.0753
       8    H5      22.309675   18.913987   22.122167 H          1 MOL1         0.0753
       9    C4      20.460477   19.997796   21.756278 C.3        1 MOL1        -0.1855
      10    H6      20.669849   20.791998   22.484907 H          1 MOL1         0.0755
      11    H7      20.859121   20.361436   20.799472 H          1 MOL1         0.0755
      12    C5      18.927102   19.817466   21.618647 C.3        1 MOL1        -0.1855
      13    H8      18.476339   20.798870   21.416557 H          1 MOL1         0.0755
      14    H9      18.498399   19.472601   22.568847 H          1 MOL1         0.0755
      15    C6      18.517101   18.840097   20.486583 C.3        1 MOL1        -0.1958
      16    H10     18.978859   19.142061   19.539088 H          1 MOL1         0.0753
      17    H11     18.864034   17.825027   20.710440 H          1 MOL1         0.0753
      18    C7      17.008143   18.779468   20.277746 C.2        1 MOL1         0.6174
      19    O1      16.375682   17.943028   20.891843 O.co2      1 MOL1        -0.6695
      20    O2      16.502319   19.580427   19.516471 O.co2      1 MOL1        -0.6695
@<TRIPOS>BOND
    1     1     2    1
    2     1     3    1
    3     1     4    2
    4     4     5    1
    5     4     6    1
    6     6     7    1
    7     6     8    1
    8     6     9    1
    9     9    10    1
   10     9    11    1
   11     9    12    1
   12    12    13    1
   13    12    14    1
   14    12    15    1
   15    15    16    1
   16    15    17    1
   17    15    18    1
   18    18    19    1
   19    18    20    2
@<TRIPOS>SUBSTRUCTURE
       1 MOL1            1 RESIDUE      1      MOL     
@<SCITEGIC>MOL_PROPERTY
VConf Rank
SciTegic.value.IntegerValue
655

@<SCITEGIC>MOL_PROPERTY
Conf_Id
SciTegic.value.IntegerValue
64

@<SCITEGIC>MOL_PROPERTY
Delta U+W
SciTegic.value.DoubleValue
0.366

@<SCITEGIC>MOL_PROPERTY
U+W
SciTegic.value.DoubleValue
-51.379

@<SCITEGIC>MOL_PROPERTY
Grad RMS
SciTegic.value.DoubleValue
0.000000

@<SCITEGIC>MOL_PROPERTY
U
SciTegic.value.DoubleValue
10.000

@<SCITEGIC>MOL_PROPERTY
W
SciTegic.value.DoubleValue
-61.379

@<SCITEGIC>MOL_PROPERTY
W(PB)
SciTegic.value.DoubleValue
-63.541

@<SCITEGIC>MOL_PROPERTY
W(SA)
SciTegic.value.DoubleValue
2.162

@<SCITEGIC>MOL_PROPERTY
Valence
SciTegic.value.DoubleValue
9.398

@<SCITEGIC>MOL_PROPERTY
Coulomb
SciTegic.value.DoubleValue
-0.504

@<SCITEGIC>MOL_PROPERTY
VdW
SciTegic.value.DoubleValue
1.105

@<SCITEGIC>MOL_PROPERTY
VdW6
SciTegic.value.DoubleValue
-7.975

@<SCITEGIC>MOL_PROPERTY
VdW12
SciTegic.value.DoubleValue
9.080

@<SCITEGIC>MOL_PROPERTY
Bond
SciTegic.value.DoubleValue
0.216

@<SCITEGIC>MOL_PROPERTY
Angle
SciTegic.value.DoubleValue
3.417

@<SCITEGIC>MOL_PROPERTY
Pdih
SciTegic.value.DoubleValue
5.765

@<SCITEGIC>MOL_PROPERTY
Idih
SciTegic.value.DoubleValue
0.001

@<SCITEGIC>MOL_PROPERTY
Tether
SciTegic.value.DoubleValue
0.000

@<TRIPOS>MOLECULE
guest-s22_confgen4.mol2 : confsearch ligand conformer 656
          20          19           1
SMALL
USER_CHARGES
 
@<TRIPOS>ATOM
       1    C1      17.755587   19.447958   24.030456 C.2        1 MOL1        -0.2535
       2    H1      18.190143   18.615664   24.581695 H          1 MOL1         0.0845
       3    H2      16.669565   19.501570   23.977671 H          1 MOL1         0.0845
       4    C2      18.521735   20.367240   23.437203 C.2        1 MOL1        -0.1324
       5    H3      18.066758   21.191212   22.888150 H          1 MOL1         0.0833
       6    C3      20.035358   20.358701   23.466353 C.3        1 MOL1        -0.1813
       7    H4      20.403866   19.627246   24.198371 H          1 MOL1         0.0753
       8    H5      20.393199   21.340778   23.802980 H          1 MOL1         0.0753
       9    C4      20.646292   20.053878   22.080068 C.3        1 MOL1        -0.1855
      10    H6      20.277126   20.785098   21.347868 H          1 MOL1         0.0755
      11    H7      21.735418   20.186585   22.135528 H          1 MOL1         0.0755
      12    C5      20.333318   18.620732   21.592498 C.3        1 MOL1        -0.1855
      13    H8      19.246514   18.483664   21.507072 H          1 MOL1         0.0755
      14    H9      20.688065   17.891816   22.334201 H          1 MOL1         0.0755
      15    C6      20.992293   18.320890   20.223605 C.3        1 MOL1        -0.1958
      16    H10     20.637960   19.033424   19.469065 H          1 MOL1         0.0753
      17    H11     22.080532   18.436418   20.293426 H          1 MOL1         0.0753
      18    C7      20.697620   16.912177   19.720821 C.2        1 MOL1         0.6174
      19    O1      21.444993   16.015078   20.057565 O.co2      1 MOL1        -0.6695
      20    O2      19.720786   16.746486   19.017237 O.co2      1 MOL1        -0.6695
@<TRIPOS>BOND
    1     1     2    1
    2     1     3    1
    3     1     4    2
    4     4     5    1
    5     4     6    1
    6     6     7    1
    7     6     8    1
    8     6     9    1
    9     9    10    1
   10     9    11    1
   11     9    12    1
   12    12    13    1
   13    12    14    1
   14    12    15    1
   15    15    16    1
   16    15    17    1
   17    15    18    1
   18    18    19    1
   19    18    20    2
@<TRIPOS>SUBSTRUCTURE
       1 MOL1            1 RESIDUE      1      MOL     
@<SCITEGIC>MOL_PROPERTY
VConf Rank
SciTegic.value.IntegerValue
656

@<SCITEGIC>MOL_PROPERTY
Conf_Id
SciTegic.value.IntegerValue
42

@<SCITEGIC>MOL_PROPERTY
Delta U+W
SciTegic.value.DoubleValue
-0.601

@<SCITEGIC>MOL_PROPERTY
U+W
SciTegic.value.DoubleValue
-52.347

@<SCITEGIC>MOL_PROPERTY
Grad RMS
SciTegic.value.DoubleValue
0.000000

@<SCITEGIC>MOL_PROPERTY
U
SciTegic.value.DoubleValue
8.428

@<SCITEGIC>MOL_PROPERTY
W
SciTegic.value.DoubleValue
-60.774

@<SCITEGIC>MOL_PROPERTY
W(PB)
SciTegic.value.DoubleValue
-62.982

@<SCITEGIC>MOL_PROPERTY
W(SA)
SciTegic.value.DoubleValue
2.208

@<SCITEGIC>MOL_PROPERTY
Valence
SciTegic.value.DoubleValue
9.231

@<SCITEGIC>MOL_PROPERTY
Coulomb
SciTegic.value.DoubleValue
-1.304

@<SCITEGIC>MOL_PROPERTY
VdW
SciTegic.value.DoubleValue
0.501

@<SCITEGIC>MOL_PROPERTY
VdW6
SciTegic.value.DoubleValue
-6.515

@<SCITEGIC>MOL_PROPERTY
VdW12
SciTegic.value.DoubleValue
7.016

@<SCITEGIC>MOL_PROPERTY
Bond
SciTegic.value.DoubleValue
0.103

@<SCITEGIC>MOL_PROPERTY
Angle
SciTegic.value.DoubleValue
2.328

@<SCITEGIC>MOL_PROPERTY
Pdih
SciTegic.value.DoubleValue
6.799

@<SCITEGIC>MOL_PROPERTY
Idih
SciTegic.value.DoubleValue
0.000

@<SCITEGIC>MOL_PROPERTY
Tether
SciTegic.value.DoubleValue
0.000

@<TRIPOS>MOLECULE
guest-s22_confgen4.mol2 : confsearch ligand conformer 657
          20          19           1
SMALL
USER_CHARGES
 
@<TRIPOS>ATOM
       1    C1      16.678340   19.053092   22.363077 C.2        1 MOL1        -0.2535
       2    H1      16.680187   19.421106   23.387751 H          1 MOL1         0.0845
       3    H2      15.963294   18.271389   22.112587 H          1 MOL1         0.0845
       4    C2      17.521693   19.536412   21.447009 C.2        1 MOL1        -0.1324
       5    H3      17.505531   19.152233   20.427425 H          1 MOL1         0.0833
       6    C3      18.542843   20.620122   21.720379 C.3        1 MOL1        -0.1813
       7    H4      18.362670   21.083061   22.700090 H          1 MOL1         0.0753
       8    H5      18.427596   21.418093   20.974878 H          1 MOL1         0.0753
       9    C4      19.992153   20.087414   21.659721 C.3        1 MOL1        -0.1855
      10    H6      20.172272   19.630890   20.676623 H          1 MOL1         0.0755
      11    H7      20.686147   20.934878   21.742899 H          1 MOL1         0.0755
      12    C5      20.299989   19.066224   22.780292 C.3        1 MOL1        -0.1855
      13    H8      19.640261   18.192835   22.683835 H          1 MOL1         0.0755
      14    H9      20.079404   19.521475   23.755135 H          1 MOL1         0.0755
      15    C6      21.776981   18.593852   22.766780 C.3        1 MOL1        -0.1958
      16    H10     22.451515   19.455596   22.838394 H          1 MOL1         0.0753
      17    H11     21.968904   17.966630   23.645272 H          1 MOL1         0.0753
      18    C7      22.156015   17.780321   21.532555 C.2        1 MOL1         0.6174
      19    O1      22.802130   18.325741   20.659505 O.co2      1 MOL1        -0.6695
      20    O2      21.810045   16.616188   21.485705 O.co2      1 MOL1        -0.6695
@<TRIPOS>BOND
    1     1     2    1
    2     1     3    1
    3     1     4    2
    4     4     5    1
    5     4     6    1
    6     6     7    1
    7     6     8    1
    8     6     9    1
    9     9    10    1
   10     9    11    1
   11     9    12    1
   12    12    13    1
   13    12    14    1
   14    12    15    1
   15    15    16    1
   16    15    17    1
   17    15    18    1
   18    18    19    1
   19    18    20    2
@<TRIPOS>SUBSTRUCTURE
       1 MOL1            1 RESIDUE      1      MOL     
@<SCITEGIC>MOL_PROPERTY
VConf Rank
SciTegic.value.IntegerValue
657

@<SCITEGIC>MOL_PROPERTY
Conf_Id
SciTegic.value.IntegerValue
68

@<SCITEGIC>MOL_PROPERTY
Delta U+W
SciTegic.value.DoubleValue
0.492

@<SCITEGIC>MOL_PROPERTY
U+W
SciTegic.value.DoubleValue
-51.253

@<SCITEGIC>MOL_PROPERTY
Grad RMS
SciTegic.value.DoubleValue
0.000000

@<SCITEGIC>MOL_PROPERTY
U
SciTegic.value.DoubleValue
10.179

@<SCITEGIC>MOL_PROPERTY
W
SciTegic.value.DoubleValue
-61.432

@<SCITEGIC>MOL_PROPERTY
W(PB)
SciTegic.value.DoubleValue
-63.627

@<SCITEGIC>MOL_PROPERTY
W(SA)
SciTegic.value.DoubleValue
2.195

@<SCITEGIC>MOL_PROPERTY
Valence
SciTegic.value.DoubleValue
9.483

@<SCITEGIC>MOL_PROPERTY
Coulomb
SciTegic.value.DoubleValue
0.361

@<SCITEGIC>MOL_PROPERTY
VdW
SciTegic.value.DoubleValue
0.335

@<SCITEGIC>MOL_PROPERTY
VdW6
SciTegic.value.DoubleValue
-7.385

@<SCITEGIC>MOL_PROPERTY
VdW12
SciTegic.value.DoubleValue
7.720

@<SCITEGIC>MOL_PROPERTY
Bond
SciTegic.value.DoubleValue
0.125

@<SCITEGIC>MOL_PROPERTY
Angle
SciTegic.value.DoubleValue
2.487

@<SCITEGIC>MOL_PROPERTY
Pdih
SciTegic.value.DoubleValue
6.870

@<SCITEGIC>MOL_PROPERTY
Idih
SciTegic.value.DoubleValue
0.001

@<SCITEGIC>MOL_PROPERTY
Tether
SciTegic.value.DoubleValue
0.000

@<TRIPOS>MOLECULE
guest-s22_confgen4.mol2 : confsearch ligand conformer 658
          20          19           1
SMALL
USER_CHARGES
 
@<TRIPOS>ATOM
       1    C1      16.535259   18.907585   22.660144 C.2        1 MOL1        -0.2535
       2    H1      16.305722   19.782843   23.265724 H          1 MOL1         0.0845
       3    H2      15.961698   18.002063   22.850499 H          1 MOL1         0.0845
       4    C2      17.485101   18.938389   21.721768 C.2        1 MOL1        -0.1324
       5    H3      17.696841   18.051631   21.125051 H          1 MOL1         0.0833
       6    C3      18.317296   20.160837   21.397960 C.3        1 MOL1        -0.1813
       7    H4      17.817050   21.061266   21.779405 H          1 MOL1         0.0753
       8    H5      18.388920   20.286970   20.309402 H          1 MOL1         0.0753
       9    C4      19.734814   20.085824   22.008856 C.3        1 MOL1        -0.1855
      10    H6      20.239581   21.048806   21.851943 H          1 MOL1         0.0755
      11    H7      19.655010   19.948064   23.096171 H          1 MOL1         0.0755
      12    C5      20.595221   18.955856   21.395178 C.3        1 MOL1        -0.1855
      13    H8      20.626599   19.076173   20.303918 H          1 MOL1         0.0755
      14    H9      20.131524   17.979851   21.593209 H          1 MOL1         0.0755
      15    C6      22.046136   18.948957   21.942584 C.3        1 MOL1        -0.1958
      16    H10     22.641143   18.209450   21.393856 H          1 MOL1         0.0753
      17    H11     22.519325   19.924136   21.775610 H          1 MOL1         0.0753
      18    C7      22.147028   18.606653   23.426325 C.2        1 MOL1         0.6174
      19    O1      22.039646   17.441038   23.753304 O.co2      1 MOL1        -0.6695
      20    O2      22.349560   19.510399   24.213312 O.co2      1 MOL1        -0.6695
@<TRIPOS>BOND
    1     1     2    1
    2     1     3    1
    3     1     4    2
    4     4     5    1
    5     4     6    1
    6     6     7    1
    7     6     8    1
    8     6     9    1
    9     9    10    1
   10     9    11    1
   11     9    12    1
   12    12    13    1
   13    12    14    1
   14    12    15    1
   15    15    16    1
   16    15    17    1
   17    15    18    1
   18    18    19    1
   19    18    20    2
@<TRIPOS>SUBSTRUCTURE
       1 MOL1            1 RESIDUE      1      MOL     
@<SCITEGIC>MOL_PROPERTY
VConf Rank
SciTegic.value.IntegerValue
658

@<SCITEGIC>MOL_PROPERTY
Conf_Id
SciTegic.value.IntegerValue
87

@<SCITEGIC>MOL_PROPERTY
Delta U+W
SciTegic.value.DoubleValue
0.339

@<SCITEGIC>MOL_PROPERTY
U+W
SciTegic.value.DoubleValue
-51.407

@<SCITEGIC>MOL_PROPERTY
Grad RMS
SciTegic.value.DoubleValue
0.000000

@<SCITEGIC>MOL_PROPERTY
U
SciTegic.value.DoubleValue
10.461

@<SCITEGIC>MOL_PROPERTY
W
SciTegic.value.DoubleValue
-61.867

@<SCITEGIC>MOL_PROPERTY
W(PB)
SciTegic.value.DoubleValue
-64.045

@<SCITEGIC>MOL_PROPERTY
W(SA)
SciTegic.value.DoubleValue
2.178

@<SCITEGIC>MOL_PROPERTY
Valence
SciTegic.value.DoubleValue
9.555

@<SCITEGIC>MOL_PROPERTY
Coulomb
SciTegic.value.DoubleValue
0.483

@<SCITEGIC>MOL_PROPERTY
VdW
SciTegic.value.DoubleValue
0.423

@<SCITEGIC>MOL_PROPERTY
VdW6
SciTegic.value.DoubleValue
-7.223

@<SCITEGIC>MOL_PROPERTY
VdW12
SciTegic.value.DoubleValue
7.646

@<SCITEGIC>MOL_PROPERTY
Bond
SciTegic.value.DoubleValue
0.126

@<SCITEGIC>MOL_PROPERTY
Angle
SciTegic.value.DoubleValue
2.492

@<SCITEGIC>MOL_PROPERTY
Pdih
SciTegic.value.DoubleValue
6.936

@<SCITEGIC>MOL_PROPERTY
Idih
SciTegic.value.DoubleValue
0.001

@<SCITEGIC>MOL_PROPERTY
Tether
SciTegic.value.DoubleValue
0.000

@<TRIPOS>MOLECULE
guest-s22_confgen4.mol2 : confsearch ligand conformer 659
          20          19           1
SMALL
USER_CHARGES
 
@<TRIPOS>ATOM
       1    C1      17.702054   16.987435   22.819482 C.2        1 MOL1        -0.2535
       2    H1      16.754770   17.521232   22.763531 H          1 MOL1         0.0845
       3    H2      17.697366   15.928354   22.567797 H          1 MOL1         0.0845
       4    C2      18.828782   17.606935   23.180615 C.2        1 MOL1        -0.1324
       5    H3      19.765333   17.053584   23.239463 H          1 MOL1         0.0833
       6    C3      18.905950   19.071541   23.555558 C.3        1 MOL1        -0.1813
       7    H4      19.817788   19.268386   24.134988 H          1 MOL1         0.0753
       8    H5      18.069561   19.302665   24.228939 H          1 MOL1         0.0753
       9    C4      18.834454   20.027112   22.338620 C.3        1 MOL1        -0.1855
      10    H6      18.030492   19.711401   21.659720 H          1 MOL1         0.0755
      11    H7      18.544614   21.020650   22.706871 H          1 MOL1         0.0755
      12    C5      20.161579   20.185554   21.554569 C.3        1 MOL1        -0.1855
      13    H8      20.966060   20.487775   22.239050 H          1 MOL1         0.0755
      14    H9      20.041917   21.010054   20.838071 H          1 MOL1         0.0755
      15    C6      20.594668   18.918979   20.772596 C.3        1 MOL1        -0.1958
      16    H10     20.867959   18.114984   21.463237 H          1 MOL1         0.0753
      17    H11     19.766361   18.552513   20.154589 H          1 MOL1         0.0753
      18    C7      21.791649   19.168324   19.862270 C.2        1 MOL1         0.6174
      19    O1      22.905640   19.023796   20.325979 O.co2      1 MOL1        -0.6695
      20    O2      21.579357   19.521036   18.718851 O.co2      1 MOL1        -0.6695
@<TRIPOS>BOND
    1     1     2    1
    2     1     3    1
    3     1     4    2
    4     4     5    1
    5     4     6    1
    6     6     7    1
    7     6     8    1
    8     6     9    1
    9     9    10    1
   10     9    11    1
   11     9    12    1
   12    12    13    1
   13    12    14    1
   14    12    15    1
   15    15    16    1
   16    15    17    1
   17    15    18    1
   18    18    19    1
   19    18    20    2
@<TRIPOS>SUBSTRUCTURE
       1 MOL1            1 RESIDUE      1      MOL     
@<SCITEGIC>MOL_PROPERTY
VConf Rank
SciTegic.value.IntegerValue
659

@<SCITEGIC>MOL_PROPERTY
Conf_Id
SciTegic.value.IntegerValue
51

@<SCITEGIC>MOL_PROPERTY
Delta U+W
SciTegic.value.DoubleValue
1.709

@<SCITEGIC>MOL_PROPERTY
U+W
SciTegic.value.DoubleValue
-50.036

@<SCITEGIC>MOL_PROPERTY
Grad RMS
SciTegic.value.DoubleValue
0.000000

@<SCITEGIC>MOL_PROPERTY
U
SciTegic.value.DoubleValue
10.643

@<SCITEGIC>MOL_PROPERTY
W
SciTegic.value.DoubleValue
-60.679

@<SCITEGIC>MOL_PROPERTY
W(PB)
SciTegic.value.DoubleValue
-62.882

@<SCITEGIC>MOL_PROPERTY
W(SA)
SciTegic.value.DoubleValue
2.203

@<SCITEGIC>MOL_PROPERTY
Valence
SciTegic.value.DoubleValue
11.231

@<SCITEGIC>MOL_PROPERTY
Coulomb
SciTegic.value.DoubleValue
-1.077

@<SCITEGIC>MOL_PROPERTY
VdW
SciTegic.value.DoubleValue
0.489

@<SCITEGIC>MOL_PROPERTY
VdW6
SciTegic.value.DoubleValue
-7.546

@<SCITEGIC>MOL_PROPERTY
VdW12
SciTegic.value.DoubleValue
8.035

@<SCITEGIC>MOL_PROPERTY
Bond
SciTegic.value.DoubleValue
0.159

@<SCITEGIC>MOL_PROPERTY
Angle
SciTegic.value.DoubleValue
3.005

@<SCITEGIC>MOL_PROPERTY
Pdih
SciTegic.value.DoubleValue
8.065

@<SCITEGIC>MOL_PROPERTY
Idih
SciTegic.value.DoubleValue
0.002

@<SCITEGIC>MOL_PROPERTY
Tether
SciTegic.value.DoubleValue
0.000

@<TRIPOS>MOLECULE
guest-s22_confgen4.mol2 : confsearch ligand conformer 660
          20          19           1
SMALL
USER_CHARGES
 
@<TRIPOS>ATOM
       1    C1      17.174585   17.710880   22.314776 C.2        1 MOL1        -0.2535
       2    H1      16.446275   18.511663   22.431945 H          1 MOL1         0.0845
       3    H2      17.024193   16.805576   22.900291 H          1 MOL1         0.0845
       4    C2      18.215277   17.833409   21.486730 C.2        1 MOL1        -0.1324
       5    H3      18.928527   17.017392   21.376342 H          1 MOL1         0.0833
       6    C3      18.478636   19.056417   20.634383 C.3        1 MOL1        -0.1813
       7    H4      17.534531   19.362054   20.163578 H          1 MOL1         0.0753
       8    H5      19.156004   18.805065   19.807383 H          1 MOL1         0.0753
       9    C4      19.040394   20.258834   21.433003 C.3        1 MOL1        -0.1855
      10    H6      18.868050   21.167325   20.839979 H          1 MOL1         0.0755
      11    H7      18.469182   20.392801   22.361819 H          1 MOL1         0.0755
      12    C5      20.555998   20.183056   21.746548 C.3        1 MOL1        -0.1855
      13    H8      20.873512   21.155237   22.148464 H          1 MOL1         0.0755
      14    H9      21.122827   20.034990   20.817130 H          1 MOL1         0.0755
      15    C6      20.940780   19.083420   22.769296 C.3        1 MOL1        -0.1958
      16    H10     20.315171   19.163412   23.666257 H          1 MOL1         0.0753
      17    H11     20.777104   18.088157   22.344156 H          1 MOL1         0.0753
      18    C7      22.400693   19.163645   23.200386 C.2        1 MOL1         0.6174
      19    O1      23.227654   18.564312   22.541733 O.co2      1 MOL1        -0.6695
      20    O2      22.675850   19.840133   24.171743 O.co2      1 MOL1        -0.6695
@<TRIPOS>BOND
    1     1     2    1
    2     1     3    1
    3     1     4    2
    4     4     5    1
    5     4     6    1
    6     6     7    1
    7     6     8    1
    8     6     9    1
    9     9    10    1
   10     9    11    1
   11     9    12    1
   12    12    13    1
   13    12    14    1
   14    12    15    1
   15    15    16    1
   16    15    17    1
   17    15    18    1
   18    18    19    1
   19    18    20    2
@<TRIPOS>SUBSTRUCTURE
       1 MOL1            1 RESIDUE      1      MOL     
@<SCITEGIC>MOL_PROPERTY
VConf Rank
SciTegic.value.IntegerValue
660

@<SCITEGIC>MOL_PROPERTY
Conf_Id
SciTegic.value.IntegerValue
91

@<SCITEGIC>MOL_PROPERTY
Delta U+W
SciTegic.value.DoubleValue
1.604

@<SCITEGIC>MOL_PROPERTY
U+W
SciTegic.value.DoubleValue
-50.141

@<SCITEGIC>MOL_PROPERTY
Grad RMS
SciTegic.value.DoubleValue
0.000000

@<SCITEGIC>MOL_PROPERTY
U
SciTegic.value.DoubleValue
10.644

@<SCITEGIC>MOL_PROPERTY
W
SciTegic.value.DoubleValue
-60.786

@<SCITEGIC>MOL_PROPERTY
W(PB)
SciTegic.value.DoubleValue
-62.965

@<SCITEGIC>MOL_PROPERTY
W(SA)
SciTegic.value.DoubleValue
2.179

@<SCITEGIC>MOL_PROPERTY
Valence
SciTegic.value.DoubleValue
11.230

@<SCITEGIC>MOL_PROPERTY
Coulomb
SciTegic.value.DoubleValue
-1.075

@<SCITEGIC>MOL_PROPERTY
VdW
SciTegic.value.DoubleValue
0.489

@<SCITEGIC>MOL_PROPERTY
VdW6
SciTegic.value.DoubleValue
-7.547

@<SCITEGIC>MOL_PROPERTY
VdW12
SciTegic.value.DoubleValue
8.036

@<SCITEGIC>MOL_PROPERTY
Bond
SciTegic.value.DoubleValue
0.159

@<SCITEGIC>MOL_PROPERTY
Angle
SciTegic.value.DoubleValue
3.006

@<SCITEGIC>MOL_PROPERTY
Pdih
SciTegic.value.DoubleValue
8.064

@<SCITEGIC>MOL_PROPERTY
Idih
SciTegic.value.DoubleValue
0.002

@<SCITEGIC>MOL_PROPERTY
Tether
SciTegic.value.DoubleValue
0.000

@<TRIPOS>MOLECULE
guest-s22_confgen4.mol2 : confsearch ligand conformer 661
          20          19           1
SMALL
USER_CHARGES
 
@<TRIPOS>ATOM
       1    C1      17.425403   16.737113   20.212728 C.2        1 MOL1        -0.2535
       2    H1      16.619966   17.391446   20.542442 H          1 MOL1         0.0845
       3    H2      17.161833   15.716674   19.939760 H          1 MOL1         0.0845
       4    C2      18.688913   17.164702   20.146712 C.2        1 MOL1        -0.1324
       5    H3      19.480547   16.493335   19.814689 H          1 MOL1         0.0833
       6    C3      19.129713   18.565689   20.508066 C.3        1 MOL1        -0.1813
       7    H4      18.259534   19.232887   20.574700 H          1 MOL1         0.0753
       8    H5      19.773653   18.964897   19.713008 H          1 MOL1         0.0753
       9    C4      19.892947   18.581142   21.849001 C.3        1 MOL1        -0.1855
      10    H6      19.245982   18.177029   22.639895 H          1 MOL1         0.0755
      11    H7      20.765709   17.917262   21.780359 H          1 MOL1         0.0755
      12    C5      20.353226   20.004726   22.231972 C.3        1 MOL1        -0.1855
      13    H8      19.480768   20.669222   22.301300 H          1 MOL1         0.0755
      14    H9      20.999292   20.409910   21.440802 H          1 MOL1         0.0755
      15    C6      21.120173   20.019924   23.581030 C.3        1 MOL1        -0.1958
      16    H10     20.478847   19.622704   24.376537 H          1 MOL1         0.0753
      17    H11     21.996017   19.363643   23.516996 H          1 MOL1         0.0753
      18    C7      21.612678   21.394592   24.036053 C.2        1 MOL1         0.6174
      19    O1      22.218906   21.446192   25.087701 O.co2      1 MOL1        -0.6695
      20    O2      21.388967   22.372852   23.349316 O.co2      1 MOL1        -0.6695
@<TRIPOS>BOND
    1     1     2    1
    2     1     3    1
    3     1     4    2
    4     4     5    1
    5     4     6    1
    6     6     7    1
    7     6     8    1
    8     6     9    1
    9     9    10    1
   10     9    11    1
   11     9    12    1
   12    12    13    1
   13    12    14    1
   14    12    15    1
   15    15    16    1
   16    15    17    1
   17    15    18    1
   18    18    19    1
   19    18    20    2
@<TRIPOS>SUBSTRUCTURE
       1 MOL1            1 RESIDUE      1      MOL     
@<SCITEGIC>MOL_PROPERTY
VConf Rank
SciTegic.value.IntegerValue
661

@<SCITEGIC>MOL_PROPERTY
Conf_Id
SciTegic.value.IntegerValue
33

@<SCITEGIC>MOL_PROPERTY
Delta U+W
SciTegic.value.DoubleValue
0.000

@<SCITEGIC>MOL_PROPERTY
U+W
SciTegic.value.DoubleValue
-51.745

@<SCITEGIC>MOL_PROPERTY
Grad RMS
SciTegic.value.DoubleValue
0.000000

@<SCITEGIC>MOL_PROPERTY
U
SciTegic.value.DoubleValue
7.593

@<SCITEGIC>MOL_PROPERTY
W
SciTegic.value.DoubleValue
-59.338

@<SCITEGIC>MOL_PROPERTY
W(PB)
SciTegic.value.DoubleValue
-61.574

@<SCITEGIC>MOL_PROPERTY
W(SA)
SciTegic.value.DoubleValue
2.236

@<SCITEGIC>MOL_PROPERTY
Valence
SciTegic.value.DoubleValue
9.570

@<SCITEGIC>MOL_PROPERTY
Coulomb
SciTegic.value.DoubleValue
-3.091

@<SCITEGIC>MOL_PROPERTY
VdW
SciTegic.value.DoubleValue
1.114

@<SCITEGIC>MOL_PROPERTY
VdW6
SciTegic.value.DoubleValue
-6.064

@<SCITEGIC>MOL_PROPERTY
VdW12
SciTegic.value.DoubleValue
7.178

@<SCITEGIC>MOL_PROPERTY
Bond
SciTegic.value.DoubleValue
0.117

@<SCITEGIC>MOL_PROPERTY
Angle
SciTegic.value.DoubleValue
2.692

@<SCITEGIC>MOL_PROPERTY
Pdih
SciTegic.value.DoubleValue
6.761

@<SCITEGIC>MOL_PROPERTY
Idih
SciTegic.value.DoubleValue
0.000

@<SCITEGIC>MOL_PROPERTY
Tether
SciTegic.value.DoubleValue
0.000

@<TRIPOS>MOLECULE
guest-s22_confgen4.mol2 : confsearch ligand conformer 662
          20          19           1
SMALL
USER_CHARGES
 
@<TRIPOS>ATOM
       1    C1      21.784831   16.269301   22.985594 C.2        1 MOL1        -0.2535
       2    H1      21.033903   15.568228   22.624786 H          1 MOL1         0.0845
       3    H2      22.599432   15.866302   23.584990 H          1 MOL1         0.0845
       4    C2      21.711932   17.573677   22.708171 C.2        1 MOL1        -0.1324
       5    H3      22.473569   18.258853   23.079753 H          1 MOL1         0.0833
       6    C3      20.612715   18.204872   21.882920 C.3        1 MOL1        -0.1813
       7    H4      20.049297   17.430290   21.345167 H          1 MOL1         0.0753
       8    H5      21.062242   18.855940   21.122600 H          1 MOL1         0.0753
       9    C4      19.647207   19.018059   22.774172 C.3        1 MOL1        -0.1855
      10    H6      19.275592   18.367528   23.577946 H          1 MOL1         0.0755
      11    H7      20.195517   19.834178   23.264376 H          1 MOL1         0.0755
      12    C5      18.434356   19.593928   22.005051 C.3        1 MOL1        -0.1855
      13    H8      17.746620   20.055878   22.726934 H          1 MOL1         0.0755
      14    H9      17.877253   18.777410   21.525127 H          1 MOL1         0.0755
      15    C6      18.822594   20.652050   20.939864 C.3        1 MOL1        -0.1958
      16    H10     19.416159   21.451496   21.399157 H          1 MOL1         0.0753
      17    H11     19.437269   20.200954   20.152825 H          1 MOL1         0.0753
      18    C7      17.608850   21.288413   20.272153 C.2        1 MOL1         0.6174
      19    O1      17.154847   20.755122   19.279082 O.co2      1 MOL1        -0.6695
      20    O2      17.137181   22.289569   20.774099 O.co2      1 MOL1        -0.6695
@<TRIPOS>BOND
    1     1     2    1
    2     1     3    1
    3     1     4    2
    4     4     5    1
    5     4     6    1
    6     6     7    1
    7     6     8    1
    8     6     9    1
    9     9    10    1
   10     9    11    1
   11     9    12    1
   12    12    13    1
   13    12    14    1
   14    12    15    1
   15    15    16    1
   16    15    17    1
   17    15    18    1
   18    18    19    1
   19    18    20    2
@<TRIPOS>SUBSTRUCTURE
       1 MOL1            1 RESIDUE      1      MOL     
@<SCITEGIC>MOL_PROPERTY
VConf Rank
SciTegic.value.IntegerValue
662

@<SCITEGIC>MOL_PROPERTY
Conf_Id
SciTegic.value.IntegerValue
37

@<SCITEGIC>MOL_PROPERTY
Delta U+W
SciTegic.value.DoubleValue
-0.384

@<SCITEGIC>MOL_PROPERTY
U+W
SciTegic.value.DoubleValue
-52.130

@<SCITEGIC>MOL_PROPERTY
Grad RMS
SciTegic.value.DoubleValue
0.000000

@<SCITEGIC>MOL_PROPERTY
U
SciTegic.value.DoubleValue
7.491

@<SCITEGIC>MOL_PROPERTY
W
SciTegic.value.DoubleValue
-59.621

@<SCITEGIC>MOL_PROPERTY
W(PB)
SciTegic.value.DoubleValue
-61.853

@<SCITEGIC>MOL_PROPERTY
W(SA)
SciTegic.value.DoubleValue
2.232

@<SCITEGIC>MOL_PROPERTY
Valence
SciTegic.value.DoubleValue
9.604

@<SCITEGIC>MOL_PROPERTY
Coulomb
SciTegic.value.DoubleValue
-2.799

@<SCITEGIC>MOL_PROPERTY
VdW
SciTegic.value.DoubleValue
0.686

@<SCITEGIC>MOL_PROPERTY
VdW6
SciTegic.value.DoubleValue
-6.435

@<SCITEGIC>MOL_PROPERTY
VdW12
SciTegic.value.DoubleValue
7.121

@<SCITEGIC>MOL_PROPERTY
Bond
SciTegic.value.DoubleValue
0.124

@<SCITEGIC>MOL_PROPERTY
Angle
SciTegic.value.DoubleValue
2.493

@<SCITEGIC>MOL_PROPERTY
Pdih
SciTegic.value.DoubleValue
6.986

@<SCITEGIC>MOL_PROPERTY
Idih
SciTegic.value.DoubleValue
0.001

@<SCITEGIC>MOL_PROPERTY
Tether
SciTegic.value.DoubleValue
0.000

@<TRIPOS>MOLECULE
guest-s22_confgen4.mol2 : confsearch ligand conformer 663
          20          19           1
SMALL
USER_CHARGES
 
@<TRIPOS>ATOM
       1    C1      21.779289   20.720297   19.818953 C.2        1 MOL1        -0.2535
       2    H1      22.440768   21.263104   19.145902 H          1 MOL1         0.0845
       3    H2      20.766280   21.102427   19.925429 H          1 MOL1         0.0845
       4    C2      22.211059   19.637061   20.474765 C.2        1 MOL1        -0.1324
       5    H3      23.237582   19.302327   20.327011 H          1 MOL1         0.0833
       6    C3      21.410002   18.780957   21.441412 C.3        1 MOL1        -0.1813
       7    H4      21.932150   18.756735   22.407284 H          1 MOL1         0.0753
       8    H5      21.410594   17.744406   21.078509 H          1 MOL1         0.0753
       9    C4      19.949870   19.238910   21.665639 C.3        1 MOL1        -0.1855
      10    H6      19.942943   20.268597   22.048760 H          1 MOL1         0.0755
      11    H7      19.415735   19.245311   20.705563 H          1 MOL1         0.0755
      12    C5      19.207384   18.318117   22.658553 C.3        1 MOL1        -0.1855
      13    H8      19.736992   18.307328   23.621364 H          1 MOL1         0.0755
      14    H9      19.210871   17.286139   22.280912 H          1 MOL1         0.0755
      15    C6      17.745011   18.774602   22.884762 C.3        1 MOL1        -0.1958
      16    H10     17.724092   19.799298   23.274844 H          1 MOL1         0.0753
      17    H11     17.197988   18.778164   21.934312 H          1 MOL1         0.0753
      18    C7      16.990333   17.880495   23.862014 C.2        1 MOL1         0.6174
      19    O1      17.033977   18.157955   25.044283 O.co2      1 MOL1        -0.6695
      20    O2      16.395141   16.918912   23.417321 O.co2      1 MOL1        -0.6695
@<TRIPOS>BOND
    1     1     2    1
    2     1     3    1
    3     1     4    2
    4     4     5    1
    5     4     6    1
    6     6     7    1
    7     6     8    1
    8     6     9    1
    9     9    10    1
   10     9    11    1
   11     9    12    1
   12    12    13    1
   13    12    14    1
   14    12    15    1
   15    15    16    1
   16    15    17    1
   17    15    18    1
   18    18    19    1
   19    18    20    2
@<TRIPOS>SUBSTRUCTURE
       1 MOL1            1 RESIDUE      1      MOL     
@<SCITEGIC>MOL_PROPERTY
VConf Rank
SciTegic.value.IntegerValue
663

@<SCITEGIC>MOL_PROPERTY
Conf_Id
SciTegic.value.IntegerValue
44

@<SCITEGIC>MOL_PROPERTY
Delta U+W
SciTegic.value.DoubleValue
-1.440

@<SCITEGIC>MOL_PROPERTY
U+W
SciTegic.value.DoubleValue
-53.185

@<SCITEGIC>MOL_PROPERTY
Grad RMS
SciTegic.value.DoubleValue
0.000000

@<SCITEGIC>MOL_PROPERTY
U
SciTegic.value.DoubleValue
6.572

@<SCITEGIC>MOL_PROPERTY
W
SciTegic.value.DoubleValue
-59.757

@<SCITEGIC>MOL_PROPERTY
W(PB)
SciTegic.value.DoubleValue
-62.007

@<SCITEGIC>MOL_PROPERTY
W(SA)
SciTegic.value.DoubleValue
2.249

@<SCITEGIC>MOL_PROPERTY
Valence
SciTegic.value.DoubleValue
7.989

@<SCITEGIC>MOL_PROPERTY
Coulomb
SciTegic.value.DoubleValue
-2.697

@<SCITEGIC>MOL_PROPERTY
VdW
SciTegic.value.DoubleValue
1.281

@<SCITEGIC>MOL_PROPERTY
VdW6
SciTegic.value.DoubleValue
-6.467

@<SCITEGIC>MOL_PROPERTY
VdW12
SciTegic.value.DoubleValue
7.748

@<SCITEGIC>MOL_PROPERTY
Bond
SciTegic.value.DoubleValue
0.136

@<SCITEGIC>MOL_PROPERTY
Angle
SciTegic.value.DoubleValue
2.854

@<SCITEGIC>MOL_PROPERTY
Pdih
SciTegic.value.DoubleValue
4.997

@<SCITEGIC>MOL_PROPERTY
Idih
SciTegic.value.DoubleValue
0.001

@<SCITEGIC>MOL_PROPERTY
Tether
SciTegic.value.DoubleValue
0.000

@<TRIPOS>MOLECULE
guest-s22_confgen4.mol2 : confsearch ligand conformer 664
          20          19           1
SMALL
USER_CHARGES
 
@<TRIPOS>ATOM
       1    C1      18.933599   17.933315   25.083211 C.2        1 MOL1        -0.2535
       2    H1      18.447694   17.164131   24.485022 H          1 MOL1         0.0845
       3    H2      18.663917   17.993839   26.136237 H          1 MOL1         0.0845
       4    C2      19.824128   18.773449   24.549498 C.2        1 MOL1        -0.1324
       5    H3      20.298667   19.536759   25.165783 H          1 MOL1         0.0833
       6    C3      20.248834   18.749012   23.097973 C.3        1 MOL1        -0.1813
       7    H4      19.939017   17.803414   22.634877 H          1 MOL1         0.0753
       8    H5      21.344503   18.788813   23.035864 H          1 MOL1         0.0753
       9    C4      19.642083   19.939672   22.321995 C.3        1 MOL1        -0.1855
      10    H6      18.545772   19.868796   22.338488 H          1 MOL1         0.0755
      11    H7      19.900111   20.871994   22.842842 H          1 MOL1         0.0755
      12    C5      20.135986   20.039577   20.858984 C.3        1 MOL1        -0.1855
      13    H8      21.231681   20.120291   20.841375 H          1 MOL1         0.0755
      14    H9      19.749612   20.969810   20.419797 H          1 MOL1         0.0755
      15    C6      19.690034   18.848004   19.972227 C.3        1 MOL1        -0.1958
      16    H10     20.133970   17.912225   20.329916 H          1 MOL1         0.0753
      17    H11     18.600780   18.729923   20.016715 H          1 MOL1         0.0753
      18    C7      20.087629   19.020261   18.510660 C.2        1 MOL1         0.6174
      19    O1      19.306969   19.579396   17.765897 O.co2      1 MOL1        -0.6695
      20    O2      21.175797   18.608666   18.159673 O.co2      1 MOL1        -0.6695
@<TRIPOS>BOND
    1     1     2    1
    2     1     3    1
    3     1     4    2
    4     4     5    1
    5     4     6    1
    6     6     7    1
    7     6     8    1
    8     6     9    1
    9     9    10    1
   10     9    11    1
   11     9    12    1
   12    12    13    1
   13    12    14    1
   14    12    15    1
   15    15    16    1
   16    15    17    1
   17    15    18    1
   18    18    19    1
   19    18    20    2
@<TRIPOS>SUBSTRUCTURE
       1 MOL1            1 RESIDUE      1      MOL     
@<SCITEGIC>MOL_PROPERTY
VConf Rank
SciTegic.value.IntegerValue
664

@<SCITEGIC>MOL_PROPERTY
Conf_Id
SciTegic.value.IntegerValue
38

@<SCITEGIC>MOL_PROPERTY
Delta U+W
SciTegic.value.DoubleValue
-0.381

@<SCITEGIC>MOL_PROPERTY
U+W
SciTegic.value.DoubleValue
-52.126

@<SCITEGIC>MOL_PROPERTY
Grad RMS
SciTegic.value.DoubleValue
0.000000

@<SCITEGIC>MOL_PROPERTY
U
SciTegic.value.DoubleValue
7.601

@<SCITEGIC>MOL_PROPERTY
W
SciTegic.value.DoubleValue
-59.727

@<SCITEGIC>MOL_PROPERTY
W(PB)
SciTegic.value.DoubleValue
-61.964

@<SCITEGIC>MOL_PROPERTY
W(SA)
SciTegic.value.DoubleValue
2.236

@<SCITEGIC>MOL_PROPERTY
Valence
SciTegic.value.DoubleValue
9.602

@<SCITEGIC>MOL_PROPERTY
Coulomb
SciTegic.value.DoubleValue
-2.686

@<SCITEGIC>MOL_PROPERTY
VdW
SciTegic.value.DoubleValue
0.685

@<SCITEGIC>MOL_PROPERTY
VdW6
SciTegic.value.DoubleValue
-6.453

@<SCITEGIC>MOL_PROPERTY
VdW12
SciTegic.value.DoubleValue
7.139

@<SCITEGIC>MOL_PROPERTY
Bond
SciTegic.value.DoubleValue
0.125

@<SCITEGIC>MOL_PROPERTY
Angle
SciTegic.value.DoubleValue
2.485

@<SCITEGIC>MOL_PROPERTY
Pdih
SciTegic.value.DoubleValue
6.991

@<SCITEGIC>MOL_PROPERTY
Idih
SciTegic.value.DoubleValue
0.001

@<SCITEGIC>MOL_PROPERTY
Tether
SciTegic.value.DoubleValue
0.000

@<TRIPOS>MOLECULE
guest-s22_confgen4.mol2 : confsearch ligand conformer 665
          20          19           1
SMALL
USER_CHARGES
 
@<TRIPOS>ATOM
       1    C1      22.300843   17.325636   23.582380 C.2        1 MOL1        -0.2535
       2    H1      22.947221   17.388994   22.708447 H          1 MOL1         0.0845
       3    H2      22.772657   17.111776   24.539941 H          1 MOL1         0.0845
       4    C2      20.980741   17.504901   23.488263 C.2        1 MOL1        -0.1324
       5    H3      20.351559   17.438201   24.375586 H          1 MOL1         0.0833
       6    C3      20.255823   17.803915   22.194921 C.3        1 MOL1        -0.1813
       7    H4      19.389651   17.135960   22.096396 H          1 MOL1         0.0753
       8    H5      20.910604   17.601445   21.336429 H          1 MOL1         0.0753
       9    C4      19.784213   19.272356   22.147226 C.3        1 MOL1        -0.1855
      10    H6      19.127677   19.471577   23.005540 H          1 MOL1         0.0755
      11    H7      20.652725   19.937345   22.250901 H          1 MOL1         0.0755
      12    C5      19.038419   19.594067   20.832454 C.3        1 MOL1        -0.1855
      13    H8      18.162897   18.937700   20.730772 H          1 MOL1         0.0755
      14    H9      19.696720   19.377257   19.980271 H          1 MOL1         0.0755
      15    C6      18.582654   21.074185   20.752295 C.3        1 MOL1        -0.1958
      16    H10     19.442481   21.742918   20.880168 H          1 MOL1         0.0753
      17    H11     18.168073   21.276686   19.757764 H          1 MOL1         0.0753
      18    C7      17.515966   21.450831   21.776590 C.2        1 MOL1         0.6174
      19    O1      17.849675   22.115300   22.737886 O.co2      1 MOL1        -0.6695
      20    O2      16.376109   21.078184   21.579210 O.co2      1 MOL1        -0.6695
@<TRIPOS>BOND
    1     1     2    1
    2     1     3    1
    3     1     4    2
    4     4     5    1
    5     4     6    1
    6     6     7    1
    7     6     8    1
    8     6     9    1
    9     9    10    1
   10     9    11    1
   11     9    12    1
   12    12    13    1
   13    12    14    1
   14    12    15    1
   15    15    16    1
   16    15    17    1
   17    15    18    1
   18    18    19    1
   19    18    20    2
@<TRIPOS>SUBSTRUCTURE
       1 MOL1            1 RESIDUE      1      MOL     
@<SCITEGIC>MOL_PROPERTY
VConf Rank
SciTegic.value.IntegerValue
665

@<SCITEGIC>MOL_PROPERTY
Conf_Id
SciTegic.value.IntegerValue
58

@<SCITEGIC>MOL_PROPERTY
Delta U+W
SciTegic.value.DoubleValue
0.019

@<SCITEGIC>MOL_PROPERTY
U+W
SciTegic.value.DoubleValue
-51.727

@<SCITEGIC>MOL_PROPERTY
Grad RMS
SciTegic.value.DoubleValue
0.000000

@<SCITEGIC>MOL_PROPERTY
U
SciTegic.value.DoubleValue
8.963

@<SCITEGIC>MOL_PROPERTY
W
SciTegic.value.DoubleValue
-60.690

@<SCITEGIC>MOL_PROPERTY
W(PB)
SciTegic.value.DoubleValue
-62.934

@<SCITEGIC>MOL_PROPERTY
W(SA)
SciTegic.value.DoubleValue
2.244

@<SCITEGIC>MOL_PROPERTY
Valence
SciTegic.value.DoubleValue
9.327

@<SCITEGIC>MOL_PROPERTY
Coulomb
SciTegic.value.DoubleValue
-0.780

@<SCITEGIC>MOL_PROPERTY
VdW
SciTegic.value.DoubleValue
0.417

@<SCITEGIC>MOL_PROPERTY
VdW6
SciTegic.value.DoubleValue
-6.635

@<SCITEGIC>MOL_PROPERTY
VdW12
SciTegic.value.DoubleValue
7.052

@<SCITEGIC>MOL_PROPERTY
Bond
SciTegic.value.DoubleValue
0.105

@<SCITEGIC>MOL_PROPERTY
Angle
SciTegic.value.DoubleValue
2.399

@<SCITEGIC>MOL_PROPERTY
Pdih
SciTegic.value.DoubleValue
6.822

@<SCITEGIC>MOL_PROPERTY
Idih
SciTegic.value.DoubleValue
0.000

@<SCITEGIC>MOL_PROPERTY
Tether
SciTegic.value.DoubleValue
0.000

@<TRIPOS>MOLECULE
guest-s22_confgen4.mol2 : confsearch ligand conformer 666
          20          19           1
SMALL
USER_CHARGES
 
@<TRIPOS>ATOM
       1    C1      21.089553   20.916037   24.885611 C.2        1 MOL1        -0.2535
       2    H1      20.967766   20.045385   25.528035 H          1 MOL1         0.0845
       3    H2      21.162956   21.888823   25.368899 H          1 MOL1         0.0845
       4    C2      21.144597   20.799992   23.556261 C.2        1 MOL1        -0.1324
       5    H3      21.265953   21.684355   22.931092 H          1 MOL1         0.0833
       6    C3      21.050465   19.484721   22.815421 C.3        1 MOL1        -0.1813
       7    H4      21.188121   18.645772   23.511089 H          1 MOL1         0.0753
       8    H5      21.861289   19.419892   22.077527 H          1 MOL1         0.0753
       9    C4      19.689648   19.343372   22.101832 C.3        1 MOL1        -0.1855
      10    H6      18.881043   19.413484   22.842449 H          1 MOL1         0.0755
      11    H7      19.555468   20.182350   21.405022 H          1 MOL1         0.0755
      12    C5      19.578076   18.005170   21.336917 C.3        1 MOL1        -0.1855
      13    H8      19.728998   17.173401   22.038319 H          1 MOL1         0.0755
      14    H9      20.379229   17.936519   20.587827 H          1 MOL1         0.0755
      15    C6      18.204936   17.830753   20.637661 C.3        1 MOL1        -0.1958
      16    H10     18.135193   16.822269   20.213311 H          1 MOL1         0.0753
      17    H11     17.392761   17.924609   21.368703 H          1 MOL1         0.0753
      18    C7      17.956432   18.821142   19.503535 C.2        1 MOL1         0.6174
      19    O1      18.529346   18.637455   18.447540 O.co2      1 MOL1        -0.6695
      20    O2      17.189258   19.742699   19.701388 O.co2      1 MOL1        -0.6695
@<TRIPOS>BOND
    1     1     2    1
    2     1     3    1
    3     1     4    2
    4     4     5    1
    5     4     6    1
    6     6     7    1
    7     6     8    1
    8     6     9    1
    9     9    10    1
   10     9    11    1
   11     9    12    1
   12    12    13    1
   13    12    14    1
   14    12    15    1
   15    15    16    1
   16    15    17    1
   17    15    18    1
   18    18    19    1
   19    18    20    2
@<TRIPOS>SUBSTRUCTURE
       1 MOL1            1 RESIDUE      1      MOL     
@<SCITEGIC>MOL_PROPERTY
VConf Rank
SciTegic.value.IntegerValue
666

@<SCITEGIC>MOL_PROPERTY
Conf_Id
SciTegic.value.IntegerValue
54

@<SCITEGIC>MOL_PROPERTY
Delta U+W
SciTegic.value.DoubleValue
-0.048

@<SCITEGIC>MOL_PROPERTY
U+W
SciTegic.value.DoubleValue
-51.793

@<SCITEGIC>MOL_PROPERTY
Grad RMS
SciTegic.value.DoubleValue
0.000000

@<SCITEGIC>MOL_PROPERTY
U
SciTegic.value.DoubleValue
8.964

@<SCITEGIC>MOL_PROPERTY
W
SciTegic.value.DoubleValue
-60.756

@<SCITEGIC>MOL_PROPERTY
W(PB)
SciTegic.value.DoubleValue
-63.007

@<SCITEGIC>MOL_PROPERTY
W(SA)
SciTegic.value.DoubleValue
2.251

@<SCITEGIC>MOL_PROPERTY
Valence
SciTegic.value.DoubleValue
9.327

@<SCITEGIC>MOL_PROPERTY
Coulomb
SciTegic.value.DoubleValue
-0.780

@<SCITEGIC>MOL_PROPERTY
VdW
SciTegic.value.DoubleValue
0.417

@<SCITEGIC>MOL_PROPERTY
VdW6
SciTegic.value.DoubleValue
-6.635

@<SCITEGIC>MOL_PROPERTY
VdW12
SciTegic.value.DoubleValue
7.052

@<SCITEGIC>MOL_PROPERTY
Bond
SciTegic.value.DoubleValue
0.105

@<SCITEGIC>MOL_PROPERTY
Angle
SciTegic.value.DoubleValue
2.399

@<SCITEGIC>MOL_PROPERTY
Pdih
SciTegic.value.DoubleValue
6.822

@<SCITEGIC>MOL_PROPERTY
Idih
SciTegic.value.DoubleValue
0.000

@<SCITEGIC>MOL_PROPERTY
Tether
SciTegic.value.DoubleValue
0.000

@<TRIPOS>MOLECULE
guest-s22_confgen4.mol2 : confsearch ligand conformer 667
          20          19           1
SMALL
USER_CHARGES
 
@<TRIPOS>ATOM
       1    C1      17.804647   20.494323   19.643735 C.2        1 MOL1        -0.2535
       2    H1      17.658881   21.519009   19.306160 H          1 MOL1         0.0845
       3    H2      17.777817   19.709508   18.889511 H          1 MOL1         0.0845
       4    C2      18.011091   20.215283   20.933382 C.2        1 MOL1        -0.1324
       5    H3      18.030703   21.015707   21.672429 H          1 MOL1         0.0833
       6    C3      18.214261   18.816587   21.475801 C.3        1 MOL1        -0.1813
       7    H4      17.824559   18.081506   20.758641 H          1 MOL1         0.0753
       8    H5      17.632460   18.684322   22.397788 H          1 MOL1         0.0753
       9    C4      19.702242   18.500709   21.748441 C.3        1 MOL1        -0.1855
      10    H6      19.794067   17.436383   22.004880 H          1 MOL1         0.0755
      11    H7      20.282453   18.651642   20.827728 H          1 MOL1         0.0755
      12    C5      20.299693   19.356544   22.890677 C.3        1 MOL1        -0.1855
      13    H8      19.710782   19.217005   23.807819 H          1 MOL1         0.0755
      14    H9      20.228417   20.420137   22.627649 H          1 MOL1         0.0755
      15    C6      21.785013   19.014364   23.176892 C.3        1 MOL1        -0.1958
      16    H10     22.380304   19.116587   22.261462 H          1 MOL1         0.0753
      17    H11     22.192298   19.728857   23.901857 H          1 MOL1         0.0753
      18    C7      22.001394   17.614789   23.745402 C.2        1 MOL1         0.6174
      19    O1      22.450000   16.757404   23.010084 O.co2      1 MOL1        -0.6695
      20    O2      21.725116   17.422297   24.913192 O.co2      1 MOL1        -0.6695
@<TRIPOS>BOND
    1     1     2    1
    2     1     3    1
    3     1     4    2
    4     4     5    1
    5     4     6    1
    6     6     7    1
    7     6     8    1
    8     6     9    1
    9     9    10    1
   10     9    11    1
   11     9    12    1
   12    12    13    1
   13    12    14    1
   14    12    15    1
   15    15    16    1
   16    15    17    1
   17    15    18    1
   18    18    19    1
   19    18    20    2
@<TRIPOS>SUBSTRUCTURE
       1 MOL1            1 RESIDUE      1      MOL     
@<SCITEGIC>MOL_PROPERTY
VConf Rank
SciTegic.value.IntegerValue
667

@<SCITEGIC>MOL_PROPERTY
Conf_Id
SciTegic.value.IntegerValue
27

@<SCITEGIC>MOL_PROPERTY
Delta U+W
SciTegic.value.DoubleValue
0.478

@<SCITEGIC>MOL_PROPERTY
U+W
SciTegic.value.DoubleValue
-51.267

@<SCITEGIC>MOL_PROPERTY
Grad RMS
SciTegic.value.DoubleValue
0.000000

@<SCITEGIC>MOL_PROPERTY
U
SciTegic.value.DoubleValue
9.192

@<SCITEGIC>MOL_PROPERTY
W
SciTegic.value.DoubleValue
-60.459

@<SCITEGIC>MOL_PROPERTY
W(PB)
SciTegic.value.DoubleValue
-62.649

@<SCITEGIC>MOL_PROPERTY
W(SA)
SciTegic.value.DoubleValue
2.190

@<SCITEGIC>MOL_PROPERTY
Valence
SciTegic.value.DoubleValue
9.572

@<SCITEGIC>MOL_PROPERTY
Coulomb
SciTegic.value.DoubleValue
-0.884

@<SCITEGIC>MOL_PROPERTY
VdW
SciTegic.value.DoubleValue
0.504

@<SCITEGIC>MOL_PROPERTY
VdW6
SciTegic.value.DoubleValue
-7.168

@<SCITEGIC>MOL_PROPERTY
VdW12
SciTegic.value.DoubleValue
7.672

@<SCITEGIC>MOL_PROPERTY
Bond
SciTegic.value.DoubleValue
0.127

@<SCITEGIC>MOL_PROPERTY
Angle
SciTegic.value.DoubleValue
2.504

@<SCITEGIC>MOL_PROPERTY
Pdih
SciTegic.value.DoubleValue
6.941

@<SCITEGIC>MOL_PROPERTY
Idih
SciTegic.value.DoubleValue
0.001

@<SCITEGIC>MOL_PROPERTY
Tether
SciTegic.value.DoubleValue
0.000

@<TRIPOS>MOLECULE
guest-s22_confgen4.mol2 : confsearch ligand conformer 668
          20          19           1
SMALL
USER_CHARGES
 
@<TRIPOS>ATOM
       1    C1      22.756513   18.168786   23.096107 C.2        1 MOL1        -0.2535
       2    H1      23.197848   19.127510   23.363645 H          1 MOL1         0.0845
       3    H2      23.433196   17.375529   22.782990 H          1 MOL1         0.0845
       4    C2      21.436696   17.970525   23.145628 C.2        1 MOL1        -0.1324
       5    H3      21.016082   17.002045   22.876512 H          1 MOL1         0.0833
       6    C3      20.437208   19.022738   23.576524 C.3        1 MOL1        -0.1813
       7    H4      20.949062   19.806071   24.151807 H          1 MOL1         0.0753
       8    H5      19.695510   18.579036   24.254073 H          1 MOL1         0.0753
       9    C4      19.719748   19.679262   22.375571 C.3        1 MOL1        -0.1855
      10    H6      19.111795   20.517662   22.742117 H          1 MOL1         0.0755
      11    H7      20.467380   20.107417   21.693636 H          1 MOL1         0.0755
      12    C5      18.811948   18.693061   21.605280 C.3        1 MOL1        -0.1855
      13    H8      18.081597   18.246314   22.294019 H          1 MOL1         0.0755
      14    H9      19.413567   17.868655   21.198966 H          1 MOL1         0.0755
      15    C6      18.060383   19.389832   20.444367 C.3        1 MOL1        -0.1958
      16    H10     17.439689   20.207061   20.830904 H          1 MOL1         0.0753
      17    H11     18.776648   19.831085   19.740897 H          1 MOL1         0.0753
      18    C7      17.158535   18.437480   19.667358 C.2        1 MOL1         0.6174
      19    O1      17.630052   17.850828   18.713329 O.co2      1 MOL1        -0.6695
      20    O2      16.013211   18.294085   20.047318 O.co2      1 MOL1        -0.6695
@<TRIPOS>BOND
    1     1     2    1
    2     1     3    1
    3     1     4    2
    4     4     5    1
    5     4     6    1
    6     6     7    1
    7     6     8    1
    8     6     9    1
    9     9    10    1
   10     9    11    1
   11     9    12    1
   12    12    13    1
   13    12    14    1
   14    12    15    1
   15    15    16    1
   16    15    17    1
   17    15    18    1
   18    18    19    1
   19    18    20    2
@<TRIPOS>SUBSTRUCTURE
       1 MOL1            1 RESIDUE      1      MOL     
@<SCITEGIC>MOL_PROPERTY
VConf Rank
SciTegic.value.IntegerValue
668

@<SCITEGIC>MOL_PROPERTY
Conf_Id
SciTegic.value.IntegerValue
41

@<SCITEGIC>MOL_PROPERTY
Delta U+W
SciTegic.value.DoubleValue
-0.634

@<SCITEGIC>MOL_PROPERTY
U+W
SciTegic.value.DoubleValue
-52.379

@<SCITEGIC>MOL_PROPERTY
Grad RMS
SciTegic.value.DoubleValue
0.000000

@<SCITEGIC>MOL_PROPERTY
U
SciTegic.value.DoubleValue
7.828

@<SCITEGIC>MOL_PROPERTY
W
SciTegic.value.DoubleValue
-60.207

@<SCITEGIC>MOL_PROPERTY
W(PB)
SciTegic.value.DoubleValue
-62.449

@<SCITEGIC>MOL_PROPERTY
W(SA)
SciTegic.value.DoubleValue
2.242

@<SCITEGIC>MOL_PROPERTY
Valence
SciTegic.value.DoubleValue
9.300

@<SCITEGIC>MOL_PROPERTY
Coulomb
SciTegic.value.DoubleValue
-2.080

@<SCITEGIC>MOL_PROPERTY
VdW
SciTegic.value.DoubleValue
0.608

@<SCITEGIC>MOL_PROPERTY
VdW6
SciTegic.value.DoubleValue
-6.341

@<SCITEGIC>MOL_PROPERTY
VdW12
SciTegic.value.DoubleValue
6.949

@<SCITEGIC>MOL_PROPERTY
Bond
SciTegic.value.DoubleValue
0.103

@<SCITEGIC>MOL_PROPERTY
Angle
SciTegic.value.DoubleValue
2.334

@<SCITEGIC>MOL_PROPERTY
Pdih
SciTegic.value.DoubleValue
6.862

@<SCITEGIC>MOL_PROPERTY
Idih
SciTegic.value.DoubleValue
0.001

@<SCITEGIC>MOL_PROPERTY
Tether
SciTegic.value.DoubleValue
0.000

@<TRIPOS>MOLECULE
guest-s22_confgen4.mol2 : confsearch ligand conformer 669
          20          19           1
SMALL
USER_CHARGES
 
@<TRIPOS>ATOM
       1    C1      17.163543   20.762263   22.938600 C.2        1 MOL1        -0.2535
       2    H1      16.158915   20.764665   23.358070 H          1 MOL1         0.0845
       3    H2      17.683659   21.716938   22.878352 H          1 MOL1         0.0845
       4    C2      17.732923   19.629881   22.517611 C.2        1 MOL1        -0.1324
       5    H3      17.195679   18.684263   22.587186 H          1 MOL1         0.0833
       6    C3      19.121638   19.548568   21.923930 C.3        1 MOL1        -0.1813
       7    H4      19.479803   20.551592   21.655539 H          1 MOL1         0.0753
       8    H5      19.081935   18.964556   20.995324 H          1 MOL1         0.0753
       9    C4      20.111022   18.895037   22.914481 C.3        1 MOL1        -0.1855
      10    H6      20.062545   19.433376   23.871038 H          1 MOL1         0.0755
      11    H7      19.793576   17.864299   23.124401 H          1 MOL1         0.0755
      12    C5      21.578163   18.902050   22.418860 C.3        1 MOL1        -0.1855
      13    H8      22.220752   18.492506   23.210529 H          1 MOL1         0.0755
      14    H9      21.903139   19.939952   22.265378 H          1 MOL1         0.0755
      15    C6      21.819161   18.094838   21.113967 C.3        1 MOL1        -0.1958
      16    H10     21.248827   18.523821   20.282283 H          1 MOL1         0.0753
      17    H11     22.876571   18.165672   20.833660 H          1 MOL1         0.0753
      18    C7      21.478075   16.611718   21.226892 C.2        1 MOL1         0.6174
      19    O1      22.216350   15.902952   21.882641 O.co2      1 MOL1        -0.6695
      20    O2      20.494924   16.200633   20.642618 O.co2      1 MOL1        -0.6695
@<TRIPOS>BOND
    1     1     2    1
    2     1     3    1
    3     1     4    2
    4     4     5    1
    5     4     6    1
    6     6     7    1
    7     6     8    1
    8     6     9    1
    9     9    10    1
   10     9    11    1
   11     9    12    1
   12    12    13    1
   13    12    14    1
   14    12    15    1
   15    15    16    1
   16    15    17    1
   17    15    18    1
   18    18    19    1
   19    18    20    2
@<TRIPOS>SUBSTRUCTURE
       1 MOL1            1 RESIDUE      1      MOL     
@<SCITEGIC>MOL_PROPERTY
VConf Rank
SciTegic.value.IntegerValue
669

@<SCITEGIC>MOL_PROPERTY
Conf_Id
SciTegic.value.IntegerValue
84

@<SCITEGIC>MOL_PROPERTY
Delta U+W
SciTegic.value.DoubleValue
0.942

@<SCITEGIC>MOL_PROPERTY
U+W
SciTegic.value.DoubleValue
-50.803

@<SCITEGIC>MOL_PROPERTY
Grad RMS
SciTegic.value.DoubleValue
0.000000

@<SCITEGIC>MOL_PROPERTY
U
SciTegic.value.DoubleValue
10.196

@<SCITEGIC>MOL_PROPERTY
W
SciTegic.value.DoubleValue
-60.999

@<SCITEGIC>MOL_PROPERTY
W(PB)
SciTegic.value.DoubleValue
-63.182

@<SCITEGIC>MOL_PROPERTY
W(SA)
SciTegic.value.DoubleValue
2.182

@<SCITEGIC>MOL_PROPERTY
Valence
SciTegic.value.DoubleValue
9.837

@<SCITEGIC>MOL_PROPERTY
Coulomb
SciTegic.value.DoubleValue
0.032

@<SCITEGIC>MOL_PROPERTY
VdW
SciTegic.value.DoubleValue
0.328

@<SCITEGIC>MOL_PROPERTY
VdW6
SciTegic.value.DoubleValue
-7.642

@<SCITEGIC>MOL_PROPERTY
VdW12
SciTegic.value.DoubleValue
7.969

@<SCITEGIC>MOL_PROPERTY
Bond
SciTegic.value.DoubleValue
0.151

@<SCITEGIC>MOL_PROPERTY
Angle
SciTegic.value.DoubleValue
2.748

@<SCITEGIC>MOL_PROPERTY
Pdih
SciTegic.value.DoubleValue
6.937

@<SCITEGIC>MOL_PROPERTY
Idih
SciTegic.value.DoubleValue
0.001

@<SCITEGIC>MOL_PROPERTY
Tether
SciTegic.value.DoubleValue
0.000

@<TRIPOS>MOLECULE
guest-s22_confgen4.mol2 : confsearch ligand conformer 670
          20          19           1
SMALL
USER_CHARGES
 
@<TRIPOS>ATOM
       1    C1      21.986120   21.782720   22.330605 C.2        1 MOL1        -0.2535
       2    H1      22.905337   22.115822   22.809504 H          1 MOL1         0.0845
       3    H2      21.910851   21.904776   21.251244 H          1 MOL1         0.0845
       4    C2      20.993118   21.243671   23.042670 C.2        1 MOL1        -0.1324
       5    H3      21.088901   21.129635   24.122233 H          1 MOL1         0.0833
       6    C3      19.689230   20.759852   22.448144 C.3        1 MOL1        -0.1813
       7    H4      19.573490   21.140921   21.424338 H          1 MOL1         0.0753
       8    H5      18.848974   21.159903   23.031250 H          1 MOL1         0.0753
       9    C4      19.621660   19.218340   22.432832 C.3        1 MOL1        -0.1855
      10    H6      20.468467   18.824883   21.853359 H          1 MOL1         0.0755
      11    H7      19.733248   18.836645   23.456993 H          1 MOL1         0.0755
      12    C5      18.293069   18.707435   21.831039 C.3        1 MOL1        -0.1855
      13    H8      18.184843   19.075885   20.801357 H          1 MOL1         0.0755
      14    H9      17.452672   19.121120   22.404770 H          1 MOL1         0.0755
      15    C6      18.192191   17.159958   21.835891 C.3        1 MOL1        -0.1958
      16    H10     18.325420   16.774693   22.854063 H          1 MOL1         0.0753
      17    H11     17.190061   16.857014   21.510412 H          1 MOL1         0.0753
      18    C7      19.197774   16.469999   20.918474 C.2        1 MOL1         0.6174
      19    O1      20.155133   15.918475   21.424692 O.co2      1 MOL1        -0.6695
      20    O2      18.989014   16.491667   19.721371 O.co2      1 MOL1        -0.6695
@<TRIPOS>BOND
    1     1     2    1
    2     1     3    1
    3     1     4    2
    4     4     5    1
    5     4     6    1
    6     6     7    1
    7     6     8    1
    8     6     9    1
    9     9    10    1
   10     9    11    1
   11     9    12    1
   12    12    13    1
   13    12    14    1
   14    12    15    1
   15    15    16    1
   16    15    17    1
   17    15    18    1
   18    18    19    1
   19    18    20    2
@<TRIPOS>SUBSTRUCTURE
       1 MOL1            1 RESIDUE      1      MOL     
@<SCITEGIC>MOL_PROPERTY
VConf Rank
SciTegic.value.IntegerValue
670

@<SCITEGIC>MOL_PROPERTY
Conf_Id
SciTegic.value.IntegerValue
81

@<SCITEGIC>MOL_PROPERTY
Delta U+W
SciTegic.value.DoubleValue
-0.051

@<SCITEGIC>MOL_PROPERTY
U+W
SciTegic.value.DoubleValue
-51.796

@<SCITEGIC>MOL_PROPERTY
Grad RMS
SciTegic.value.DoubleValue
0.000000

@<SCITEGIC>MOL_PROPERTY
U
SciTegic.value.DoubleValue
9.412

@<SCITEGIC>MOL_PROPERTY
W
SciTegic.value.DoubleValue
-61.209

@<SCITEGIC>MOL_PROPERTY
W(PB)
SciTegic.value.DoubleValue
-63.452

@<SCITEGIC>MOL_PROPERTY
W(SA)
SciTegic.value.DoubleValue
2.243

@<SCITEGIC>MOL_PROPERTY
Valence
SciTegic.value.DoubleValue
9.329

@<SCITEGIC>MOL_PROPERTY
Coulomb
SciTegic.value.DoubleValue
-0.323

@<SCITEGIC>MOL_PROPERTY
VdW
SciTegic.value.DoubleValue
0.406

@<SCITEGIC>MOL_PROPERTY
VdW6
SciTegic.value.DoubleValue
-6.640

@<SCITEGIC>MOL_PROPERTY
VdW12
SciTegic.value.DoubleValue
7.046

@<SCITEGIC>MOL_PROPERTY
Bond
SciTegic.value.DoubleValue
0.105

@<SCITEGIC>MOL_PROPERTY
Angle
SciTegic.value.DoubleValue
2.401

@<SCITEGIC>MOL_PROPERTY
Pdih
SciTegic.value.DoubleValue
6.823

@<SCITEGIC>MOL_PROPERTY
Idih
SciTegic.value.DoubleValue
0.000

@<SCITEGIC>MOL_PROPERTY
Tether
SciTegic.value.DoubleValue
0.000

@<TRIPOS>MOLECULE
guest-s22_confgen4.mol2 : confsearch ligand conformer 671
          20          19           1
SMALL
USER_CHARGES
 
@<TRIPOS>ATOM
       1    C1      20.132171   16.578136   20.038335 C.2        1 MOL1        -0.2535
       2    H1      19.323130   15.868521   20.203744 H          1 MOL1         0.0845
       3    H2      20.727319   16.458001   19.134725 H          1 MOL1         0.0845
       4    C2      20.385995   17.560933   20.906298 C.2        1 MOL1        -0.1324
       5    H3      21.202092   18.259254   20.723111 H          1 MOL1         0.0833
       6    C3      19.606197   17.786502   22.184015 C.3        1 MOL1        -0.1813
       7    H4      20.294943   17.981840   23.016124 H          1 MOL1         0.0753
       8    H5      19.064026   16.870170   22.453463 H          1 MOL1         0.0753
       9    C4      18.584630   18.941908   22.056958 C.3        1 MOL1        -0.1855
      10    H6      17.854669   18.684318   21.277446 H          1 MOL1         0.0755
      11    H7      18.015320   19.018226   22.993458 H          1 MOL1         0.0755
      12    C5      19.205844   20.322619   21.722560 C.3        1 MOL1        -0.1855
      13    H8      18.396094   21.059336   21.629092 H          1 MOL1         0.0755
      14    H9      19.690191   20.277733   20.738137 H          1 MOL1         0.0755
      15    C6      20.229048   20.838014   22.771183 C.3        1 MOL1        -0.1958
      16    H10     21.089901   20.162817   22.835089 H          1 MOL1         0.0753
      17    H11     20.620502   21.809933   22.449090 H          1 MOL1         0.0753
      18    C7      19.647759   21.023073   24.169896 C.2        1 MOL1         0.6174
      19    O1      19.979006   20.241605   25.039763 O.co2      1 MOL1        -0.6695
      20    O2      18.891392   21.956100   24.356530 O.co2      1 MOL1        -0.6695
@<TRIPOS>BOND
    1     1     2    1
    2     1     3    1
    3     1     4    2
    4     4     5    1
    5     4     6    1
    6     6     7    1
    7     6     8    1
    8     6     9    1
    9     9    10    1
   10     9    11    1
   11     9    12    1
   12    12    13    1
   13    12    14    1
   14    12    15    1
   15    15    16    1
   16    15    17    1
   17    15    18    1
   18    18    19    1
   19    18    20    2
@<TRIPOS>SUBSTRUCTURE
       1 MOL1            1 RESIDUE      1      MOL     
@<SCITEGIC>MOL_PROPERTY
VConf Rank
SciTegic.value.IntegerValue
671

@<SCITEGIC>MOL_PROPERTY
Conf_Id
SciTegic.value.IntegerValue
86

@<SCITEGIC>MOL_PROPERTY
Delta U+W
SciTegic.value.DoubleValue
1.248

@<SCITEGIC>MOL_PROPERTY
U+W
SciTegic.value.DoubleValue
-50.498

@<SCITEGIC>MOL_PROPERTY
Grad RMS
SciTegic.value.DoubleValue
0.000000

@<SCITEGIC>MOL_PROPERTY
U
SciTegic.value.DoubleValue
10.404

@<SCITEGIC>MOL_PROPERTY
W
SciTegic.value.DoubleValue
-60.901

@<SCITEGIC>MOL_PROPERTY
W(PB)
SciTegic.value.DoubleValue
-63.061

@<SCITEGIC>MOL_PROPERTY
W(SA)
SciTegic.value.DoubleValue
2.159

@<SCITEGIC>MOL_PROPERTY
Valence
SciTegic.value.DoubleValue
10.021

@<SCITEGIC>MOL_PROPERTY
Coulomb
SciTegic.value.DoubleValue
0.094

@<SCITEGIC>MOL_PROPERTY
VdW
SciTegic.value.DoubleValue
0.289

@<SCITEGIC>MOL_PROPERTY
VdW6
SciTegic.value.DoubleValue
-8.409

@<SCITEGIC>MOL_PROPERTY
VdW12
SciTegic.value.DoubleValue
8.698

@<SCITEGIC>MOL_PROPERTY
Bond
SciTegic.value.DoubleValue
0.179

@<SCITEGIC>MOL_PROPERTY
Angle
SciTegic.value.DoubleValue
2.939

@<SCITEGIC>MOL_PROPERTY
Pdih
SciTegic.value.DoubleValue
6.902

@<SCITEGIC>MOL_PROPERTY
Idih
SciTegic.value.DoubleValue
0.001

@<SCITEGIC>MOL_PROPERTY
Tether
SciTegic.value.DoubleValue
0.000

@<TRIPOS>MOLECULE
guest-s22_confgen4.mol2 : confsearch ligand conformer 672
          20          19           1
SMALL
USER_CHARGES
 
@<TRIPOS>ATOM
       1    C1      18.991114   21.187499   19.876024 C.2        1 MOL1        -0.2535
       2    H1      19.272308   21.477464   18.865106 H          1 MOL1         0.0845
       3    H2      17.951888   20.911886   20.047687 H          1 MOL1         0.0845
       4    C2      19.889878   21.168402   20.863892 C.2        1 MOL1        -0.1324
       5    H3      20.925750   21.445800   20.670477 H          1 MOL1         0.0833
       6    C3      19.574401   20.776757   22.291878 C.3        1 MOL1        -0.1813
       7    H4      18.488533   20.710646   22.444131 H          1 MOL1         0.0753
       8    H5      19.934346   21.564113   22.967399 H          1 MOL1         0.0753
       9    C4      20.233517   19.437559   22.692097 C.3        1 MOL1        -0.1855
      10    H6      21.319151   19.501500   22.536421 H          1 MOL1         0.0755
      11    H7      20.080750   19.277272   23.768192 H          1 MOL1         0.0755
      12    C5      19.661702   18.232881   21.907638 C.3        1 MOL1        -0.1855
      13    H8      19.819868   18.388596   20.832090 H          1 MOL1         0.0755
      14    H9      18.575325   18.171538   22.060527 H          1 MOL1         0.0755
      15    C6      20.315989   16.888346   22.318936 C.3        1 MOL1        -0.1958
      16    H10     19.965934   16.091703   21.652030 H          1 MOL1         0.0753
      17    H11     21.404873   16.945472   22.201270 H          1 MOL1         0.0753
      18    C7      20.002122   16.457143   23.748718 C.2        1 MOL1         0.6174
      19    O1      18.902301   15.993810   23.978596 O.co2      1 MOL1        -0.6695
      20    O2      20.867956   16.584771   24.592004 O.co2      1 MOL1        -0.6695
@<TRIPOS>BOND
    1     1     2    1
    2     1     3    1
    3     1     4    2
    4     4     5    1
    5     4     6    1
    6     6     7    1
    7     6     8    1
    8     6     9    1
    9     9    10    1
   10     9    11    1
   11     9    12    1
   12    12    13    1
   13    12    14    1
   14    12    15    1
   15    15    16    1
   16    15    17    1
   17    15    18    1
   18    18    19    1
   19    18    20    2
@<TRIPOS>SUBSTRUCTURE
       1 MOL1            1 RESIDUE      1      MOL     
@<SCITEGIC>MOL_PROPERTY
VConf Rank
SciTegic.value.IntegerValue
672

@<SCITEGIC>MOL_PROPERTY
Conf_Id
SciTegic.value.IntegerValue
28

@<SCITEGIC>MOL_PROPERTY
Delta U+W
SciTegic.value.DoubleValue
0.446

@<SCITEGIC>MOL_PROPERTY
U+W
SciTegic.value.DoubleValue
-51.299

@<SCITEGIC>MOL_PROPERTY
Grad RMS
SciTegic.value.DoubleValue
0.000000

@<SCITEGIC>MOL_PROPERTY
U
SciTegic.value.DoubleValue
9.295

@<SCITEGIC>MOL_PROPERTY
W
SciTegic.value.DoubleValue
-60.594

@<SCITEGIC>MOL_PROPERTY
W(PB)
SciTegic.value.DoubleValue
-62.806

@<SCITEGIC>MOL_PROPERTY
W(SA)
SciTegic.value.DoubleValue
2.212

@<SCITEGIC>MOL_PROPERTY
Valence
SciTegic.value.DoubleValue
9.495

@<SCITEGIC>MOL_PROPERTY
Coulomb
SciTegic.value.DoubleValue
-0.610

@<SCITEGIC>MOL_PROPERTY
VdW
SciTegic.value.DoubleValue
0.409

@<SCITEGIC>MOL_PROPERTY
VdW6
SciTegic.value.DoubleValue
-7.332

@<SCITEGIC>MOL_PROPERTY
VdW12
SciTegic.value.DoubleValue
7.741

@<SCITEGIC>MOL_PROPERTY
Bond
SciTegic.value.DoubleValue
0.126

@<SCITEGIC>MOL_PROPERTY
Angle
SciTegic.value.DoubleValue
2.497

@<SCITEGIC>MOL_PROPERTY
Pdih
SciTegic.value.DoubleValue
6.872

@<SCITEGIC>MOL_PROPERTY
Idih
SciTegic.value.DoubleValue
0.000

@<SCITEGIC>MOL_PROPERTY
Tether
SciTegic.value.DoubleValue
0.000

@<TRIPOS>MOLECULE
guest-s22_confgen4.mol2 : confsearch ligand conformer 673
          20          19           1
SMALL
USER_CHARGES
 
@<TRIPOS>ATOM
       1    C1      20.586370   21.782060   20.472411 C.2        1 MOL1        -0.2535
       2    H1      19.794577   22.075770   21.158191 H          1 MOL1         0.0845
       3    H2      21.068100   22.578691   19.908094 H          1 MOL1         0.0845
       4    C2      20.967284   20.508820   20.318334 C.2        1 MOL1        -0.1324
       5    H3      21.768770   20.276813   19.617382 H          1 MOL1         0.0833
       6    C3      20.392255   19.295399   21.029957 C.3        1 MOL1        -0.1813
       7    H4      21.191397   18.829760   21.620898 H          1 MOL1         0.0753
       8    H5      20.103843   18.550516   20.276484 H          1 MOL1         0.0753
       9    C4      19.174061   19.588473   21.940293 C.3        1 MOL1        -0.1855
      10    H6      19.474331   20.265042   22.752245 H          1 MOL1         0.0755
      11    H7      18.409861   20.118423   21.355618 H          1 MOL1         0.0755
      12    C5      18.528389   18.313444   22.537342 C.3        1 MOL1        -0.1855
      13    H8      18.185498   17.664748   21.720025 H          1 MOL1         0.0755
      14    H9      17.628573   18.602816   23.097703 H          1 MOL1         0.0755
      15    C6      19.459120   17.499220   23.477256 C.3        1 MOL1        -0.1958
      16    H10     18.923174   16.614628   23.840458 H          1 MOL1         0.0753
      17    H11     20.333573   17.128470   22.930653 H          1 MOL1         0.0753
      18    C7      19.939466   18.272134   24.702318 C.2        1 MOL1         0.6174
      19    O1      19.130178   18.525300   25.573186 O.co2      1 MOL1        -0.6695
      20    O2      21.112884   18.582216   24.763939 O.co2      1 MOL1        -0.6695
@<TRIPOS>BOND
    1     1     2    1
    2     1     3    1
    3     1     4    2
    4     4     5    1
    5     4     6    1
    6     6     7    1
    7     6     8    1
    8     6     9    1
    9     9    10    1
   10     9    11    1
   11     9    12    1
   12    12    13    1
   13    12    14    1
   14    12    15    1
   15    15    16    1
   16    15    17    1
   17    15    18    1
   18    18    19    1
   19    18    20    2
@<TRIPOS>SUBSTRUCTURE
       1 MOL1            1 RESIDUE      1      MOL     
@<SCITEGIC>MOL_PROPERTY
VConf Rank
SciTegic.value.IntegerValue
673

@<SCITEGIC>MOL_PROPERTY
Conf_Id
SciTegic.value.IntegerValue
53

@<SCITEGIC>MOL_PROPERTY
Delta U+W
SciTegic.value.DoubleValue
0.549

@<SCITEGIC>MOL_PROPERTY
U+W
SciTegic.value.DoubleValue
-51.197

@<SCITEGIC>MOL_PROPERTY
Grad RMS
SciTegic.value.DoubleValue
0.000000

@<SCITEGIC>MOL_PROPERTY
U
SciTegic.value.DoubleValue
10.870

@<SCITEGIC>MOL_PROPERTY
W
SciTegic.value.DoubleValue
-62.067

@<SCITEGIC>MOL_PROPERTY
W(PB)
SciTegic.value.DoubleValue
-64.228

@<SCITEGIC>MOL_PROPERTY
W(SA)
SciTegic.value.DoubleValue
2.161

@<SCITEGIC>MOL_PROPERTY
Valence
SciTegic.value.DoubleValue
8.803

@<SCITEGIC>MOL_PROPERTY
Coulomb
SciTegic.value.DoubleValue
1.020

@<SCITEGIC>MOL_PROPERTY
VdW
SciTegic.value.DoubleValue
1.048

@<SCITEGIC>MOL_PROPERTY
VdW6
SciTegic.value.DoubleValue
-8.312

@<SCITEGIC>MOL_PROPERTY
VdW12
SciTegic.value.DoubleValue
9.360

@<SCITEGIC>MOL_PROPERTY
Bond
SciTegic.value.DoubleValue
0.212

@<SCITEGIC>MOL_PROPERTY
Angle
SciTegic.value.DoubleValue
3.379

@<SCITEGIC>MOL_PROPERTY
Pdih
SciTegic.value.DoubleValue
5.211

@<SCITEGIC>MOL_PROPERTY
Idih
SciTegic.value.DoubleValue
0.001

@<SCITEGIC>MOL_PROPERTY
Tether
SciTegic.value.DoubleValue
0.000

@<TRIPOS>MOLECULE
guest-s22_confgen4.mol2 : confsearch ligand conformer 674
          20          19           1
SMALL
USER_CHARGES
 
@<TRIPOS>ATOM
       1    C1      19.720412   20.233068   24.514455 C.2        1 MOL1        -0.2535
       2    H1      19.363968   21.025550   23.860072 H          1 MOL1         0.0845
       3    H2      20.274924   20.536061   25.400816 H          1 MOL1         0.0845
       4    C2      19.490209   18.940745   24.258400 C.2        1 MOL1        -0.1324
       5    H3      19.867113   18.186357   24.948433 H          1 MOL1         0.0833
       6    C3      18.740156   18.377897   23.062360 C.3        1 MOL1        -0.1813
       7    H4      17.709945   18.152218   23.367541 H          1 MOL1         0.0753
       8    H5      19.171820   17.404627   22.795917 H          1 MOL1         0.0753
       9    C4      18.712253   19.274791   21.797222 C.3        1 MOL1        -0.1855
      10    H6      18.082356   18.789865   21.038990 H          1 MOL1         0.0755
      11    H7      18.211795   20.223085   22.033028 H          1 MOL1         0.0755
      12    C5      20.104101   19.569583   21.178586 C.3        1 MOL1        -0.1855
      13    H8      20.720385   20.119823   21.901072 H          1 MOL1         0.0755
      14    H9      19.971554   20.240239   20.318545 H          1 MOL1         0.0755
      15    C6      20.881283   18.308934   20.710536 C.3        1 MOL1        -0.1958
      16    H10     21.848616   18.613290   20.294363 H          1 MOL1         0.0753
      17    H11     21.102768   17.654520   21.561235 H          1 MOL1         0.0753
      18    C7      20.162080   17.494071   19.639474 C.2        1 MOL1         0.6174
      19    O1      19.693266   16.417244   19.952224 O.co2      1 MOL1        -0.6695
      20    O2      20.105562   17.950819   18.514443 O.co2      1 MOL1        -0.6695
@<TRIPOS>BOND
    1     1     2    1
    2     1     3    1
    3     1     4    2
    4     4     5    1
    5     4     6    1
    6     6     7    1
    7     6     8    1
    8     6     9    1
    9     9    10    1
   10     9    11    1
   11     9    12    1
   12    12    13    1
   13    12    14    1
   14    12    15    1
   15    15    16    1
   16    15    17    1
   17    15    18    1
   18    18    19    1
   19    18    20    2
@<TRIPOS>SUBSTRUCTURE
       1 MOL1            1 RESIDUE      1      MOL     
@<SCITEGIC>MOL_PROPERTY
VConf Rank
SciTegic.value.IntegerValue
674

@<SCITEGIC>MOL_PROPERTY
Conf_Id
SciTegic.value.IntegerValue
66

@<SCITEGIC>MOL_PROPERTY
Delta U+W
SciTegic.value.DoubleValue
1.737

@<SCITEGIC>MOL_PROPERTY
U+W
SciTegic.value.DoubleValue
-50.008

@<SCITEGIC>MOL_PROPERTY
Grad RMS
SciTegic.value.DoubleValue
0.000000

@<SCITEGIC>MOL_PROPERTY
U
SciTegic.value.DoubleValue
11.091

@<SCITEGIC>MOL_PROPERTY
W
SciTegic.value.DoubleValue
-61.099

@<SCITEGIC>MOL_PROPERTY
W(PB)
SciTegic.value.DoubleValue
-63.213

@<SCITEGIC>MOL_PROPERTY
W(SA)
SciTegic.value.DoubleValue
2.114

@<SCITEGIC>MOL_PROPERTY
Valence
SciTegic.value.DoubleValue
9.664

@<SCITEGIC>MOL_PROPERTY
Coulomb
SciTegic.value.DoubleValue
0.658

@<SCITEGIC>MOL_PROPERTY
VdW
SciTegic.value.DoubleValue
0.769

@<SCITEGIC>MOL_PROPERTY
VdW6
SciTegic.value.DoubleValue
-9.171

@<SCITEGIC>MOL_PROPERTY
VdW12
SciTegic.value.DoubleValue
9.940

@<SCITEGIC>MOL_PROPERTY
Bond
SciTegic.value.DoubleValue
0.244

@<SCITEGIC>MOL_PROPERTY
Angle
SciTegic.value.DoubleValue
3.658

@<SCITEGIC>MOL_PROPERTY
Pdih
SciTegic.value.DoubleValue
5.762

@<SCITEGIC>MOL_PROPERTY
Idih
SciTegic.value.DoubleValue
0.001

@<SCITEGIC>MOL_PROPERTY
Tether
SciTegic.value.DoubleValue
0.000

@<TRIPOS>MOLECULE
guest-s22_confgen4.mol2 : confsearch ligand conformer 675
          20          19           1
SMALL
USER_CHARGES
 
@<TRIPOS>ATOM
       1    C1      19.512054   17.109863   20.080877 C.2        1 MOL1        -0.2535
       2    H1      18.635286   17.697959   19.818955 H          1 MOL1         0.0845
       3    H2      20.069051   16.661703   19.259997 H          1 MOL1         0.0845
       4    C2      19.898179   16.931119   21.348883 C.2        1 MOL1        -0.1324
       5    H3      20.783481   16.330080   21.554630 H          1 MOL1         0.0833
       6    C3      19.224591   17.497977   22.588056 C.3        1 MOL1        -0.1813
       7    H4      19.993203   17.726989   23.336681 H          1 MOL1         0.0753
       8    H5      18.613455   16.709113   23.046083 H          1 MOL1         0.0753
       9    C4      18.346278   18.757285   22.366631 C.3        1 MOL1        -0.1855
      10    H6      17.538764   18.519206   21.661838 H          1 MOL1         0.0755
      11    H7      17.848453   19.009635   23.312738 H          1 MOL1         0.0755
      12    C5      19.116993   20.004429   21.863310 C.3        1 MOL1        -0.1855
      13    H8      18.392312   20.804891   21.660143 H          1 MOL1         0.0755
      14    H9      19.609407   19.786081   20.906518 H          1 MOL1         0.0755
      15    C6      20.169409   20.531835   22.872854 C.3        1 MOL1        -0.1958
      16    H10     19.703358   20.707238   23.849676 H          1 MOL1         0.0753
      17    H11     20.966191   19.793773   23.018612 H          1 MOL1         0.0753
      18    C7      20.820056   21.834064   22.419969 C.2        1 MOL1         0.6174
      19    O1      21.842345   21.769230   21.766154 O.co2      1 MOL1        -0.6695
      20    O2      20.279230   22.879909   22.721050 O.co2      1 MOL1        -0.6695
@<TRIPOS>BOND
    1     1     2    1
    2     1     3    1
    3     1     4    2
    4     4     5    1
    5     4     6    1
    6     6     7    1
    7     6     8    1
    8     6     9    1
    9     9    10    1
   10     9    11    1
   11     9    12    1
   12    12    13    1
   13    12    14    1
   14    12    15    1
   15    15    16    1
   16    15    17    1
   17    15    18    1
   18    18    19    1
   19    18    20    2
@<TRIPOS>SUBSTRUCTURE
       1 MOL1            1 RESIDUE      1      MOL     
@<SCITEGIC>MOL_PROPERTY
VConf Rank
SciTegic.value.IntegerValue
675

@<SCITEGIC>MOL_PROPERTY
Conf_Id
SciTegic.value.IntegerValue
64

@<SCITEGIC>MOL_PROPERTY
Delta U+W
SciTegic.value.DoubleValue
0.366

@<SCITEGIC>MOL_PROPERTY
U+W
SciTegic.value.DoubleValue
-51.379

@<SCITEGIC>MOL_PROPERTY
Grad RMS
SciTegic.value.DoubleValue
0.000000

@<SCITEGIC>MOL_PROPERTY
U
SciTegic.value.DoubleValue
10.000

@<SCITEGIC>MOL_PROPERTY
W
SciTegic.value.DoubleValue
-61.379

@<SCITEGIC>MOL_PROPERTY
W(PB)
SciTegic.value.DoubleValue
-63.541

@<SCITEGIC>MOL_PROPERTY
W(SA)
SciTegic.value.DoubleValue
2.162

@<SCITEGIC>MOL_PROPERTY
Valence
SciTegic.value.DoubleValue
9.398

@<SCITEGIC>MOL_PROPERTY
Coulomb
SciTegic.value.DoubleValue
-0.504

@<SCITEGIC>MOL_PROPERTY
VdW
SciTegic.value.DoubleValue
1.105

@<SCITEGIC>MOL_PROPERTY
VdW6
SciTegic.value.DoubleValue
-7.975

@<SCITEGIC>MOL_PROPERTY
VdW12
SciTegic.value.DoubleValue
9.080

@<SCITEGIC>MOL_PROPERTY
Bond
SciTegic.value.DoubleValue
0.216

@<SCITEGIC>MOL_PROPERTY
Angle
SciTegic.value.DoubleValue
3.417

@<SCITEGIC>MOL_PROPERTY
Pdih
SciTegic.value.DoubleValue
5.765

@<SCITEGIC>MOL_PROPERTY
Idih
SciTegic.value.DoubleValue
0.001

@<SCITEGIC>MOL_PROPERTY
Tether
SciTegic.value.DoubleValue
0.000

@<TRIPOS>MOLECULE
guest-s22_confgen4.mol2 : confsearch ligand conformer 676
          20          19           1
SMALL
USER_CHARGES
 
@<TRIPOS>ATOM
       1    C1      22.913583   19.163473   21.956303 C.2        1 MOL1        -0.2535
       2    H1      22.895747   18.981684   23.029640 H          1 MOL1         0.0845
       3    H2      23.651362   19.869916   21.579838 H          1 MOL1         0.0845
       4    C2      22.062386   18.548754   21.130714 C.2        1 MOL1        -0.1324
       5    H3      22.095249   18.746668   20.059667 H          1 MOL1         0.0833
       6    C3      21.010678   17.556590   21.579602 C.3        1 MOL1        -0.1813
       7    H4      21.177129   17.263132   22.624997 H          1 MOL1         0.0753
       8    H5      21.104022   16.639983   20.982140 H          1 MOL1         0.0753
       9    C4      19.576922   18.110900   21.421411 C.3        1 MOL1        -0.1855
      10    H6      19.410783   18.405006   20.375953 H          1 MOL1         0.0755
      11    H7      18.860023   17.307679   21.639985 H          1 MOL1         0.0755
      12    C5      19.295215   19.310979   22.354168 C.3        1 MOL1        -0.1855
      13    H8      19.989077   20.132112   22.127177 H          1 MOL1         0.0755
      14    H9      19.478446   19.019588   23.397627 H          1 MOL1         0.0755
      15    C6      17.840159   19.821701   22.212761 C.3        1 MOL1        -0.1958
      16    H10     17.645819   20.128404   21.177990 H          1 MOL1         0.0753
      17    H11     17.131947   19.019391   22.451971 H          1 MOL1         0.0753
      18    C7      17.537675   21.006457   23.123228 C.2        1 MOL1         0.6174
      19    O1      17.141525   20.777978   24.249111 O.co2      1 MOL1        -0.6695
      20    O2      17.719379   22.126216   22.687551 O.co2      1 MOL1        -0.6695
@<TRIPOS>BOND
    1     1     2    1
    2     1     3    1
    3     1     4    2
    4     4     5    1
    5     4     6    1
    6     6     7    1
    7     6     8    1
    8     6     9    1
    9     9    10    1
   10     9    11    1
   11     9    12    1
   12    12    13    1
   13    12    14    1
   14    12    15    1
   15    15    16    1
   16    15    17    1
   17    15    18    1
   18    18    19    1
   19    18    20    2
@<TRIPOS>SUBSTRUCTURE
       1 MOL1            1 RESIDUE      1      MOL     
@<SCITEGIC>MOL_PROPERTY
VConf Rank
SciTegic.value.IntegerValue
676

@<SCITEGIC>MOL_PROPERTY
Conf_Id
SciTegic.value.IntegerValue
42

@<SCITEGIC>MOL_PROPERTY
Delta U+W
SciTegic.value.DoubleValue
-0.601

@<SCITEGIC>MOL_PROPERTY
U+W
SciTegic.value.DoubleValue
-52.347

@<SCITEGIC>MOL_PROPERTY
Grad RMS
SciTegic.value.DoubleValue
0.000000

@<SCITEGIC>MOL_PROPERTY
U
SciTegic.value.DoubleValue
8.428

@<SCITEGIC>MOL_PROPERTY
W
SciTegic.value.DoubleValue
-60.774

@<SCITEGIC>MOL_PROPERTY
W(PB)
SciTegic.value.DoubleValue
-62.982

@<SCITEGIC>MOL_PROPERTY
W(SA)
SciTegic.value.DoubleValue
2.208

@<SCITEGIC>MOL_PROPERTY
Valence
SciTegic.value.DoubleValue
9.231

@<SCITEGIC>MOL_PROPERTY
Coulomb
SciTegic.value.DoubleValue
-1.304

@<SCITEGIC>MOL_PROPERTY
VdW
SciTegic.value.DoubleValue
0.501

@<SCITEGIC>MOL_PROPERTY
VdW6
SciTegic.value.DoubleValue
-6.515

@<SCITEGIC>MOL_PROPERTY
VdW12
SciTegic.value.DoubleValue
7.016

@<SCITEGIC>MOL_PROPERTY
Bond
SciTegic.value.DoubleValue
0.103

@<SCITEGIC>MOL_PROPERTY
Angle
SciTegic.value.DoubleValue
2.328

@<SCITEGIC>MOL_PROPERTY
Pdih
SciTegic.value.DoubleValue
6.799

@<SCITEGIC>MOL_PROPERTY
Idih
SciTegic.value.DoubleValue
0.000

@<SCITEGIC>MOL_PROPERTY
Tether
SciTegic.value.DoubleValue
0.000

@<TRIPOS>MOLECULE
guest-s22_confgen4.mol2 : confsearch ligand conformer 677
          20          19           1
SMALL
USER_CHARGES
 
@<TRIPOS>ATOM
       1    C1      18.121952   21.519376   23.284216 C.2        1 MOL1        -0.2535
       2    H1      17.308624   20.882766   23.628632 H          1 MOL1         0.0845
       3    H2      17.861087   22.508886   22.912847 H          1 MOL1         0.0845
       4    C2      19.391337   21.104676   23.310867 C.2        1 MOL1        -0.1324
       5    H3      20.190447   21.756470   22.958738 H          1 MOL1         0.0833
       6    C3      19.830347   19.744778   23.810717 C.3        1 MOL1        -0.1813
       7    H4      19.002596   19.234957   24.322107 H          1 MOL1         0.0753
       8    H5      20.622853   19.876284   24.559350 H          1 MOL1         0.0753
       9    C4      20.364862   18.847212   22.672021 C.3        1 MOL1        -0.1855
      10    H6      21.197060   19.356160   22.166297 H          1 MOL1         0.0755
      11    H7      20.779189   17.928211   23.108496 H          1 MOL1         0.0755
      12    C5      19.271402   18.473524   21.643444 C.3        1 MOL1        -0.1855
      13    H8      18.877008   19.382233   21.167990 H          1 MOL1         0.0755
      14    H9      18.429254   18.000771   22.166437 H          1 MOL1         0.0755
      15    C6      19.790138   17.507871   20.546516 C.3        1 MOL1        -0.1958
      16    H10     20.209819   16.604022   21.004393 H          1 MOL1         0.0753
      17    H11     18.952659   17.185189   19.916837 H          1 MOL1         0.0753
      18    C7      20.842766   18.121838   19.627914 C.2        1 MOL1         0.6174
      19    O1      22.006457   17.816781   19.800911 O.co2      1 MOL1        -0.6695
      20    O2      20.468113   18.875547   18.751185 O.co2      1 MOL1        -0.6695
@<TRIPOS>BOND
    1     1     2    1
    2     1     3    1
    3     1     4    2
    4     4     5    1
    5     4     6    1
    6     6     7    1
    7     6     8    1
    8     6     9    1
    9     9    10    1
   10     9    11    1
   11     9    12    1
   12    12    13    1
   13    12    14    1
   14    12    15    1
   15    15    16    1
   16    15    17    1
   17    15    18    1
   18    18    19    1
   19    18    20    2
@<TRIPOS>SUBSTRUCTURE
       1 MOL1            1 RESIDUE      1      MOL     
@<SCITEGIC>MOL_PROPERTY
VConf Rank
SciTegic.value.IntegerValue
677

@<SCITEGIC>MOL_PROPERTY
Conf_Id
SciTegic.value.IntegerValue
68

@<SCITEGIC>MOL_PROPERTY
Delta U+W
SciTegic.value.DoubleValue
0.492

@<SCITEGIC>MOL_PROPERTY
U+W
SciTegic.value.DoubleValue
-51.253

@<SCITEGIC>MOL_PROPERTY
Grad RMS
SciTegic.value.DoubleValue
0.000000

@<SCITEGIC>MOL_PROPERTY
U
SciTegic.value.DoubleValue
10.179

@<SCITEGIC>MOL_PROPERTY
W
SciTegic.value.DoubleValue
-61.432

@<SCITEGIC>MOL_PROPERTY
W(PB)
SciTegic.value.DoubleValue
-63.627

@<SCITEGIC>MOL_PROPERTY
W(SA)
SciTegic.value.DoubleValue
2.195

@<SCITEGIC>MOL_PROPERTY
Valence
SciTegic.value.DoubleValue
9.483

@<SCITEGIC>MOL_PROPERTY
Coulomb
SciTegic.value.DoubleValue
0.361

@<SCITEGIC>MOL_PROPERTY
VdW
SciTegic.value.DoubleValue
0.335

@<SCITEGIC>MOL_PROPERTY
VdW6
SciTegic.value.DoubleValue
-7.385

@<SCITEGIC>MOL_PROPERTY
VdW12
SciTegic.value.DoubleValue
7.720

@<SCITEGIC>MOL_PROPERTY
Bond
SciTegic.value.DoubleValue
0.125

@<SCITEGIC>MOL_PROPERTY
Angle
SciTegic.value.DoubleValue
2.487

@<SCITEGIC>MOL_PROPERTY
Pdih
SciTegic.value.DoubleValue
6.870

@<SCITEGIC>MOL_PROPERTY
Idih
SciTegic.value.DoubleValue
0.001

@<SCITEGIC>MOL_PROPERTY
Tether
SciTegic.value.DoubleValue
0.000

@<TRIPOS>MOLECULE
guest-s22_confgen4.mol2 : confsearch ligand conformer 678
          20          19           1
SMALL
USER_CHARGES
 
@<TRIPOS>ATOM
       1    C1      22.011750   17.613598   23.515157 C.2        1 MOL1        -0.2535
       2    H1      22.906353   18.117431   23.152765 H          1 MOL1         0.0845
       3    H2      22.085803   16.547125   23.720899 H          1 MOL1         0.0845
       4    C2      20.865278   18.273767   23.698114 C.2        1 MOL1        -0.1324
       5    H3      19.982419   17.750552   24.064245 H          1 MOL1         0.0833
       6    C3      20.689528   19.754946   23.439267 C.3        1 MOL1        -0.1813
       7    H4      21.671614   20.246447   23.417973 H          1 MOL1         0.0753
       8    H5      20.133187   20.215793   24.266371 H          1 MOL1         0.0753
       9    C4      19.966076   20.036556   22.103043 C.3        1 MOL1        -0.1855
      10    H6      19.985569   21.117932   21.910712 H          1 MOL1         0.0755
      11    H7      20.522031   19.562806   21.282024 H          1 MOL1         0.0755
      12    C5      18.498523   19.546659   22.098728 C.3        1 MOL1        -0.1855
      13    H8      17.966543   19.988178   22.952173 H          1 MOL1         0.0755
      14    H9      18.465068   18.456952   22.233766 H          1 MOL1         0.0755
      15    C6      17.750860   19.919454   20.792253 C.3        1 MOL1        -0.1958
      16    H10     16.691346   19.654435   20.888184 H          1 MOL1         0.0753
      17    H11     17.793329   21.002755   20.626670 H          1 MOL1         0.0753
      18    C7      18.287201   19.215624   19.548951 C.2        1 MOL1         0.6174
      19    O1      17.977724   18.053925   19.370669 O.co2      1 MOL1        -0.6695
      20    O2      18.983272   19.851856   18.782258 O.co2      1 MOL1        -0.6695
@<TRIPOS>BOND
    1     1     2    1
    2     1     3    1
    3     1     4    2
    4     4     5    1
    5     4     6    1
    6     6     7    1
    7     6     8    1
    8     6     9    1
    9     9    10    1
   10     9    11    1
   11     9    12    1
   12    12    13    1
   13    12    14    1
   14    12    15    1
   15    15    16    1
   16    15    17    1
   17    15    18    1
   18    18    19    1
   19    18    20    2
@<TRIPOS>SUBSTRUCTURE
       1 MOL1            1 RESIDUE      1      MOL     
@<SCITEGIC>MOL_PROPERTY
VConf Rank
SciTegic.value.IntegerValue
678

@<SCITEGIC>MOL_PROPERTY
Conf_Id
SciTegic.value.IntegerValue
87

@<SCITEGIC>MOL_PROPERTY
Delta U+W
SciTegic.value.DoubleValue
0.339

@<SCITEGIC>MOL_PROPERTY
U+W
SciTegic.value.DoubleValue
-51.407

@<SCITEGIC>MOL_PROPERTY
Grad RMS
SciTegic.value.DoubleValue
0.000000

@<SCITEGIC>MOL_PROPERTY
U
SciTegic.value.DoubleValue
10.461

@<SCITEGIC>MOL_PROPERTY
W
SciTegic.value.DoubleValue
-61.867

@<SCITEGIC>MOL_PROPERTY
W(PB)
SciTegic.value.DoubleValue
-64.045

@<SCITEGIC>MOL_PROPERTY
W(SA)
SciTegic.value.DoubleValue
2.178

@<SCITEGIC>MOL_PROPERTY
Valence
SciTegic.value.DoubleValue
9.555

@<SCITEGIC>MOL_PROPERTY
Coulomb
SciTegic.value.DoubleValue
0.483

@<SCITEGIC>MOL_PROPERTY
VdW
SciTegic.value.DoubleValue
0.423

@<SCITEGIC>MOL_PROPERTY
VdW6
SciTegic.value.DoubleValue
-7.223

@<SCITEGIC>MOL_PROPERTY
VdW12
SciTegic.value.DoubleValue
7.646

@<SCITEGIC>MOL_PROPERTY
Bond
SciTegic.value.DoubleValue
0.126

@<SCITEGIC>MOL_PROPERTY
Angle
SciTegic.value.DoubleValue
2.492

@<SCITEGIC>MOL_PROPERTY
Pdih
SciTegic.value.DoubleValue
6.936

@<SCITEGIC>MOL_PROPERTY
Idih
SciTegic.value.DoubleValue
0.001

@<SCITEGIC>MOL_PROPERTY
Tether
SciTegic.value.DoubleValue
0.000

@<TRIPOS>MOLECULE
guest-s22_confgen4.mol2 : confsearch ligand conformer 679
          20          19           1
SMALL
USER_CHARGES
 
@<TRIPOS>ATOM
       1    C1      17.930481   19.045794   24.255694 C.2        1 MOL1        -0.2535
       2    H1      17.871498   20.113508   24.460444 H          1 MOL1         0.0845
       3    H2      17.042597   18.447105   24.451279 H          1 MOL1         0.0845
       4    C2      19.047905   18.489834   23.780312 C.2        1 MOL1        -0.1324
       5    H3      19.090347   17.417987   23.590233 H          1 MOL1         0.0833
       6    C3      20.321118   19.258441   23.497861 C.3        1 MOL1        -0.1813
       7    H4      21.177971   18.572897   23.455815 H          1 MOL1         0.0753
       8    H5      20.517688   19.929127   24.345180 H          1 MOL1         0.0753
       9    C4      20.257819   20.107953   22.204226 C.3        1 MOL1        -0.1855
      10    H6      19.306044   20.654861   22.160069 H          1 MOL1         0.0755
      11    H7      21.042648   20.874130   22.265462 H          1 MOL1         0.0755
      12    C5      20.477229   19.314707   20.891321 C.3        1 MOL1        -0.1855
      13    H8      21.423003   18.758199   20.944712 H          1 MOL1         0.0755
      14    H9      20.590385   20.034593   20.068856 H          1 MOL1         0.0755
      15    C6      19.323424   18.343081   20.533634 C.3        1 MOL1        -0.1958
      16    H10     19.274596   17.521417   21.255134 H          1 MOL1         0.0753
      17    H11     18.360966   18.867277   20.568512 H          1 MOL1         0.0753
      18    C7      19.478658   17.727836   19.147630 C.2        1 MOL1         0.6174
      19    O1      20.115401   16.697864   19.044649 O.co2      1 MOL1        -0.6695
      20    O2      18.976574   18.305700   18.203772 O.co2      1 MOL1        -0.6695
@<TRIPOS>BOND
    1     1     2    1
    2     1     3    1
    3     1     4    2
    4     4     5    1
    5     4     6    1
    6     6     7    1
    7     6     8    1
    8     6     9    1
    9     9    10    1
   10     9    11    1
   11     9    12    1
   12    12    13    1
   13    12    14    1
   14    12    15    1
   15    15    16    1
   16    15    17    1
   17    15    18    1
   18    18    19    1
   19    18    20    2
@<TRIPOS>SUBSTRUCTURE
       1 MOL1            1 RESIDUE      1      MOL     
@<SCITEGIC>MOL_PROPERTY
VConf Rank
SciTegic.value.IntegerValue
679

@<SCITEGIC>MOL_PROPERTY
Conf_Id
SciTegic.value.IntegerValue
51

@<SCITEGIC>MOL_PROPERTY
Delta U+W
SciTegic.value.DoubleValue
1.709

@<SCITEGIC>MOL_PROPERTY
U+W
SciTegic.value.DoubleValue
-50.036

@<SCITEGIC>MOL_PROPERTY
Grad RMS
SciTegic.value.DoubleValue
0.000000

@<SCITEGIC>MOL_PROPERTY
U
SciTegic.value.DoubleValue
10.643

@<SCITEGIC>MOL_PROPERTY
W
SciTegic.value.DoubleValue
-60.679

@<SCITEGIC>MOL_PROPERTY
W(PB)
SciTegic.value.DoubleValue
-62.882

@<SCITEGIC>MOL_PROPERTY
W(SA)
SciTegic.value.DoubleValue
2.203

@<SCITEGIC>MOL_PROPERTY
Valence
SciTegic.value.DoubleValue
11.231

@<SCITEGIC>MOL_PROPERTY
Coulomb
SciTegic.value.DoubleValue
-1.077

@<SCITEGIC>MOL_PROPERTY
VdW
SciTegic.value.DoubleValue
0.489

@<SCITEGIC>MOL_PROPERTY
VdW6
SciTegic.value.DoubleValue
-7.546

@<SCITEGIC>MOL_PROPERTY
VdW12
SciTegic.value.DoubleValue
8.035

@<SCITEGIC>MOL_PROPERTY
Bond
SciTegic.value.DoubleValue
0.159

@<SCITEGIC>MOL_PROPERTY
Angle
SciTegic.value.DoubleValue
3.005

@<SCITEGIC>MOL_PROPERTY
Pdih
SciTegic.value.DoubleValue
8.065

@<SCITEGIC>MOL_PROPERTY
Idih
SciTegic.value.DoubleValue
0.002

@<SCITEGIC>MOL_PROPERTY
Tether
SciTegic.value.DoubleValue
0.000

@<TRIPOS>MOLECULE
guest-s22_confgen4.mol2 : confsearch ligand conformer 680
          20          19           1
SMALL
USER_CHARGES
 
@<TRIPOS>ATOM
       1    C1      20.026626   16.542128   23.078569 C.2        1 MOL1        -0.2535
       2    H1      19.020287   16.225908   23.348206 H          1 MOL1         0.0845
       3    H2      20.840232   16.243985   23.737490 H          1 MOL1         0.0845
       4    C2      20.256268   17.270482   21.982906 C.2        1 MOL1        -0.1324
       5    H3      21.271515   17.569720   21.724980 H          1 MOL1         0.0833
       6    C3      19.176324   17.708914   21.016935 C.3        1 MOL1        -0.1813
       7    H4      18.520352   16.851165   20.815998 H          1 MOL1         0.0753
       8    H5      19.618655   17.978658   20.048681 H          1 MOL1         0.0753
       9    C4      18.308061   18.876977   21.546953 C.3        1 MOL1        -0.1855
      10    H6      17.371850   18.888632   20.972402 H          1 MOL1         0.0755
      11    H7      18.018954   18.687157   22.589697 H          1 MOL1         0.0755
      12    C5      18.954123   20.279754   21.420747 C.3        1 MOL1        -0.1855
      13    H8      18.189449   21.033369   21.654895 H          1 MOL1         0.0755
      14    H9      19.254662   20.460339   20.379544 H          1 MOL1         0.0755
      15    C6      20.167622   20.508912   22.357857 C.3        1 MOL1        -0.1958
      16    H10     19.906906   20.241989   23.388926 H          1 MOL1         0.0753
      17    H11     21.009411   19.876243   22.059182 H          1 MOL1         0.0753
      18    C7      20.654213   21.953485   22.350296 C.2        1 MOL1         0.6174
      19    O1      21.483100   22.275850   21.522097 O.co2      1 MOL1        -0.6695
      20    O2      20.176633   22.724109   23.159579 O.co2      1 MOL1        -0.6695
@<TRIPOS>BOND
    1     1     2    1
    2     1     3    1
    3     1     4    2
    4     4     5    1
    5     4     6    1
    6     6     7    1
    7     6     8    1
    8     6     9    1
    9     9    10    1
   10     9    11    1
   11     9    12    1
   12    12    13    1
   13    12    14    1
   14    12    15    1
   15    15    16    1
   16    15    17    1
   17    15    18    1
   18    18    19    1
   19    18    20    2
@<TRIPOS>SUBSTRUCTURE
       1 MOL1            1 RESIDUE      1      MOL     
@<SCITEGIC>MOL_PROPERTY
VConf Rank
SciTegic.value.IntegerValue
680

@<SCITEGIC>MOL_PROPERTY
Conf_Id
SciTegic.value.IntegerValue
91

@<SCITEGIC>MOL_PROPERTY
Delta U+W
SciTegic.value.DoubleValue
1.604

@<SCITEGIC>MOL_PROPERTY
U+W
SciTegic.value.DoubleValue
-50.141

@<SCITEGIC>MOL_PROPERTY
Grad RMS
SciTegic.value.DoubleValue
0.000000

@<SCITEGIC>MOL_PROPERTY
U
SciTegic.value.DoubleValue
10.644

@<SCITEGIC>MOL_PROPERTY
W
SciTegic.value.DoubleValue
-60.786

@<SCITEGIC>MOL_PROPERTY
W(PB)
SciTegic.value.DoubleValue
-62.965

@<SCITEGIC>MOL_PROPERTY
W(SA)
SciTegic.value.DoubleValue
2.179

@<SCITEGIC>MOL_PROPERTY
Valence
SciTegic.value.DoubleValue
11.230

@<SCITEGIC>MOL_PROPERTY
Coulomb
SciTegic.value.DoubleValue
-1.075

@<SCITEGIC>MOL_PROPERTY
VdW
SciTegic.value.DoubleValue
0.489

@<SCITEGIC>MOL_PROPERTY
VdW6
SciTegic.value.DoubleValue
-7.547

@<SCITEGIC>MOL_PROPERTY
VdW12
SciTegic.value.DoubleValue
8.036

@<SCITEGIC>MOL_PROPERTY
Bond
SciTegic.value.DoubleValue
0.159

@<SCITEGIC>MOL_PROPERTY
Angle
SciTegic.value.DoubleValue
3.006

@<SCITEGIC>MOL_PROPERTY
Pdih
SciTegic.value.DoubleValue
8.064

@<SCITEGIC>MOL_PROPERTY
Idih
SciTegic.value.DoubleValue
0.002

@<SCITEGIC>MOL_PROPERTY
Tether
SciTegic.value.DoubleValue
0.000

@<TRIPOS>MOLECULE
guest-s22_confgen4.mol2 : confsearch ligand conformer 681
          20          19           1
SMALL
USER_CHARGES
 
@<TRIPOS>ATOM
       1    C1      20.947537   18.666383   18.389527 C.2        1 MOL1        -0.2535
       2    H1      21.911924   18.336881   18.772902 H          1 MOL1         0.0845
       3    H2      20.915946   19.039991   17.367423 H          1 MOL1         0.0845
       4    C2      19.844602   18.618240   19.141102 C.2        1 MOL1        -0.1324
       5    H3      18.889091   18.953679   18.738440 H          1 MOL1         0.0833
       6    C3      19.811149   18.111926   20.565942 C.3        1 MOL1        -0.1813
       7    H4      20.734157   17.562476   20.796090 H          1 MOL1         0.0753
       8    H5      18.982533   17.400855   20.683916 H          1 MOL1         0.0753
       9    C4      19.642094   19.274381   21.566438 C.3        1 MOL1        -0.1855
      10    H6      20.471046   19.984726   21.441401 H          1 MOL1         0.0755
      11    H7      18.716499   19.820799   21.338706 H          1 MOL1         0.0755
      12    C5      19.603013   18.774418   23.027131 C.3        1 MOL1        -0.1855
      13    H8      20.528699   18.228198   23.255810 H          1 MOL1         0.0755
      14    H9      18.774944   18.063008   23.152515 H          1 MOL1         0.0755
      15    C6      19.433705   19.943939   24.033090 C.3        1 MOL1        -0.1958
      16    H10     20.260445   20.654664   23.917828 H          1 MOL1         0.0753
      17    H11     18.508330   20.489753   23.814741 H          1 MOL1         0.0753
      18    C7      19.385482   19.535539   25.506250 C.2        1 MOL1         0.6174
      19    O1      19.252329   20.424259   26.323920 O.co2      1 MOL1        -0.6695
      20    O2      19.479549   18.361827   25.809893 O.co2      1 MOL1        -0.6695
@<TRIPOS>BOND
    1     1     2    1
    2     1     3    1
    3     1     4    2
    4     4     5    1
    5     4     6    1
    6     6     7    1
    7     6     8    1
    8     6     9    1
    9     9    10    1
   10     9    11    1
   11     9    12    1
   12    12    13    1
   13    12    14    1
   14    12    15    1
   15    15    16    1
   16    15    17    1
   17    15    18    1
   18    18    19    1
   19    18    20    2
@<TRIPOS>SUBSTRUCTURE
       1 MOL1            1 RESIDUE      1      MOL     
@<SCITEGIC>MOL_PROPERTY
VConf Rank
SciTegic.value.IntegerValue
681

@<SCITEGIC>MOL_PROPERTY
Conf_Id
SciTegic.value.IntegerValue
33

@<SCITEGIC>MOL_PROPERTY
Delta U+W
SciTegic.value.DoubleValue
0.000

@<SCITEGIC>MOL_PROPERTY
U+W
SciTegic.value.DoubleValue
-51.745

@<SCITEGIC>MOL_PROPERTY
Grad RMS
SciTegic.value.DoubleValue
0.000000

@<SCITEGIC>MOL_PROPERTY
U
SciTegic.value.DoubleValue
7.593

@<SCITEGIC>MOL_PROPERTY
W
SciTegic.value.DoubleValue
-59.338

@<SCITEGIC>MOL_PROPERTY
W(PB)
SciTegic.value.DoubleValue
-61.574

@<SCITEGIC>MOL_PROPERTY
W(SA)
SciTegic.value.DoubleValue
2.236

@<SCITEGIC>MOL_PROPERTY
Valence
SciTegic.value.DoubleValue
9.570

@<SCITEGIC>MOL_PROPERTY
Coulomb
SciTegic.value.DoubleValue
-3.091

@<SCITEGIC>MOL_PROPERTY
VdW
SciTegic.value.DoubleValue
1.114

@<SCITEGIC>MOL_PROPERTY
VdW6
SciTegic.value.DoubleValue
-6.064

@<SCITEGIC>MOL_PROPERTY
VdW12
SciTegic.value.DoubleValue
7.178

@<SCITEGIC>MOL_PROPERTY
Bond
SciTegic.value.DoubleValue
0.117

@<SCITEGIC>MOL_PROPERTY
Angle
SciTegic.value.DoubleValue
2.692

@<SCITEGIC>MOL_PROPERTY
Pdih
SciTegic.value.DoubleValue
6.761

@<SCITEGIC>MOL_PROPERTY
Idih
SciTegic.value.DoubleValue
0.000

@<SCITEGIC>MOL_PROPERTY
Tether
SciTegic.value.DoubleValue
0.000

@<TRIPOS>MOLECULE
guest-s22_confgen4.mol2 : confsearch ligand conformer 682
          20          19           1
SMALL
USER_CHARGES
 
@<TRIPOS>ATOM
       1    C1      18.742846   17.533978   25.052177 C.2        1 MOL1        -0.2535
       2    H1      19.622432   17.974702   25.518728 H          1 MOL1         0.0845
       3    H2      18.178931   16.806431   25.633498 H          1 MOL1         0.0845
       4    C2      18.368287   17.868097   23.814540 C.2        1 MOL1        -0.1324
       5    H3      17.484971   17.414548   23.365455 H          1 MOL1         0.0833
       6    C3      19.099814   18.869378   22.948498 C.3        1 MOL1        -0.1813
       7    H4      19.803186   19.454616   23.556248 H          1 MOL1         0.0753
       8    H5      18.375742   19.579245   22.529143 H          1 MOL1         0.0753
       9    C4      19.868783   18.161269   21.810483 C.3        1 MOL1        -0.1855
      10    H6      20.524928   17.397004   22.249475 H          1 MOL1         0.0755
      11    H7      19.160554   17.626818   21.162589 H          1 MOL1         0.0755
      12    C5      20.731754   19.121714   20.957835 C.3        1 MOL1        -0.1855
      13    H8      21.327309   18.526873   20.251455 H          1 MOL1         0.0755
      14    H9      21.449703   19.647283   21.602597 H          1 MOL1         0.0755
      15    C6      19.899071   20.157279   20.158325 C.3        1 MOL1        -0.1958
      16    H10     19.149491   19.646089   19.542534 H          1 MOL1         0.0753
      17    H11     19.360534   20.827683   20.837501 H          1 MOL1         0.0753
      18    C7      20.756986   21.019904   19.239722 C.2        1 MOL1         0.6174
      19    O1      21.223574   22.048165   19.688812 O.co2      1 MOL1        -0.6695
      20    O2      20.952472   20.630972   18.105151 O.co2      1 MOL1        -0.6695
@<TRIPOS>BOND
    1     1     2    1
    2     1     3    1
    3     1     4    2
    4     4     5    1
    5     4     6    1
    6     6     7    1
    7     6     8    1
    8     6     9    1
    9     9    10    1
   10     9    11    1
   11     9    12    1
   12    12    13    1
   13    12    14    1
   14    12    15    1
   15    15    16    1
   16    15    17    1
   17    15    18    1
   18    18    19    1
   19    18    20    2
@<TRIPOS>SUBSTRUCTURE
       1 MOL1            1 RESIDUE      1      MOL     
@<SCITEGIC>MOL_PROPERTY
VConf Rank
SciTegic.value.IntegerValue
682

@<SCITEGIC>MOL_PROPERTY
Conf_Id
SciTegic.value.IntegerValue
37

@<SCITEGIC>MOL_PROPERTY
Delta U+W
SciTegic.value.DoubleValue
-0.384

@<SCITEGIC>MOL_PROPERTY
U+W
SciTegic.value.DoubleValue
-52.130

@<SCITEGIC>MOL_PROPERTY
Grad RMS
SciTegic.value.DoubleValue
0.000000

@<SCITEGIC>MOL_PROPERTY
U
SciTegic.value.DoubleValue
7.491

@<SCITEGIC>MOL_PROPERTY
W
SciTegic.value.DoubleValue
-59.621

@<SCITEGIC>MOL_PROPERTY
W(PB)
SciTegic.value.DoubleValue
-61.853

@<SCITEGIC>MOL_PROPERTY
W(SA)
SciTegic.value.DoubleValue
2.232

@<SCITEGIC>MOL_PROPERTY
Valence
SciTegic.value.DoubleValue
9.604

@<SCITEGIC>MOL_PROPERTY
Coulomb
SciTegic.value.DoubleValue
-2.799

@<SCITEGIC>MOL_PROPERTY
VdW
SciTegic.value.DoubleValue
0.686

@<SCITEGIC>MOL_PROPERTY
VdW6
SciTegic.value.DoubleValue
-6.435

@<SCITEGIC>MOL_PROPERTY
VdW12
SciTegic.value.DoubleValue
7.121

@<SCITEGIC>MOL_PROPERTY
Bond
SciTegic.value.DoubleValue
0.124

@<SCITEGIC>MOL_PROPERTY
Angle
SciTegic.value.DoubleValue
2.493

@<SCITEGIC>MOL_PROPERTY
Pdih
SciTegic.value.DoubleValue
6.986

@<SCITEGIC>MOL_PROPERTY
Idih
SciTegic.value.DoubleValue
0.001

@<SCITEGIC>MOL_PROPERTY
Tether
SciTegic.value.DoubleValue
0.000

@<TRIPOS>MOLECULE
guest-s22_confgen4.mol2 : confsearch ligand conformer 683
          20          19           1
SMALL
USER_CHARGES
 
@<TRIPOS>ATOM
       1    C1      20.759497   21.984996   20.699689 C.2        1 MOL1        -0.2535
       2    H1      21.057878   22.955257   20.306304 H          1 MOL1         0.0845
       3    H2      21.557564   21.319269   21.021315 H          1 MOL1         0.0845
       4    C2      19.467365   21.646535   20.775525 C.2        1 MOL1        -0.1324
       5    H3      18.712903   22.356523   20.437394 H          1 MOL1         0.0833
       6    C3      18.900386   20.337050   21.297826 C.3        1 MOL1        -0.1813
       7    H4      18.289439   19.877638   20.509271 H          1 MOL1         0.0753
       8    H5      18.206269   20.556189   22.120210 H          1 MOL1         0.0753
       9    C4      19.954667   19.314701   21.782881 C.3        1 MOL1        -0.1855
      10    H6      20.640100   19.075169   20.958325 H          1 MOL1         0.0755
      11    H7      20.556046   19.761091   22.586725 H          1 MOL1         0.0755
      12    C5      19.297498   18.014934   22.296454 C.3        1 MOL1        -0.1855
      13    H8      18.694163   17.563350   21.496663 H          1 MOL1         0.0755
      14    H9      18.610280   18.247877   23.121726 H          1 MOL1         0.0755
      15    C6      20.351156   16.989561   22.782764 C.3        1 MOL1        -0.1958
      16    H10     21.037756   16.735753   21.966208 H          1 MOL1         0.0753
      17    H11     20.953934   17.420357   23.591266 H          1 MOL1         0.0753
      18    C7      19.726475   15.696806   23.295157 C.2        1 MOL1         0.6174
      19    O1      19.533016   14.798688   22.499792 O.co2      1 MOL1        -0.6695
      20    O2      19.431667   15.629398   24.472099 O.co2      1 MOL1        -0.6695
@<TRIPOS>BOND
    1     1     2    1
    2     1     3    1
    3     1     4    2
    4     4     5    1
    5     4     6    1
    6     6     7    1
    7     6     8    1
    8     6     9    1
    9     9    10    1
   10     9    11    1
   11     9    12    1
   12    12    13    1
   13    12    14    1
   14    12    15    1
   15    15    16    1
   16    15    17    1
   17    15    18    1
   18    18    19    1
   19    18    20    2
@<TRIPOS>SUBSTRUCTURE
       1 MOL1            1 RESIDUE      1      MOL     
@<SCITEGIC>MOL_PROPERTY
VConf Rank
SciTegic.value.IntegerValue
683

@<SCITEGIC>MOL_PROPERTY
Conf_Id
SciTegic.value.IntegerValue
44

@<SCITEGIC>MOL_PROPERTY
Delta U+W
SciTegic.value.DoubleValue
-1.440

@<SCITEGIC>MOL_PROPERTY
U+W
SciTegic.value.DoubleValue
-53.185

@<SCITEGIC>MOL_PROPERTY
Grad RMS
SciTegic.value.DoubleValue
0.000000

@<SCITEGIC>MOL_PROPERTY
U
SciTegic.value.DoubleValue
6.572

@<SCITEGIC>MOL_PROPERTY
W
SciTegic.value.DoubleValue
-59.757

@<SCITEGIC>MOL_PROPERTY
W(PB)
SciTegic.value.DoubleValue
-62.007

@<SCITEGIC>MOL_PROPERTY
W(SA)
SciTegic.value.DoubleValue
2.249

@<SCITEGIC>MOL_PROPERTY
Valence
SciTegic.value.DoubleValue
7.989

@<SCITEGIC>MOL_PROPERTY
Coulomb
SciTegic.value.DoubleValue
-2.697

@<SCITEGIC>MOL_PROPERTY
VdW
SciTegic.value.DoubleValue
1.281

@<SCITEGIC>MOL_PROPERTY
VdW6
SciTegic.value.DoubleValue
-6.467

@<SCITEGIC>MOL_PROPERTY
VdW12
SciTegic.value.DoubleValue
7.748

@<SCITEGIC>MOL_PROPERTY
Bond
SciTegic.value.DoubleValue
0.136

@<SCITEGIC>MOL_PROPERTY
Angle
SciTegic.value.DoubleValue
2.854

@<SCITEGIC>MOL_PROPERTY
Pdih
SciTegic.value.DoubleValue
4.997

@<SCITEGIC>MOL_PROPERTY
Idih
SciTegic.value.DoubleValue
0.001

@<SCITEGIC>MOL_PROPERTY
Tether
SciTegic.value.DoubleValue
0.000

@<TRIPOS>MOLECULE
guest-s22_confgen4.mol2 : confsearch ligand conformer 684
          20          19           1
SMALL
USER_CHARGES
 
@<TRIPOS>ATOM
       1    C1      18.776464   18.032750   25.070391 C.2        1 MOL1        -0.2535
       2    H1      17.805706   18.287856   24.648340 H          1 MOL1         0.0845
       3    H2      18.829921   17.879063   26.146856 H          1 MOL1         0.0845
       4    C2      19.862193   17.914626   24.301654 C.2        1 MOL1        -0.1324
       5    H3      20.824692   17.659032   24.744264 H          1 MOL1         0.0833
       6    C3      19.864764   18.111675   22.801966 C.3        1 MOL1        -0.1813
       7    H4      18.835342   18.092585   22.421800 H          1 MOL1         0.0753
       8    H5      20.395290   17.277661   22.323537 H          1 MOL1         0.0753
       9    C4      20.543610   19.445905   22.418614 C.3        1 MOL1        -0.1855
      10    H6      19.980056   20.283141   22.852935 H          1 MOL1         0.0755
      11    H7      21.544371   19.478397   22.870838 H          1 MOL1         0.0755
      12    C5      20.686088   19.650040   20.891410 C.3        1 MOL1        -0.1855
      13    H8      21.257893   18.818312   20.457082 H          1 MOL1         0.0755
      14    H9      21.276340   20.559268   20.711384 H          1 MOL1         0.0755
      15    C6      19.327723   19.784870   20.155393 C.3        1 MOL1        -0.1958
      16    H10     18.749411   18.857797   20.237822 H          1 MOL1         0.0753
      17    H11     18.729128   20.583846   20.608956 H          1 MOL1         0.0753
      18    C7      19.489894   20.099256   18.672561 C.2        1 MOL1         0.6174
      19    O1      19.536444   21.265789   18.335262 O.co2      1 MOL1        -0.6695
      20    O2      19.585455   19.169478   17.895970 O.co2      1 MOL1        -0.6695
@<TRIPOS>BOND
    1     1     2    1
    2     1     3    1
    3     1     4    2
    4     4     5    1
    5     4     6    1
    6     6     7    1
    7     6     8    1
    8     6     9    1
    9     9    10    1
   10     9    11    1
   11     9    12    1
   12    12    13    1
   13    12    14    1
   14    12    15    1
   15    15    16    1
   16    15    17    1
   17    15    18    1
   18    18    19    1
   19    18    20    2
@<TRIPOS>SUBSTRUCTURE
       1 MOL1            1 RESIDUE      1      MOL     
@<SCITEGIC>MOL_PROPERTY
VConf Rank
SciTegic.value.IntegerValue
684

@<SCITEGIC>MOL_PROPERTY
Conf_Id
SciTegic.value.IntegerValue
38

@<SCITEGIC>MOL_PROPERTY
Delta U+W
SciTegic.value.DoubleValue
-0.381

@<SCITEGIC>MOL_PROPERTY
U+W
SciTegic.value.DoubleValue
-52.126

@<SCITEGIC>MOL_PROPERTY
Grad RMS
SciTegic.value.DoubleValue
0.000000

@<SCITEGIC>MOL_PROPERTY
U
SciTegic.value.DoubleValue
7.601

@<SCITEGIC>MOL_PROPERTY
W
SciTegic.value.DoubleValue
-59.727

@<SCITEGIC>MOL_PROPERTY
W(PB)
SciTegic.value.DoubleValue
-61.964

@<SCITEGIC>MOL_PROPERTY
W(SA)
SciTegic.value.DoubleValue
2.236

@<SCITEGIC>MOL_PROPERTY
Valence
SciTegic.value.DoubleValue
9.602

@<SCITEGIC>MOL_PROPERTY
Coulomb
SciTegic.value.DoubleValue
-2.686

@<SCITEGIC>MOL_PROPERTY
VdW
SciTegic.value.DoubleValue
0.685

@<SCITEGIC>MOL_PROPERTY
VdW6
SciTegic.value.DoubleValue
-6.453

@<SCITEGIC>MOL_PROPERTY
VdW12
SciTegic.value.DoubleValue
7.139

@<SCITEGIC>MOL_PROPERTY
Bond
SciTegic.value.DoubleValue
0.125

@<SCITEGIC>MOL_PROPERTY
Angle
SciTegic.value.DoubleValue
2.485

@<SCITEGIC>MOL_PROPERTY
Pdih
SciTegic.value.DoubleValue
6.991

@<SCITEGIC>MOL_PROPERTY
Idih
SciTegic.value.DoubleValue
0.001

@<SCITEGIC>MOL_PROPERTY
Tether
SciTegic.value.DoubleValue
0.000

@<TRIPOS>MOLECULE
guest-s22_confgen4.mol2 : confsearch ligand conformer 685
          20          19           1
SMALL
USER_CHARGES
 
@<TRIPOS>ATOM
       1    C1      21.652979   19.453307   25.021226 C.2        1 MOL1        -0.2535
       2    H1      20.960411   18.829846   25.584451 H          1 MOL1         0.0845
       3    H2      22.672643   19.532584   25.394413 H          1 MOL1         0.0845
       4    C2      21.271423   20.095504   23.914129 C.2        1 MOL1        -0.1324
       5    H3      21.980670   20.713924   23.364416 H          1 MOL1         0.0833
       6    C3      19.874779   20.033719   23.336878 C.3        1 MOL1        -0.1813
       7    H4      19.523909   21.050359   23.114487 H          1 MOL1         0.0753
       8    H5      19.177171   19.612448   24.073502 H          1 MOL1         0.0753
       9    C4      19.840794   19.182222   22.050483 C.3        1 MOL1        -0.1855
      10    H6      20.537555   19.607013   21.314611 H          1 MOL1         0.0755
      11    H7      20.196953   18.167522   22.275885 H          1 MOL1         0.0755
      12    C5      18.420425   19.111164   21.445639 C.3        1 MOL1        -0.1855
      13    H8      18.065291   20.123911   21.209166 H          1 MOL1         0.0755
      14    H9      17.728563   18.700092   22.193255 H          1 MOL1         0.0755
      15    C6      18.359596   18.234299   20.168024 C.3        1 MOL1        -0.1958
      16    H10     18.737514   17.227061   20.381350 H          1 MOL1         0.0753
      17    H11     17.316383   18.121320   19.850344 H          1 MOL1         0.0753
      18    C7      19.137112   18.806138   18.985934 C.2        1 MOL1         0.6174
      19    O1      20.201003   18.295667   18.695202 O.co2      1 MOL1        -0.6695
      20    O2      18.651537   19.741132   18.380045 O.co2      1 MOL1        -0.6695
@<TRIPOS>BOND
    1     1     2    1
    2     1     3    1
    3     1     4    2
    4     4     5    1
    5     4     6    1
    6     6     7    1
    7     6     8    1
    8     6     9    1
    9     9    10    1
   10     9    11    1
   11     9    12    1
   12    12    13    1
   13    12    14    1
   14    12    15    1
   15    15    16    1
   16    15    17    1
   17    15    18    1
   18    18    19    1
   19    18    20    2
@<TRIPOS>SUBSTRUCTURE
       1 MOL1            1 RESIDUE      1      MOL     
@<SCITEGIC>MOL_PROPERTY
VConf Rank
SciTegic.value.IntegerValue
685

@<SCITEGIC>MOL_PROPERTY
Conf_Id
SciTegic.value.IntegerValue
58

@<SCITEGIC>MOL_PROPERTY
Delta U+W
SciTegic.value.DoubleValue
0.019

@<SCITEGIC>MOL_PROPERTY
U+W
SciTegic.value.DoubleValue
-51.727

@<SCITEGIC>MOL_PROPERTY
Grad RMS
SciTegic.value.DoubleValue
0.000000

@<SCITEGIC>MOL_PROPERTY
U
SciTegic.value.DoubleValue
8.963

@<SCITEGIC>MOL_PROPERTY
W
SciTegic.value.DoubleValue
-60.690

@<SCITEGIC>MOL_PROPERTY
W(PB)
SciTegic.value.DoubleValue
-62.934

@<SCITEGIC>MOL_PROPERTY
W(SA)
SciTegic.value.DoubleValue
2.244

@<SCITEGIC>MOL_PROPERTY
Valence
SciTegic.value.DoubleValue
9.327

@<SCITEGIC>MOL_PROPERTY
Coulomb
SciTegic.value.DoubleValue
-0.780

@<SCITEGIC>MOL_PROPERTY
VdW
SciTegic.value.DoubleValue
0.417

@<SCITEGIC>MOL_PROPERTY
VdW6
SciTegic.value.DoubleValue
-6.635

@<SCITEGIC>MOL_PROPERTY
VdW12
SciTegic.value.DoubleValue
7.052

@<SCITEGIC>MOL_PROPERTY
Bond
SciTegic.value.DoubleValue
0.105

@<SCITEGIC>MOL_PROPERTY
Angle
SciTegic.value.DoubleValue
2.399

@<SCITEGIC>MOL_PROPERTY
Pdih
SciTegic.value.DoubleValue
6.822

@<SCITEGIC>MOL_PROPERTY
Idih
SciTegic.value.DoubleValue
0.000

@<SCITEGIC>MOL_PROPERTY
Tether
SciTegic.value.DoubleValue
0.000

@<TRIPOS>MOLECULE
guest-s22_confgen4.mol2 : confsearch ligand conformer 686
          20          19           1
SMALL
USER_CHARGES
 
@<TRIPOS>ATOM
       1    C1      16.480783   17.810446   22.073402 C.2        1 MOL1        -0.2535
       2    H1      16.008033   18.747372   21.783138 H          1 MOL1         0.0845
       3    H2      15.858319   17.068121   22.570149 H          1 MOL1         0.0845
       4    C2      17.773889   17.577849   21.833732 C.2        1 MOL1        -0.1324
       5    H3      18.228049   16.633565   22.133274 H          1 MOL1         0.0833
       6    C3      18.699125   18.559091   21.149081 C.3        1 MOL1        -0.1813
       7    H4      18.117588   19.353308   20.661460 H          1 MOL1         0.0753
       8    H5      19.258560   18.044654   20.356293 H          1 MOL1         0.0753
       9    C4      19.686845   19.187794   22.154146 C.3        1 MOL1        -0.1855
      10    H6      19.123564   19.697323   22.948103 H          1 MOL1         0.0755
      11    H7      20.268778   18.391576   22.638730 H          1 MOL1         0.0755
      12    C5      20.642227   20.191411   21.469803 C.3        1 MOL1        -0.1855
      13    H8      20.051413   20.974353   20.975309 H          1 MOL1         0.0755
      14    H9      21.215018   19.682411   20.682070 H          1 MOL1         0.0755
      15    C6      21.623304   20.857211   22.469349 C.3        1 MOL1        -0.1958
      16    H10     22.193053   21.641100   21.956628 H          1 MOL1         0.0753
      17    H11     21.066621   21.346403   23.277837 H          1 MOL1         0.0753
      18    C7      22.630341   19.890884   23.086564 C.2        1 MOL1         0.6174
      19    O1      23.563232   19.521312   22.400832 O.co2      1 MOL1        -0.6695
      20    O2      22.462344   19.542014   24.238535 O.co2      1 MOL1        -0.6695
@<TRIPOS>BOND
    1     1     2    1
    2     1     3    1
    3     1     4    2
    4     4     5    1
    5     4     6    1
    6     6     7    1
    7     6     8    1
    8     6     9    1
    9     9    10    1
   10     9    11    1
   11     9    12    1
   12    12    13    1
   13    12    14    1
   14    12    15    1
   15    15    16    1
   16    15    17    1
   17    15    18    1
   18    18    19    1
   19    18    20    2
@<TRIPOS>SUBSTRUCTURE
       1 MOL1            1 RESIDUE      1      MOL     
@<SCITEGIC>MOL_PROPERTY
VConf Rank
SciTegic.value.IntegerValue
686

@<SCITEGIC>MOL_PROPERTY
Conf_Id
SciTegic.value.IntegerValue
54

@<SCITEGIC>MOL_PROPERTY
Delta U+W
SciTegic.value.DoubleValue
-0.048

@<SCITEGIC>MOL_PROPERTY
U+W
SciTegic.value.DoubleValue
-51.793

@<SCITEGIC>MOL_PROPERTY
Grad RMS
SciTegic.value.DoubleValue
0.000000

@<SCITEGIC>MOL_PROPERTY
U
SciTegic.value.DoubleValue
8.964

@<SCITEGIC>MOL_PROPERTY
W
SciTegic.value.DoubleValue
-60.756

@<SCITEGIC>MOL_PROPERTY
W(PB)
SciTegic.value.DoubleValue
-63.007

@<SCITEGIC>MOL_PROPERTY
W(SA)
SciTegic.value.DoubleValue
2.251

@<SCITEGIC>MOL_PROPERTY
Valence
SciTegic.value.DoubleValue
9.327

@<SCITEGIC>MOL_PROPERTY
Coulomb
SciTegic.value.DoubleValue
-0.780

@<SCITEGIC>MOL_PROPERTY
VdW
SciTegic.value.DoubleValue
0.417

@<SCITEGIC>MOL_PROPERTY
VdW6
SciTegic.value.DoubleValue
-6.635

@<SCITEGIC>MOL_PROPERTY
VdW12
SciTegic.value.DoubleValue
7.052

@<SCITEGIC>MOL_PROPERTY
Bond
SciTegic.value.DoubleValue
0.105

@<SCITEGIC>MOL_PROPERTY
Angle
SciTegic.value.DoubleValue
2.399

@<SCITEGIC>MOL_PROPERTY
Pdih
SciTegic.value.DoubleValue
6.822

@<SCITEGIC>MOL_PROPERTY
Idih
SciTegic.value.DoubleValue
0.000

@<SCITEGIC>MOL_PROPERTY
Tether
SciTegic.value.DoubleValue
0.000

@<TRIPOS>MOLECULE
guest-s22_confgen4.mol2 : confsearch ligand conformer 687
          20          19           1
SMALL
USER_CHARGES
 
@<TRIPOS>ATOM
       1    C1      18.904346   22.188125   23.021712 C.2        1 MOL1        -0.2535
       2    H1      18.194930   22.559571   23.759238 H          1 MOL1         0.0845
       3    H2      19.848690   22.720820   22.921913 H          1 MOL1         0.0845
       4    C2      18.624589   21.118459   22.272564 C.2        1 MOL1        -0.1324
       5    H3      17.671860   20.602068   22.386148 H          1 MOL1         0.0833
       6    C3      19.557641   20.550465   21.224403 C.3        1 MOL1        -0.1813
       7    H4      20.290949   21.313266   20.929572 H          1 MOL1         0.0753
       8    H5      18.992880   20.300297   20.316380 H          1 MOL1         0.0753
       9    C4      20.317477   19.301907   21.726352 C.3        1 MOL1        -0.1855
      10    H6      21.071641   19.024921   20.977020 H          1 MOL1         0.0755
      11    H7      20.866396   19.552816   22.644432 H          1 MOL1         0.0755
      12    C5      19.385596   18.094379   21.986306 C.3        1 MOL1        -0.1855
      13    H8      18.825674   17.852446   21.072307 H          1 MOL1         0.0755
      14    H9      18.643797   18.361585   22.750393 H          1 MOL1         0.0755
      15    C6      20.158668   16.837297   22.463051 C.3        1 MOL1        -0.1958
      16    H10     20.749692   17.072471   23.356480 H          1 MOL1         0.0753
      17    H11     19.445424   16.056006   22.750841 H          1 MOL1         0.0753
      18    C7      21.086205   16.241447   21.407838 C.2        1 MOL1         0.6174
      19    O1      22.282175   16.424491   21.522727 O.co2      1 MOL1        -0.6695
      20    O2      20.587572   15.600126   20.503854 O.co2      1 MOL1        -0.6695
@<TRIPOS>BOND
    1     1     2    1
    2     1     3    1
    3     1     4    2
    4     4     5    1
    5     4     6    1
    6     6     7    1
    7     6     8    1
    8     6     9    1
    9     9    10    1
   10     9    11    1
   11     9    12    1
   12    12    13    1
   13    12    14    1
   14    12    15    1
   15    15    16    1
   16    15    17    1
   17    15    18    1
   18    18    19    1
   19    18    20    2
@<TRIPOS>SUBSTRUCTURE
       1 MOL1            1 RESIDUE      1      MOL     
@<SCITEGIC>MOL_PROPERTY
VConf Rank
SciTegic.value.IntegerValue
687

@<SCITEGIC>MOL_PROPERTY
Conf_Id
SciTegic.value.IntegerValue
27

@<SCITEGIC>MOL_PROPERTY
Delta U+W
SciTegic.value.DoubleValue
0.478

@<SCITEGIC>MOL_PROPERTY
U+W
SciTegic.value.DoubleValue
-51.267

@<SCITEGIC>MOL_PROPERTY
Grad RMS
SciTegic.value.DoubleValue
0.000000

@<SCITEGIC>MOL_PROPERTY
U
SciTegic.value.DoubleValue
9.192

@<SCITEGIC>MOL_PROPERTY
W
SciTegic.value.DoubleValue
-60.459

@<SCITEGIC>MOL_PROPERTY
W(PB)
SciTegic.value.DoubleValue
-62.649

@<SCITEGIC>MOL_PROPERTY
W(SA)
SciTegic.value.DoubleValue
2.190

@<SCITEGIC>MOL_PROPERTY
Valence
SciTegic.value.DoubleValue
9.572

@<SCITEGIC>MOL_PROPERTY
Coulomb
SciTegic.value.DoubleValue
-0.884

@<SCITEGIC>MOL_PROPERTY
VdW
SciTegic.value.DoubleValue
0.504

@<SCITEGIC>MOL_PROPERTY
VdW6
SciTegic.value.DoubleValue
-7.168

@<SCITEGIC>MOL_PROPERTY
VdW12
SciTegic.value.DoubleValue
7.672

@<SCITEGIC>MOL_PROPERTY
Bond
SciTegic.value.DoubleValue
0.127

@<SCITEGIC>MOL_PROPERTY
Angle
SciTegic.value.DoubleValue
2.504

@<SCITEGIC>MOL_PROPERTY
Pdih
SciTegic.value.DoubleValue
6.941

@<SCITEGIC>MOL_PROPERTY
Idih
SciTegic.value.DoubleValue
0.001

@<SCITEGIC>MOL_PROPERTY
Tether
SciTegic.value.DoubleValue
0.000

@<TRIPOS>MOLECULE
guest-s22_confgen4.mol2 : confsearch ligand conformer 688
          20          19           1
SMALL
USER_CHARGES
 
@<TRIPOS>ATOM
       1    C1      22.423417   17.285263   23.107593 C.2        1 MOL1        -0.2535
       2    H1      22.513386   16.340953   22.573093 H          1 MOL1         0.0845
       3    H2      22.824414   17.328936   24.118777 H          1 MOL1         0.0845
       4    C2      21.841591   18.349915   22.549318 C.2        1 MOL1        -0.1324
       5    H3      21.764804   19.286460   23.100933 H          1 MOL1         0.0833
       6    C3      21.268264   18.365070   21.148295 C.3        1 MOL1        -0.1813
       7    H4      21.695923   17.538890   20.564266 H          1 MOL1         0.0753
       8    H5      21.562413   19.289554   20.633645 H          1 MOL1         0.0753
       9    C4      19.728740   18.231362   21.141311 C.3        1 MOL1        -0.1855
      10    H6      19.388578   18.115663   20.103148 H          1 MOL1         0.0755
      11    H7      19.439957   17.313078   21.671090 H          1 MOL1         0.0755
      12    C5      19.016794   19.448176   21.775770 C.3        1 MOL1        -0.1855
      13    H8      19.326618   20.368500   21.261601 H          1 MOL1         0.0755
      14    H9      19.317917   19.552783   22.826990 H          1 MOL1         0.0755
      15    C6      17.475656   19.315518   21.702586 C.3        1 MOL1        -0.1958
      16    H10     17.151895   19.226429   20.658662 H          1 MOL1         0.0753
      17    H11     17.149088   18.406773   22.222340 H          1 MOL1         0.0753
      18    C7      16.749383   20.503398   22.323485 C.2        1 MOL1         0.6174
      19    O1      16.474060   20.453364   23.506006 O.co2      1 MOL1        -0.6695
      20    O2      16.493770   21.454897   21.612141 O.co2      1 MOL1        -0.6695
@<TRIPOS>BOND
    1     1     2    1
    2     1     3    1
    3     1     4    2
    4     4     5    1
    5     4     6    1
    6     6     7    1
    7     6     8    1
    8     6     9    1
    9     9    10    1
   10     9    11    1
   11     9    12    1
   12    12    13    1
   13    12    14    1
   14    12    15    1
   15    15    16    1
   16    15    17    1
   17    15    18    1
   18    18    19    1
   19    18    20    2
@<TRIPOS>SUBSTRUCTURE
       1 MOL1            1 RESIDUE      1      MOL     
@<SCITEGIC>MOL_PROPERTY
VConf Rank
SciTegic.value.IntegerValue
688

@<SCITEGIC>MOL_PROPERTY
Conf_Id
SciTegic.value.IntegerValue
41

@<SCITEGIC>MOL_PROPERTY
Delta U+W
SciTegic.value.DoubleValue
-0.634

@<SCITEGIC>MOL_PROPERTY
U+W
SciTegic.value.DoubleValue
-52.379

@<SCITEGIC>MOL_PROPERTY
Grad RMS
SciTegic.value.DoubleValue
0.000000

@<SCITEGIC>MOL_PROPERTY
U
SciTegic.value.DoubleValue
7.828

@<SCITEGIC>MOL_PROPERTY
W
SciTegic.value.DoubleValue
-60.207

@<SCITEGIC>MOL_PROPERTY
W(PB)
SciTegic.value.DoubleValue
-62.449

@<SCITEGIC>MOL_PROPERTY
W(SA)
SciTegic.value.DoubleValue
2.242

@<SCITEGIC>MOL_PROPERTY
Valence
SciTegic.value.DoubleValue
9.300

@<SCITEGIC>MOL_PROPERTY
Coulomb
SciTegic.value.DoubleValue
-2.080

@<SCITEGIC>MOL_PROPERTY
VdW
SciTegic.value.DoubleValue
0.608

@<SCITEGIC>MOL_PROPERTY
VdW6
SciTegic.value.DoubleValue
-6.341

@<SCITEGIC>MOL_PROPERTY
VdW12
SciTegic.value.DoubleValue
6.949

@<SCITEGIC>MOL_PROPERTY
Bond
SciTegic.value.DoubleValue
0.103

@<SCITEGIC>MOL_PROPERTY
Angle
SciTegic.value.DoubleValue
2.334

@<SCITEGIC>MOL_PROPERTY
Pdih
SciTegic.value.DoubleValue
6.862

@<SCITEGIC>MOL_PROPERTY
Idih
SciTegic.value.DoubleValue
0.001

@<SCITEGIC>MOL_PROPERTY
Tether
SciTegic.value.DoubleValue
0.000

@<TRIPOS>MOLECULE
guest-s22_confgen4.mol2 : confsearch ligand conformer 689
          20          19           1
SMALL
USER_CHARGES
 
@<TRIPOS>ATOM
       1    C1      20.064682   16.531981   19.576167 C.2        1 MOL1        -0.2535
       2    H1      19.969588   15.483377   19.299356 H          1 MOL1         0.0845
       3    H2      19.969937   17.270510   18.781717 H          1 MOL1         0.0845
       4    C2      20.286630   16.894097   20.842393 C.2        1 MOL1        -0.1324
       5    H3      20.377733   16.139332   21.623223 H          1 MOL1         0.0833
       6    C3      20.430815   18.327941   21.301630 C.3        1 MOL1        -0.1813
       7    H4      20.583795   18.990062   20.438747 H          1 MOL1         0.0753
       8    H5      21.324336   18.414930   21.933300 H          1 MOL1         0.0753
       9    C4      19.183128   18.786313   22.089253 C.3        1 MOL1        -0.1855
      10    H6      18.289444   18.598283   21.478407 H          1 MOL1         0.0755
      11    H7      19.073358   18.171825   22.993473 H          1 MOL1         0.0755
      12    C5      19.210605   20.286182   22.473738 C.3        1 MOL1        -0.1855
      13    H8      18.259003   20.544347   22.958702 H          1 MOL1         0.0755
      14    H9      19.264355   20.892947   21.559761 H          1 MOL1         0.0755
      15    C6      20.376288   20.685596   23.419293 C.3        1 MOL1        -0.1958
      16    H10     21.344225   20.510676   22.936069 H          1 MOL1         0.0753
      17    H11     20.323194   21.760757   23.626455 H          1 MOL1         0.0753
      18    C7      20.363484   19.963351   24.763515 C.2        1 MOL1         0.6174
      19    O1      19.510650   20.273886   25.572000 O.co2      1 MOL1        -0.6695
      20    O2      21.215952   19.123184   24.974162 O.co2      1 MOL1        -0.6695
@<TRIPOS>BOND
    1     1     2    1
    2     1     3    1
    3     1     4    2
    4     4     5    1
    5     4     6    1
    6     6     7    1
    7     6     8    1
    8     6     9    1
    9     9    10    1
   10     9    11    1
   11     9    12    1
   12    12    13    1
   13    12    14    1
   14    12    15    1
   15    15    16    1
   16    15    17    1
   17    15    18    1
   18    18    19    1
   19    18    20    2
@<TRIPOS>SUBSTRUCTURE
       1 MOL1            1 RESIDUE      1      MOL     
@<SCITEGIC>MOL_PROPERTY
VConf Rank
SciTegic.value.IntegerValue
689

@<SCITEGIC>MOL_PROPERTY
Conf_Id
SciTegic.value.IntegerValue
84

@<SCITEGIC>MOL_PROPERTY
Delta U+W
SciTegic.value.DoubleValue
0.942

@<SCITEGIC>MOL_PROPERTY
U+W
SciTegic.value.DoubleValue
-50.803

@<SCITEGIC>MOL_PROPERTY
Grad RMS
SciTegic.value.DoubleValue
0.000000

@<SCITEGIC>MOL_PROPERTY
U
SciTegic.value.DoubleValue
10.196

@<SCITEGIC>MOL_PROPERTY
W
SciTegic.value.DoubleValue
-60.999

@<SCITEGIC>MOL_PROPERTY
W(PB)
SciTegic.value.DoubleValue
-63.182

@<SCITEGIC>MOL_PROPERTY
W(SA)
SciTegic.value.DoubleValue
2.182

@<SCITEGIC>MOL_PROPERTY
Valence
SciTegic.value.DoubleValue
9.837

@<SCITEGIC>MOL_PROPERTY
Coulomb
SciTegic.value.DoubleValue
0.032

@<SCITEGIC>MOL_PROPERTY
VdW
SciTegic.value.DoubleValue
0.328

@<SCITEGIC>MOL_PROPERTY
VdW6
SciTegic.value.DoubleValue
-7.642

@<SCITEGIC>MOL_PROPERTY
VdW12
SciTegic.value.DoubleValue
7.969

@<SCITEGIC>MOL_PROPERTY
Bond
SciTegic.value.DoubleValue
0.151

@<SCITEGIC>MOL_PROPERTY
Angle
SciTegic.value.DoubleValue
2.748

@<SCITEGIC>MOL_PROPERTY
Pdih
SciTegic.value.DoubleValue
6.937

@<SCITEGIC>MOL_PROPERTY
Idih
SciTegic.value.DoubleValue
0.001

@<SCITEGIC>MOL_PROPERTY
Tether
SciTegic.value.DoubleValue
0.000

@<TRIPOS>MOLECULE
guest-s22_confgen4.mol2 : confsearch ligand conformer 690
          20          19           1
SMALL
USER_CHARGES
 
@<TRIPOS>ATOM
       1    C1      16.474537   20.558542   22.613295 C.2        1 MOL1        -0.2535
       2    H1      15.532350   20.854464   22.155064 H          1 MOL1         0.0845
       3    H2      16.423764   19.961107   23.522183 H          1 MOL1         0.0845
       4    C2      17.644666   20.914453   22.076835 C.2        1 MOL1        -0.1324
       5    H3      17.673501   21.512065   21.165976 H          1 MOL1         0.0833
       6    C3      18.991213   20.542017   22.656290 C.3        1 MOL1        -0.1813
       7    H4      18.874162   20.174914   23.685039 H          1 MOL1         0.0753
       8    H5      19.627676   21.435393   22.709918 H          1 MOL1         0.0753
       9    C4      19.686199   19.461471   21.801613 C.3        1 MOL1        -0.1855
      10    H6      19.041298   18.573328   21.746983 H          1 MOL1         0.0755
      11    H7      19.807304   19.829500   20.773538 H          1 MOL1         0.0755
      12    C5      21.065889   19.071925   22.378712 C.3        1 MOL1        -0.1855
      13    H8      20.946827   18.690015   23.402275 H          1 MOL1         0.0755
      14    H9      21.696269   19.968856   22.447312 H          1 MOL1         0.0755
      15    C6      21.794900   18.009450   21.515825 C.3        1 MOL1        -0.1958
      16    H10     21.897418   18.365119   20.483428 H          1 MOL1         0.0753
      17    H11     22.809851   17.857663   21.901584 H          1 MOL1         0.0753
      18    C7      21.106114   16.647808   21.495863 C.2        1 MOL1         0.6174
      19    O1      20.495137   16.326120   20.495764 O.co2      1 MOL1        -0.6695
      20    O2      21.210498   15.939203   22.477744 O.co2      1 MOL1        -0.6695
@<TRIPOS>BOND
    1     1     2    1
    2     1     3    1
    3     1     4    2
    4     4     5    1
    5     4     6    1
    6     6     7    1
    7     6     8    1
    8     6     9    1
    9     9    10    1
   10     9    11    1
   11     9    12    1
   12    12    13    1
   13    12    14    1
   14    12    15    1
   15    15    16    1
   16    15    17    1
   17    15    18    1
   18    18    19    1
   19    18    20    2
@<TRIPOS>SUBSTRUCTURE
       1 MOL1            1 RESIDUE      1      MOL     
@<SCITEGIC>MOL_PROPERTY
VConf Rank
SciTegic.value.IntegerValue
690

@<SCITEGIC>MOL_PROPERTY
Conf_Id
SciTegic.value.IntegerValue
81

@<SCITEGIC>MOL_PROPERTY
Delta U+W
SciTegic.value.DoubleValue
-0.051

@<SCITEGIC>MOL_PROPERTY
U+W
SciTegic.value.DoubleValue
-51.796

@<SCITEGIC>MOL_PROPERTY
Grad RMS
SciTegic.value.DoubleValue
0.000000

@<SCITEGIC>MOL_PROPERTY
U
SciTegic.value.DoubleValue
9.412

@<SCITEGIC>MOL_PROPERTY
W
SciTegic.value.DoubleValue
-61.209

@<SCITEGIC>MOL_PROPERTY
W(PB)
SciTegic.value.DoubleValue
-63.452

@<SCITEGIC>MOL_PROPERTY
W(SA)
SciTegic.value.DoubleValue
2.243

@<SCITEGIC>MOL_PROPERTY
Valence
SciTegic.value.DoubleValue
9.329

@<SCITEGIC>MOL_PROPERTY
Coulomb
SciTegic.value.DoubleValue
-0.323

@<SCITEGIC>MOL_PROPERTY
VdW
SciTegic.value.DoubleValue
0.406

@<SCITEGIC>MOL_PROPERTY
VdW6
SciTegic.value.DoubleValue
-6.640

@<SCITEGIC>MOL_PROPERTY
VdW12
SciTegic.value.DoubleValue
7.046

@<SCITEGIC>MOL_PROPERTY
Bond
SciTegic.value.DoubleValue
0.105

@<SCITEGIC>MOL_PROPERTY
Angle
SciTegic.value.DoubleValue
2.401

@<SCITEGIC>MOL_PROPERTY
Pdih
SciTegic.value.DoubleValue
6.823

@<SCITEGIC>MOL_PROPERTY
Idih
SciTegic.value.DoubleValue
0.000

@<SCITEGIC>MOL_PROPERTY
Tether
SciTegic.value.DoubleValue
0.000

@<TRIPOS>MOLECULE
guest-s22_confgen4.mol2 : confsearch ligand conformer 691
          20          19           1
SMALL
USER_CHARGES
 
@<TRIPOS>ATOM
       1    C1      22.214887   19.151740   24.011699 C.2        1 MOL1        -0.2535
       2    H1      23.076255   18.812762   23.438464 H          1 MOL1         0.0845
       3    H2      22.408963   19.662215   24.953450 H          1 MOL1         0.0845
       4    C2      20.967204   18.953578   23.578459 C.2        1 MOL1        -0.1324
       5    H3      20.118800   19.298687   24.168658 H          1 MOL1         0.0833
       6    C3      20.620587   18.248466   22.284551 C.3        1 MOL1        -0.1813
       7    H4      19.803021   17.535281   22.451548 H          1 MOL1         0.0753
       8    H5      21.477033   17.648314   21.949093 H          1 MOL1         0.0753
       9    C4      20.241646   19.236906   21.155792 C.3        1 MOL1        -0.1855
      10    H6      21.105173   19.883114   20.947057 H          1 MOL1         0.0755
      11    H7      20.056249   18.669683   20.233373 H          1 MOL1         0.0755
      12    C5      19.012013   20.130322   21.462225 C.3        1 MOL1        -0.1855
      13    H8      18.848877   20.807675   20.612659 H          1 MOL1         0.0755
      14    H9      19.232046   20.773180   22.324787 H          1 MOL1         0.0755
      15    C6      17.699057   19.345978   21.732674 C.3        1 MOL1        -0.1958
      16    H10     17.802655   18.714574   22.622414 H          1 MOL1         0.0753
      17    H11     16.890734   20.054503   21.947646 H          1 MOL1         0.0753
      18    C7      17.241984   18.475432   20.565722 C.2        1 MOL1         0.6174
      19    O1      17.339012   17.268820   20.674156 O.co2      1 MOL1        -0.6695
      20    O2      16.784033   19.027811   19.584590 O.co2      1 MOL1        -0.6695
@<TRIPOS>BOND
    1     1     2    1
    2     1     3    1
    3     1     4    2
    4     4     5    1
    5     4     6    1
    6     6     7    1
    7     6     8    1
    8     6     9    1
    9     9    10    1
   10     9    11    1
   11     9    12    1
   12    12    13    1
   13    12    14    1
   14    12    15    1
   15    15    16    1
   16    15    17    1
   17    15    18    1
   18    18    19    1
   19    18    20    2
@<TRIPOS>SUBSTRUCTURE
       1 MOL1            1 RESIDUE      1      MOL     
@<SCITEGIC>MOL_PROPERTY
VConf Rank
SciTegic.value.IntegerValue
691

@<SCITEGIC>MOL_PROPERTY
Conf_Id
SciTegic.value.IntegerValue
86

@<SCITEGIC>MOL_PROPERTY
Delta U+W
SciTegic.value.DoubleValue
1.248

@<SCITEGIC>MOL_PROPERTY
U+W
SciTegic.value.DoubleValue
-50.498

@<SCITEGIC>MOL_PROPERTY
Grad RMS
SciTegic.value.DoubleValue
0.000000

@<SCITEGIC>MOL_PROPERTY
U
SciTegic.value.DoubleValue
10.404

@<SCITEGIC>MOL_PROPERTY
W
SciTegic.value.DoubleValue
-60.901

@<SCITEGIC>MOL_PROPERTY
W(PB)
SciTegic.value.DoubleValue
-63.061

@<SCITEGIC>MOL_PROPERTY
W(SA)
SciTegic.value.DoubleValue
2.159

@<SCITEGIC>MOL_PROPERTY
Valence
SciTegic.value.DoubleValue
10.021

@<SCITEGIC>MOL_PROPERTY
Coulomb
SciTegic.value.DoubleValue
0.094

@<SCITEGIC>MOL_PROPERTY
VdW
SciTegic.value.DoubleValue
0.289

@<SCITEGIC>MOL_PROPERTY
VdW6
SciTegic.value.DoubleValue
-8.409

@<SCITEGIC>MOL_PROPERTY
VdW12
SciTegic.value.DoubleValue
8.698

@<SCITEGIC>MOL_PROPERTY
Bond
SciTegic.value.DoubleValue
0.179

@<SCITEGIC>MOL_PROPERTY
Angle
SciTegic.value.DoubleValue
2.939

@<SCITEGIC>MOL_PROPERTY
Pdih
SciTegic.value.DoubleValue
6.902

@<SCITEGIC>MOL_PROPERTY
Idih
SciTegic.value.DoubleValue
0.001

@<SCITEGIC>MOL_PROPERTY
Tether
SciTegic.value.DoubleValue
0.000

@<TRIPOS>MOLECULE
guest-s22_confgen4.mol2 : confsearch ligand conformer 692
          20          19           1
SMALL
USER_CHARGES
 
@<TRIPOS>ATOM
       1    C1      21.220041   16.649333   23.417471 C.2        1 MOL1        -0.2535
       2    H1      21.586611   16.381592   24.406938 H          1 MOL1         0.0845
       3    H2      20.478179   15.994316   22.963581 H          1 MOL1         0.0845
       4    C2      21.663021   17.741784   22.789503 C.2        1 MOL1        -0.1324
       5    H3      22.404309   18.385458   23.262331 H          1 MOL1         0.0833
       6    C3      21.200616   18.178053   21.415493 C.3        1 MOL1        -0.1813
       7    H4      20.618672   17.381625   20.932063 H          1 MOL1         0.0753
       8    H5      22.079074   18.349339   20.779258 H          1 MOL1         0.0753
       9    C4      20.360199   19.473992   21.463476 C.3        1 MOL1        -0.1855
      10    H6      20.940054   20.270003   21.950361 H          1 MOL1         0.0755
      11    H7      20.170846   19.809556   20.434616 H          1 MOL1         0.0755
      12    C5      19.011655   19.284081   22.197616 C.3        1 MOL1        -0.1855
      13    H8      19.199651   18.955203   23.228424 H          1 MOL1         0.0755
      14    H9      18.433644   18.485270   21.712688 H          1 MOL1         0.0755
      15    C6      18.164485   20.582531   22.234527 C.3        1 MOL1        -0.1958
      16    H10     17.282921   20.426643   22.867365 H          1 MOL1         0.0753
      17    H11     18.740847   21.397946   22.688049 H          1 MOL1         0.0753
      18    C7      17.668344   21.038990   20.865507 C.2        1 MOL1         0.6174
      19    O1      16.734379   20.442198   20.366832 O.co2      1 MOL1        -0.6695
      20    O2      18.220160   21.985242   20.339014 O.co2      1 MOL1        -0.6695
@<TRIPOS>BOND
    1     1     2    1
    2     1     3    1
    3     1     4    2
    4     4     5    1
    5     4     6    1
    6     6     7    1
    7     6     8    1
    8     6     9    1
    9     9    10    1
   10     9    11    1
   11     9    12    1
   12    12    13    1
   13    12    14    1
   14    12    15    1
   15    15    16    1
   16    15    17    1
   17    15    18    1
   18    18    19    1
   19    18    20    2
@<TRIPOS>SUBSTRUCTURE
       1 MOL1            1 RESIDUE      1      MOL     
@<SCITEGIC>MOL_PROPERTY
VConf Rank
SciTegic.value.IntegerValue
692

@<SCITEGIC>MOL_PROPERTY
Conf_Id
SciTegic.value.IntegerValue
28

@<SCITEGIC>MOL_PROPERTY
Delta U+W
SciTegic.value.DoubleValue
0.446

@<SCITEGIC>MOL_PROPERTY
U+W
SciTegic.value.DoubleValue
-51.299

@<SCITEGIC>MOL_PROPERTY
Grad RMS
SciTegic.value.DoubleValue
0.000000

@<SCITEGIC>MOL_PROPERTY
U
SciTegic.value.DoubleValue
9.295

@<SCITEGIC>MOL_PROPERTY
W
SciTegic.value.DoubleValue
-60.594

@<SCITEGIC>MOL_PROPERTY
W(PB)
SciTegic.value.DoubleValue
-62.806

@<SCITEGIC>MOL_PROPERTY
W(SA)
SciTegic.value.DoubleValue
2.212

@<SCITEGIC>MOL_PROPERTY
Valence
SciTegic.value.DoubleValue
9.495

@<SCITEGIC>MOL_PROPERTY
Coulomb
SciTegic.value.DoubleValue
-0.610

@<SCITEGIC>MOL_PROPERTY
VdW
SciTegic.value.DoubleValue
0.409

@<SCITEGIC>MOL_PROPERTY
VdW6
SciTegic.value.DoubleValue
-7.332

@<SCITEGIC>MOL_PROPERTY
VdW12
SciTegic.value.DoubleValue
7.741

@<SCITEGIC>MOL_PROPERTY
Bond
SciTegic.value.DoubleValue
0.126

@<SCITEGIC>MOL_PROPERTY
Angle
SciTegic.value.DoubleValue
2.497

@<SCITEGIC>MOL_PROPERTY
Pdih
SciTegic.value.DoubleValue
6.872

@<SCITEGIC>MOL_PROPERTY
Idih
SciTegic.value.DoubleValue
0.000

@<SCITEGIC>MOL_PROPERTY
Tether
SciTegic.value.DoubleValue
0.000

@<TRIPOS>MOLECULE
guest-s22_confgen4.mol2 : confsearch ligand conformer 693
          20          19           1
SMALL
USER_CHARGES
 
@<TRIPOS>ATOM
       1    C1      19.099574   22.023338   20.868629 C.2        1 MOL1        -0.2535
       2    H1      18.187958   21.622609   21.306655 H          1 MOL1         0.0845
       3    H2      19.058530   23.046541   20.499155 H          1 MOL1         0.0845
       4    C2      20.228442   21.310468   20.782324 C.2        1 MOL1        -0.1324
       5    H3      21.110728   21.767626   20.334978 H          1 MOL1         0.0833
       6    C3      20.438071   19.879665   21.249564 C.3        1 MOL1        -0.1813
       7    H4      21.211745   19.879612   22.028080 H          1 MOL1         0.0753
       8    H5      20.851042   19.295303   20.416660 H          1 MOL1         0.0753
       9    C4      19.166019   19.172353   21.778898 C.3        1 MOL1        -0.1855
      10    H6      18.793998   19.698984   22.668523 H          1 MOL1         0.0755
      11    H7      18.375813   19.241523   21.018975 H          1 MOL1         0.0755
      12    C5      19.385479   17.676096   22.113728 C.3        1 MOL1        -0.1855
      13    H8      19.709097   17.146199   21.207710 H          1 MOL1         0.0755
      14    H9      18.421432   17.233534   22.400364 H          1 MOL1         0.0755
      15    C6      20.410782   17.413637   23.250621 C.3        1 MOL1        -0.1958
      16    H10     20.507913   16.333244   23.408654 H          1 MOL1         0.0753
      17    H11     21.405424   17.775504   22.966656 H          1 MOL1         0.0753
      18    C7      20.028550   18.034648   24.591199 C.2        1 MOL1         0.6174
      19    O1      19.093177   17.552609   25.199614 O.co2      1 MOL1        -0.6695
      20    O2      20.687930   18.969250   25.001799 O.co2      1 MOL1        -0.6695
@<TRIPOS>BOND
    1     1     2    1
    2     1     3    1
    3     1     4    2
    4     4     5    1
    5     4     6    1
    6     6     7    1
    7     6     8    1
    8     6     9    1
    9     9    10    1
   10     9    11    1
   11     9    12    1
   12    12    13    1
   13    12    14    1
   14    12    15    1
   15    15    16    1
   16    15    17    1
   17    15    18    1
   18    18    19    1
   19    18    20    2
@<TRIPOS>SUBSTRUCTURE
       1 MOL1            1 RESIDUE      1      MOL     
@<SCITEGIC>MOL_PROPERTY
VConf Rank
SciTegic.value.IntegerValue
693

@<SCITEGIC>MOL_PROPERTY
Conf_Id
SciTegic.value.IntegerValue
53

@<SCITEGIC>MOL_PROPERTY
Delta U+W
SciTegic.value.DoubleValue
0.549

@<SCITEGIC>MOL_PROPERTY
U+W
SciTegic.value.DoubleValue
-51.197

@<SCITEGIC>MOL_PROPERTY
Grad RMS
SciTegic.value.DoubleValue
0.000000

@<SCITEGIC>MOL_PROPERTY
U
SciTegic.value.DoubleValue
10.870

@<SCITEGIC>MOL_PROPERTY
W
SciTegic.value.DoubleValue
-62.067

@<SCITEGIC>MOL_PROPERTY
W(PB)
SciTegic.value.DoubleValue
-64.228

@<SCITEGIC>MOL_PROPERTY
W(SA)
SciTegic.value.DoubleValue
2.161

@<SCITEGIC>MOL_PROPERTY
Valence
SciTegic.value.DoubleValue
8.803

@<SCITEGIC>MOL_PROPERTY
Coulomb
SciTegic.value.DoubleValue
1.020

@<SCITEGIC>MOL_PROPERTY
VdW
SciTegic.value.DoubleValue
1.048

@<SCITEGIC>MOL_PROPERTY
VdW6
SciTegic.value.DoubleValue
-8.312

@<SCITEGIC>MOL_PROPERTY
VdW12
SciTegic.value.DoubleValue
9.360

@<SCITEGIC>MOL_PROPERTY
Bond
SciTegic.value.DoubleValue
0.212

@<SCITEGIC>MOL_PROPERTY
Angle
SciTegic.value.DoubleValue
3.379

@<SCITEGIC>MOL_PROPERTY
Pdih
SciTegic.value.DoubleValue
5.211

@<SCITEGIC>MOL_PROPERTY
Idih
SciTegic.value.DoubleValue
0.001

@<SCITEGIC>MOL_PROPERTY
Tether
SciTegic.value.DoubleValue
0.000

@<TRIPOS>MOLECULE
guest-s22_confgen4.mol2 : confsearch ligand conformer 694
          20          19           1
SMALL
USER_CHARGES
 
@<TRIPOS>ATOM
       1    C1      19.452906   16.117800   22.521323 C.2        1 MOL1        -0.2535
       2    H1      19.940388   16.425877   23.443683 H          1 MOL1         0.0845
       3    H2      19.637615   15.100571   22.180661 H          1 MOL1         0.0845
       4    C2      18.654854   16.938151   21.829374 C.2        1 MOL1        -0.1324
       5    H3      18.188481   16.578464   20.912628 H          1 MOL1         0.0833
       6    C3      18.315405   18.376745   22.183087 C.3        1 MOL1        -0.1813
       7    H4      17.337359   18.395102   22.681576 H          1 MOL1         0.0753
       8    H5      18.167323   18.946766   21.256951 H          1 MOL1         0.0753
       9    C4      19.351767   19.119622   23.066184 C.3        1 MOL1        -0.1855
      10    H6      18.954973   20.115038   23.308136 H          1 MOL1         0.0755
      11    H7      19.450502   18.600206   24.028360 H          1 MOL1         0.0755
      12    C5      20.755001   19.281764   22.424702 C.3        1 MOL1        -0.1855
      13    H8      21.195227   18.292698   22.244412 H          1 MOL1         0.0755
      14    H9      21.415569   19.782003   23.146109 H          1 MOL1         0.0755
      15    C6      20.767418   20.088207   21.097368 C.3        1 MOL1        -0.1958
      16    H10     21.794265   20.146307   20.718193 H          1 MOL1         0.0753
      17    H11     20.182185   19.572712   20.327453 H          1 MOL1         0.0753
      18    C7      20.250781   21.517807   21.230613 C.2        1 MOL1         0.6174
      19    O1      19.169133   21.787375   20.746330 O.co2      1 MOL1        -0.6695
      20    O2      20.953415   22.329574   21.800568 O.co2      1 MOL1        -0.6695
@<TRIPOS>BOND
    1     1     2    1
    2     1     3    1
    3     1     4    2
    4     4     5    1
    5     4     6    1
    6     6     7    1
    7     6     8    1
    8     6     9    1
    9     9    10    1
   10     9    11    1
   11     9    12    1
   12    12    13    1
   13    12    14    1
   14    12    15    1
   15    15    16    1
   16    15    17    1
   17    15    18    1
   18    18    19    1
   19    18    20    2
@<TRIPOS>SUBSTRUCTURE
       1 MOL1            1 RESIDUE      1      MOL     
@<SCITEGIC>MOL_PROPERTY
VConf Rank
SciTegic.value.IntegerValue
694

@<SCITEGIC>MOL_PROPERTY
Conf_Id
SciTegic.value.IntegerValue
66

@<SCITEGIC>MOL_PROPERTY
Delta U+W
SciTegic.value.DoubleValue
1.737

@<SCITEGIC>MOL_PROPERTY
U+W
SciTegic.value.DoubleValue
-50.008

@<SCITEGIC>MOL_PROPERTY
Grad RMS
SciTegic.value.DoubleValue
0.000000

@<SCITEGIC>MOL_PROPERTY
U
SciTegic.value.DoubleValue
11.091

@<SCITEGIC>MOL_PROPERTY
W
SciTegic.value.DoubleValue
-61.099

@<SCITEGIC>MOL_PROPERTY
W(PB)
SciTegic.value.DoubleValue
-63.213

@<SCITEGIC>MOL_PROPERTY
W(SA)
SciTegic.value.DoubleValue
2.114

@<SCITEGIC>MOL_PROPERTY
Valence
SciTegic.value.DoubleValue
9.664

@<SCITEGIC>MOL_PROPERTY
Coulomb
SciTegic.value.DoubleValue
0.658

@<SCITEGIC>MOL_PROPERTY
VdW
SciTegic.value.DoubleValue
0.769

@<SCITEGIC>MOL_PROPERTY
VdW6
SciTegic.value.DoubleValue
-9.171

@<SCITEGIC>MOL_PROPERTY
VdW12
SciTegic.value.DoubleValue
9.940

@<SCITEGIC>MOL_PROPERTY
Bond
SciTegic.value.DoubleValue
0.244

@<SCITEGIC>MOL_PROPERTY
Angle
SciTegic.value.DoubleValue
3.658

@<SCITEGIC>MOL_PROPERTY
Pdih
SciTegic.value.DoubleValue
5.762

@<SCITEGIC>MOL_PROPERTY
Idih
SciTegic.value.DoubleValue
0.001

@<SCITEGIC>MOL_PROPERTY
Tether
SciTegic.value.DoubleValue
0.000

@<TRIPOS>MOLECULE
guest-s22_confgen4.mol2 : confsearch ligand conformer 695
          20          19           1
SMALL
USER_CHARGES
 
@<TRIPOS>ATOM
       1    C1      20.402203   17.041585   20.355176 C.2        1 MOL1        -0.2535
       2    H1      19.607969   16.556697   20.918434 H          1 MOL1         0.0845
       3    H2      20.527011   16.738610   19.317118 H          1 MOL1         0.0845
       4    C2      21.201278   17.965472   20.899963 C.2        1 MOL1        -0.1324
       5    H3      21.983086   18.417494   20.290216 H          1 MOL1         0.0833
       6    C3      21.139665   18.487202   22.326358 C.3        1 MOL1        -0.1813
       7    H4      21.419607   19.547992   22.328859 H          1 MOL1         0.0753
       8    H5      21.921533   17.989607   22.915141 H          1 MOL1         0.0753
       9    C4      19.777264   18.324241   23.049977 C.3        1 MOL1        -0.1855
      10    H6      19.517774   17.258711   23.102939 H          1 MOL1         0.0755
      11    H7      19.890848   18.653273   24.091833 H          1 MOL1         0.0755
      12    C5      18.604407   19.107742   22.407145 C.3        1 MOL1        -0.1855
      13    H8      17.679418   18.854933   22.943486 H          1 MOL1         0.0755
      14    H9      18.455312   18.783953   21.368622 H          1 MOL1         0.0755
      15    C6      18.794000   20.646491   22.442157 C.3        1 MOL1        -0.1958
      16    H10     18.994513   20.980709   23.466971 H          1 MOL1         0.0753
      17    H11     19.652008   20.942358   21.828050 H          1 MOL1         0.0753
      18    C7      17.573490   21.402749   21.929638 C.2        1 MOL1         0.6174
      19    O1      17.525167   21.683592   20.748307 O.co2      1 MOL1        -0.6695
      20    O2      16.695543   21.678969   22.723266 O.co2      1 MOL1        -0.6695
@<TRIPOS>BOND
    1     1     2    1
    2     1     3    1
    3     1     4    2
    4     4     5    1
    5     4     6    1
    6     6     7    1
    7     6     8    1
    8     6     9    1
    9     9    10    1
   10     9    11    1
   11     9    12    1
   12    12    13    1
   13    12    14    1
   14    12    15    1
   15    15    16    1
   16    15    17    1
   17    15    18    1
   18    18    19    1
   19    18    20    2
@<TRIPOS>SUBSTRUCTURE
       1 MOL1            1 RESIDUE      1      MOL     
@<SCITEGIC>MOL_PROPERTY
VConf Rank
SciTegic.value.IntegerValue
695

@<SCITEGIC>MOL_PROPERTY
Conf_Id
SciTegic.value.IntegerValue
64

@<SCITEGIC>MOL_PROPERTY
Delta U+W
SciTegic.value.DoubleValue
0.366

@<SCITEGIC>MOL_PROPERTY
U+W
SciTegic.value.DoubleValue
-51.379

@<SCITEGIC>MOL_PROPERTY
Grad RMS
SciTegic.value.DoubleValue
0.000000

@<SCITEGIC>MOL_PROPERTY
U
SciTegic.value.DoubleValue
10.000

@<SCITEGIC>MOL_PROPERTY
W
SciTegic.value.DoubleValue
-61.379

@<SCITEGIC>MOL_PROPERTY
W(PB)
SciTegic.value.DoubleValue
-63.541

@<SCITEGIC>MOL_PROPERTY
W(SA)
SciTegic.value.DoubleValue
2.162

@<SCITEGIC>MOL_PROPERTY
Valence
SciTegic.value.DoubleValue
9.398

@<SCITEGIC>MOL_PROPERTY
Coulomb
SciTegic.value.DoubleValue
-0.504

@<SCITEGIC>MOL_PROPERTY
VdW
SciTegic.value.DoubleValue
1.105

@<SCITEGIC>MOL_PROPERTY
VdW6
SciTegic.value.DoubleValue
-7.975

@<SCITEGIC>MOL_PROPERTY
VdW12
SciTegic.value.DoubleValue
9.080

@<SCITEGIC>MOL_PROPERTY
Bond
SciTegic.value.DoubleValue
0.216

@<SCITEGIC>MOL_PROPERTY
Angle
SciTegic.value.DoubleValue
3.417

@<SCITEGIC>MOL_PROPERTY
Pdih
SciTegic.value.DoubleValue
5.765

@<SCITEGIC>MOL_PROPERTY
Idih
SciTegic.value.DoubleValue
0.001

@<SCITEGIC>MOL_PROPERTY
Tether
SciTegic.value.DoubleValue
0.000

@<TRIPOS>MOLECULE
guest-s22_confgen4.mol2 : confsearch ligand conformer 696
          20          19           1
SMALL
USER_CHARGES
 
@<TRIPOS>ATOM
       1    C1      18.089062   20.211376   19.932529 C.2        1 MOL1        -0.2535
       2    H1      18.216000   19.282178   19.379452 H          1 MOL1         0.0845
       3    H2      18.062433   21.136318   19.359050 H          1 MOL1         0.0845
       4    C2      17.974222   20.220687   21.263220 C.2        1 MOL1        -0.1324
       5    H3      17.850356   21.161996   21.797996 H          1 MOL1         0.0833
       6    C3      18.002725   18.977654   22.126954 C.3        1 MOL1        -0.1813
       7    H4      17.924523   18.074185   21.507033 H          1 MOL1         0.0753
       8    H5      17.124011   18.978230   22.785517 H          1 MOL1         0.0753
       9    C4      19.277498   18.897747   22.996730 C.3        1 MOL1        -0.1855
      10    H6      19.355970   19.801721   23.616211 H          1 MOL1         0.0755
      11    H7      19.182281   18.049621   23.688466 H          1 MOL1         0.0755
      12    C5      20.563260   18.725738   22.156009 C.3        1 MOL1        -0.1855
      13    H8      20.684272   19.581927   21.478126 H          1 MOL1         0.0755
      14    H9      20.475606   17.830703   21.524726 H          1 MOL1         0.0755
      15    C6      21.822963   18.602143   23.048138 C.3        1 MOL1        -0.1958
      16    H10     21.930990   19.494841   23.675839 H          1 MOL1         0.0753
      17    H11     21.727790   17.741657   23.721184 H          1 MOL1         0.0753
      18    C7      23.105187   18.431835   22.241298 C.2        1 MOL1         0.6174
      19    O1      23.447252   17.305588   21.939128 O.co2      1 MOL1        -0.6695
      20    O2      23.720727   19.430469   21.924227 O.co2      1 MOL1        -0.6695
@<TRIPOS>BOND
    1     1     2    1
    2     1     3    1
    3     1     4    2
    4     4     5    1
    5     4     6    1
    6     6     7    1
    7     6     8    1
    8     6     9    1
    9     9    10    1
   10     9    11    1
   11     9    12    1
   12    12    13    1
   13    12    14    1
   14    12    15    1
   15    15    16    1
   16    15    17    1
   17    15    18    1
   18    18    19    1
   19    18    20    2
@<TRIPOS>SUBSTRUCTURE
       1 MOL1            1 RESIDUE      1      MOL     
@<SCITEGIC>MOL_PROPERTY
VConf Rank
SciTegic.value.IntegerValue
696

@<SCITEGIC>MOL_PROPERTY
Conf_Id
SciTegic.value.IntegerValue
42

@<SCITEGIC>MOL_PROPERTY
Delta U+W
SciTegic.value.DoubleValue
-0.601

@<SCITEGIC>MOL_PROPERTY
U+W
SciTegic.value.DoubleValue
-52.347

@<SCITEGIC>MOL_PROPERTY
Grad RMS
SciTegic.value.DoubleValue
0.000000

@<SCITEGIC>MOL_PROPERTY
U
SciTegic.value.DoubleValue
8.428

@<SCITEGIC>MOL_PROPERTY
W
SciTegic.value.DoubleValue
-60.774

@<SCITEGIC>MOL_PROPERTY
W(PB)
SciTegic.value.DoubleValue
-62.982

@<SCITEGIC>MOL_PROPERTY
W(SA)
SciTegic.value.DoubleValue
2.208

@<SCITEGIC>MOL_PROPERTY
Valence
SciTegic.value.DoubleValue
9.231

@<SCITEGIC>MOL_PROPERTY
Coulomb
SciTegic.value.DoubleValue
-1.304

@<SCITEGIC>MOL_PROPERTY
VdW
SciTegic.value.DoubleValue
0.501

@<SCITEGIC>MOL_PROPERTY
VdW6
SciTegic.value.DoubleValue
-6.515

@<SCITEGIC>MOL_PROPERTY
VdW12
SciTegic.value.DoubleValue
7.016

@<SCITEGIC>MOL_PROPERTY
Bond
SciTegic.value.DoubleValue
0.103

@<SCITEGIC>MOL_PROPERTY
Angle
SciTegic.value.DoubleValue
2.328

@<SCITEGIC>MOL_PROPERTY
Pdih
SciTegic.value.DoubleValue
6.799

@<SCITEGIC>MOL_PROPERTY
Idih
SciTegic.value.DoubleValue
0.000

@<SCITEGIC>MOL_PROPERTY
Tether
SciTegic.value.DoubleValue
0.000

@<TRIPOS>MOLECULE
guest-s22_confgen4.mol2 : confsearch ligand conformer 697
          20          19           1
SMALL
USER_CHARGES
 
@<TRIPOS>ATOM
       1    C1      17.899207   17.869447   24.088118 C.2        1 MOL1        -0.2535
       2    H1      17.753836   18.769683   24.682960 H          1 MOL1         0.0845
       3    H2      17.987521   16.924825   24.621959 H          1 MOL1         0.0845
       4    C2      17.970994   17.918350   22.755271 C.2        1 MOL1        -0.1324
       5    H3      18.119791   17.005829   22.178582 H          1 MOL1         0.0833
       6    C3      17.858690   19.192056   21.944737 C.3        1 MOL1        -0.1813
       7    H4      17.518119   20.023697   22.576397 H          1 MOL1         0.0753
       8    H5      17.092437   19.057846   21.169719 H          1 MOL1         0.0753
       9    C4      19.193210   19.572848   21.265022 C.3        1 MOL1        -0.1855
      10    H6      19.528516   18.742337   20.628500 H          1 MOL1         0.0755
      11    H7      19.020906   20.428394   20.597869 H          1 MOL1         0.0755
      12    C5      20.299136   19.937005   22.283642 C.3        1 MOL1        -0.1855
      13    H8      20.511482   19.075156   22.931314 H          1 MOL1         0.0755
      14    H9      19.937404   20.741350   22.938174 H          1 MOL1         0.0755
      15    C6      21.612433   20.396229   21.598670 C.3        1 MOL1        -0.1958
      16    H10     21.415316   21.242060   20.929012 H          1 MOL1         0.0753
      17    H11     22.317494   20.751288   22.359467 H          1 MOL1         0.0753
      18    C7      22.312890   19.298463   20.803007 C.2        1 MOL1         0.6174
      19    O1      22.215218   19.313675   19.591646 O.co2      1 MOL1        -0.6695
      20    O2      22.953371   18.467016   21.415848 O.co2      1 MOL1        -0.6695
@<TRIPOS>BOND
    1     1     2    1
    2     1     3    1
    3     1     4    2
    4     4     5    1
    5     4     6    1
    6     6     7    1
    7     6     8    1
    8     6     9    1
    9     9    10    1
   10     9    11    1
   11     9    12    1
   12    12    13    1
   13    12    14    1
   14    12    15    1
   15    15    16    1
   16    15    17    1
   17    15    18    1
   18    18    19    1
   19    18    20    2
@<TRIPOS>SUBSTRUCTURE
       1 MOL1            1 RESIDUE      1      MOL     
@<SCITEGIC>MOL_PROPERTY
VConf Rank
SciTegic.value.IntegerValue
697

@<SCITEGIC>MOL_PROPERTY
Conf_Id
SciTegic.value.IntegerValue
68

@<SCITEGIC>MOL_PROPERTY
Delta U+W
SciTegic.value.DoubleValue
0.492

@<SCITEGIC>MOL_PROPERTY
U+W
SciTegic.value.DoubleValue
-51.253

@<SCITEGIC>MOL_PROPERTY
Grad RMS
SciTegic.value.DoubleValue
0.000000

@<SCITEGIC>MOL_PROPERTY
U
SciTegic.value.DoubleValue
10.179

@<SCITEGIC>MOL_PROPERTY
W
SciTegic.value.DoubleValue
-61.432

@<SCITEGIC>MOL_PROPERTY
W(PB)
SciTegic.value.DoubleValue
-63.627

@<SCITEGIC>MOL_PROPERTY
W(SA)
SciTegic.value.DoubleValue
2.195

@<SCITEGIC>MOL_PROPERTY
Valence
SciTegic.value.DoubleValue
9.483

@<SCITEGIC>MOL_PROPERTY
Coulomb
SciTegic.value.DoubleValue
0.361

@<SCITEGIC>MOL_PROPERTY
VdW
SciTegic.value.DoubleValue
0.335

@<SCITEGIC>MOL_PROPERTY
VdW6
SciTegic.value.DoubleValue
-7.385

@<SCITEGIC>MOL_PROPERTY
VdW12
SciTegic.value.DoubleValue
7.720

@<SCITEGIC>MOL_PROPERTY
Bond
SciTegic.value.DoubleValue
0.125

@<SCITEGIC>MOL_PROPERTY
Angle
SciTegic.value.DoubleValue
2.487

@<SCITEGIC>MOL_PROPERTY
Pdih
SciTegic.value.DoubleValue
6.870

@<SCITEGIC>MOL_PROPERTY
Idih
SciTegic.value.DoubleValue
0.001

@<SCITEGIC>MOL_PROPERTY
Tether
SciTegic.value.DoubleValue
0.000

@<TRIPOS>MOLECULE
guest-s22_confgen4.mol2 : confsearch ligand conformer 698
          20          19           1
SMALL
USER_CHARGES
 
@<TRIPOS>ATOM
       1    C1      16.600956   18.597362   22.742418 C.2        1 MOL1        -0.2535
       2    H1      16.327245   17.910649   21.943045 H          1 MOL1         0.0845
       3    H2      15.822357   19.253229   23.128164 H          1 MOL1         0.0845
       4    C2      17.843198   18.639142   23.231074 C.2        1 MOL1        -0.1324
       5    H3      18.095030   19.332290   24.033179 H          1 MOL1         0.0833
       6    C3      18.973737   17.755181   22.749123 C.3        1 MOL1        -0.1813
       7    H4      18.563538   16.885502   22.218167 H          1 MOL1         0.0753
       8    H5      19.529286   17.356556   23.608460 H          1 MOL1         0.0753
       9    C4      19.941317   18.501478   21.803073 C.3        1 MOL1        -0.1855
      10    H6      20.657463   17.779597   21.387418 H          1 MOL1         0.0755
      11    H7      19.376631   18.907177   20.952111 H          1 MOL1         0.0755
      12    C5      20.718155   19.636975   22.510816 C.3        1 MOL1        -0.1855
      13    H8      21.238271   19.228424   23.387671 H          1 MOL1         0.0755
      14    H9      20.017706   20.396838   22.883368 H          1 MOL1         0.0755
      15    C6      21.756777   20.316378   21.581015 C.3        1 MOL1        -0.1958
      16    H10     22.356142   21.028708   22.160111 H          1 MOL1         0.0753
      17    H11     22.452100   19.569526   21.179142 H          1 MOL1         0.0753
      18    C7      21.137501   21.081926   20.415137 C.2        1 MOL1         0.6174
      19    O1      20.654324   22.174218   20.639956 O.co2      1 MOL1        -0.6695
      20    O2      21.171738   20.575636   19.310772 O.co2      1 MOL1        -0.6695
@<TRIPOS>BOND
    1     1     2    1
    2     1     3    1
    3     1     4    2
    4     4     5    1
    5     4     6    1
    6     6     7    1
    7     6     8    1
    8     6     9    1
    9     9    10    1
   10     9    11    1
   11     9    12    1
   12    12    13    1
   13    12    14    1
   14    12    15    1
   15    15    16    1
   16    15    17    1
   17    15    18    1
   18    18    19    1
   19    18    20    2
@<TRIPOS>SUBSTRUCTURE
       1 MOL1            1 RESIDUE      1      MOL     
@<SCITEGIC>MOL_PROPERTY
VConf Rank
SciTegic.value.IntegerValue
698

@<SCITEGIC>MOL_PROPERTY
Conf_Id
SciTegic.value.IntegerValue
87

@<SCITEGIC>MOL_PROPERTY
Delta U+W
SciTegic.value.DoubleValue
0.339

@<SCITEGIC>MOL_PROPERTY
U+W
SciTegic.value.DoubleValue
-51.407

@<SCITEGIC>MOL_PROPERTY
Grad RMS
SciTegic.value.DoubleValue
0.000000

@<SCITEGIC>MOL_PROPERTY
U
SciTegic.value.DoubleValue
10.461

@<SCITEGIC>MOL_PROPERTY
W
SciTegic.value.DoubleValue
-61.867

@<SCITEGIC>MOL_PROPERTY
W(PB)
SciTegic.value.DoubleValue
-64.045

@<SCITEGIC>MOL_PROPERTY
W(SA)
SciTegic.value.DoubleValue
2.178

@<SCITEGIC>MOL_PROPERTY
Valence
SciTegic.value.DoubleValue
9.555

@<SCITEGIC>MOL_PROPERTY
Coulomb
SciTegic.value.DoubleValue
0.483

@<SCITEGIC>MOL_PROPERTY
VdW
SciTegic.value.DoubleValue
0.423

@<SCITEGIC>MOL_PROPERTY
VdW6
SciTegic.value.DoubleValue
-7.223

@<SCITEGIC>MOL_PROPERTY
VdW12
SciTegic.value.DoubleValue
7.646

@<SCITEGIC>MOL_PROPERTY
Bond
SciTegic.value.DoubleValue
0.126

@<SCITEGIC>MOL_PROPERTY
Angle
SciTegic.value.DoubleValue
2.492

@<SCITEGIC>MOL_PROPERTY
Pdih
SciTegic.value.DoubleValue
6.936

@<SCITEGIC>MOL_PROPERTY
Idih
SciTegic.value.DoubleValue
0.001

@<SCITEGIC>MOL_PROPERTY
Tether
SciTegic.value.DoubleValue
0.000

@<TRIPOS>MOLECULE
guest-s22_confgen4.mol2 : confsearch ligand conformer 699
          20          19           1
SMALL
USER_CHARGES
 
@<TRIPOS>ATOM
       1    C1      21.346019   17.518496   23.670188 C.2        1 MOL1        -0.2535
       2    H1      22.009842   18.300448   24.035298 H          1 MOL1         0.0845
       3    H2      21.082646   16.719969   24.361570 H          1 MOL1         0.0845
       4    C2      20.869751   17.537452   22.422581 C.2        1 MOL1        -0.1324
       5    H3      20.213857   16.741062   22.072787 H          1 MOL1         0.0833
       6    C3      21.203905   18.608025   21.405811 C.3        1 MOL1        -0.1813
       7    H4      20.998105   18.245367   20.389907 H          1 MOL1         0.0753
       8    H5      22.285474   18.796030   21.441454 H          1 MOL1         0.0753
       9    C4      20.464899   19.947097   21.650603 C.3        1 MOL1        -0.1855
      10    H6      20.514870   20.214717   22.714942 H          1 MOL1         0.0755
      11    H7      21.011095   20.736086   21.115905 H          1 MOL1         0.0755
      12    C5      18.994744   19.979805   21.162060 C.3        1 MOL1        -0.1855
      13    H8      18.947278   19.698212   20.101168 H          1 MOL1         0.0755
      14    H9      18.635229   21.016507   21.221115 H          1 MOL1         0.0755
      15    C6      18.031372   19.082244   21.980327 C.3        1 MOL1        -0.1958
      16    H10     18.267146   18.024462   21.826748 H          1 MOL1         0.0753
      17    H11     18.137526   19.289298   23.051860 H          1 MOL1         0.0753
      18    C7      16.569328   19.286178   21.600237 C.2        1 MOL1         0.6174
      19    O1      16.112130   18.615121   20.696057 O.co2      1 MOL1        -0.6695
      20    O2      15.931139   20.125734   22.204177 O.co2      1 MOL1        -0.6695
@<TRIPOS>BOND
    1     1     2    1
    2     1     3    1
    3     1     4    2
    4     4     5    1
    5     4     6    1
    6     6     7    1
    7     6     8    1
    8     6     9    1
    9     9    10    1
   10     9    11    1
   11     9    12    1
   12    12    13    1
   13    12    14    1
   14    12    15    1
   15    15    16    1
   16    15    17    1
   17    15    18    1
   18    18    19    1
   19    18    20    2
@<TRIPOS>SUBSTRUCTURE
       1 MOL1            1 RESIDUE      1      MOL     
@<SCITEGIC>MOL_PROPERTY
VConf Rank
SciTegic.value.IntegerValue
699

@<SCITEGIC>MOL_PROPERTY
Conf_Id
SciTegic.value.IntegerValue
51

@<SCITEGIC>MOL_PROPERTY
Delta U+W
SciTegic.value.DoubleValue
1.709

@<SCITEGIC>MOL_PROPERTY
U+W
SciTegic.value.DoubleValue
-50.036

@<SCITEGIC>MOL_PROPERTY
Grad RMS
SciTegic.value.DoubleValue
0.000000

@<SCITEGIC>MOL_PROPERTY
U
SciTegic.value.DoubleValue
10.643

@<SCITEGIC>MOL_PROPERTY
W
SciTegic.value.DoubleValue
-60.679

@<SCITEGIC>MOL_PROPERTY
W(PB)
SciTegic.value.DoubleValue
-62.882

@<SCITEGIC>MOL_PROPERTY
W(SA)
SciTegic.value.DoubleValue
2.203

@<SCITEGIC>MOL_PROPERTY
Valence
SciTegic.value.DoubleValue
11.231

@<SCITEGIC>MOL_PROPERTY
Coulomb
SciTegic.value.DoubleValue
-1.077

@<SCITEGIC>MOL_PROPERTY
VdW
SciTegic.value.DoubleValue
0.489

@<SCITEGIC>MOL_PROPERTY
VdW6
SciTegic.value.DoubleValue
-7.546

@<SCITEGIC>MOL_PROPERTY
VdW12
SciTegic.value.DoubleValue
8.035

@<SCITEGIC>MOL_PROPERTY
Bond
SciTegic.value.DoubleValue
0.159

@<SCITEGIC>MOL_PROPERTY
Angle
SciTegic.value.DoubleValue
3.005

@<SCITEGIC>MOL_PROPERTY
Pdih
SciTegic.value.DoubleValue
8.065

@<SCITEGIC>MOL_PROPERTY
Idih
SciTegic.value.DoubleValue
0.002

@<SCITEGIC>MOL_PROPERTY
Tether
SciTegic.value.DoubleValue
0.000

@<TRIPOS>MOLECULE
guest-s22_confgen4.mol2 : confsearch ligand conformer 700
          20          19           1
SMALL
USER_CHARGES
 
@<TRIPOS>ATOM
       1    C1      22.333744   18.669448   22.602899 C.2        1 MOL1        -0.2535
       2    H1      22.808967   18.595597   21.626106 H          1 MOL1         0.0845
       3    H2      22.719047   18.033814   23.398218 H          1 MOL1         0.0845
       4    C2      21.314855   19.505484   22.818818 C.2        1 MOL1        -0.1324
       5    H3      20.858205   19.571677   23.805673 H          1 MOL1         0.0833
       6    C3      20.737614   20.425583   21.764392 C.3        1 MOL1        -0.1813
       7    H4      21.568022   20.910556   21.233704 H          1 MOL1         0.0753
       8    H5      20.171468   21.238793   22.237787 H          1 MOL1         0.0753
       9    C4      19.850055   19.696854   20.724986 C.3        1 MOL1        -0.1855
      10    H6      19.774004   20.339410   19.837251 H          1 MOL1         0.0755
      11    H7      20.345002   18.775664   20.388286 H          1 MOL1         0.0755
      12    C5      18.409700   19.383099   21.202521 C.3        1 MOL1        -0.1855
      13    H8      17.827717   19.036989   20.337078 H          1 MOL1         0.0755
      14    H9      17.922887   20.304092   21.551556 H          1 MOL1         0.0755
      15    C6      18.327094   18.301289   22.309830 C.3        1 MOL1        -0.1958
      16    H10     18.889839   17.408755   22.011460 H          1 MOL1         0.0753
      17    H11     18.768128   18.669653   23.241430 H          1 MOL1         0.0753
      18    C7      16.894837   17.878779   22.616012 C.2        1 MOL1         0.6174
      19    O1      16.278587   18.504772   23.455808 O.co2      1 MOL1        -0.6695
      20    O2      16.425470   16.947467   21.992125 O.co2      1 MOL1        -0.6695
@<TRIPOS>BOND
    1     1     2    1
    2     1     3    1
    3     1     4    2
    4     4     5    1
    5     4     6    1
    6     6     7    1
    7     6     8    1
    8     6     9    1
    9     9    10    1
   10     9    11    1
   11     9    12    1
   12    12    13    1
   13    12    14    1
   14    12    15    1
   15    15    16    1
   16    15    17    1
   17    15    18    1
   18    18    19    1
   19    18    20    2
@<TRIPOS>SUBSTRUCTURE
       1 MOL1            1 RESIDUE      1      MOL     
@<SCITEGIC>MOL_PROPERTY
VConf Rank
SciTegic.value.IntegerValue
700

@<SCITEGIC>MOL_PROPERTY
Conf_Id
SciTegic.value.IntegerValue
91

@<SCITEGIC>MOL_PROPERTY
Delta U+W
SciTegic.value.DoubleValue
1.604

@<SCITEGIC>MOL_PROPERTY
U+W
SciTegic.value.DoubleValue
-50.141

@<SCITEGIC>MOL_PROPERTY
Grad RMS
SciTegic.value.DoubleValue
0.000000

@<SCITEGIC>MOL_PROPERTY
U
SciTegic.value.DoubleValue
10.644

@<SCITEGIC>MOL_PROPERTY
W
SciTegic.value.DoubleValue
-60.786

@<SCITEGIC>MOL_PROPERTY
W(PB)
SciTegic.value.DoubleValue
-62.965

@<SCITEGIC>MOL_PROPERTY
W(SA)
SciTegic.value.DoubleValue
2.179

@<SCITEGIC>MOL_PROPERTY
Valence
SciTegic.value.DoubleValue
11.230

@<SCITEGIC>MOL_PROPERTY
Coulomb
SciTegic.value.DoubleValue
-1.075

@<SCITEGIC>MOL_PROPERTY
VdW
SciTegic.value.DoubleValue
0.489

@<SCITEGIC>MOL_PROPERTY
VdW6
SciTegic.value.DoubleValue
-7.547

@<SCITEGIC>MOL_PROPERTY
VdW12
SciTegic.value.DoubleValue
8.036

@<SCITEGIC>MOL_PROPERTY
Bond
SciTegic.value.DoubleValue
0.159

@<SCITEGIC>MOL_PROPERTY
Angle
SciTegic.value.DoubleValue
3.006

@<SCITEGIC>MOL_PROPERTY
Pdih
SciTegic.value.DoubleValue
8.064

@<SCITEGIC>MOL_PROPERTY
Idih
SciTegic.value.DoubleValue
0.002

@<SCITEGIC>MOL_PROPERTY
Tether
SciTegic.value.DoubleValue
0.000

@<TRIPOS>MOLECULE
guest-s22_confgen4.mol2 : confsearch ligand conformer 701
          20          19           1
SMALL
USER_CHARGES
 
@<TRIPOS>ATOM
       1    C1      16.123854   19.269732   21.980721 C.2        1 MOL1        -0.2535
       2    H1      16.089597   18.643670   21.090517 H          1 MOL1         0.0845
       3    H2      15.247268   19.876988   22.200074 H          1 MOL1         0.0845
       4    C2      17.198061   19.296632   22.773819 C.2        1 MOL1        -0.1324
       5    H3      17.212283   19.930918   23.659898 H          1 MOL1         0.0833
       6    C3      18.449443   18.481655   22.534031 C.3        1 MOL1        -0.1813
       7    H4      18.254719   17.695058   21.792308 H          1 MOL1         0.0753
       8    H5      18.741242   17.974261   23.463305 H          1 MOL1         0.0753
       9    C4      19.609791   19.373353   22.044809 C.3        1 MOL1        -0.1855
      10    H6      19.311238   19.881698   21.117535 H          1 MOL1         0.0755
      11    H7      19.807195   20.157105   22.789070 H          1 MOL1         0.0755
      12    C5      20.897241   18.556963   21.797635 C.3        1 MOL1        -0.1855
      13    H8      20.700710   17.773147   21.052952 H          1 MOL1         0.0755
      14    H9      21.195645   18.047327   22.724322 H          1 MOL1         0.0755
      15    C6      22.063799   19.454053   21.304918 C.3        1 MOL1        -0.1958
      16    H10     21.775111   19.960896   20.376649 H          1 MOL1         0.0753
      17    H11     22.269704   20.234909   22.046387 H          1 MOL1         0.0753
      18    C7      23.379885   18.723027   21.035034 C.2        1 MOL1         0.6174
      19    O1      24.317125   19.392851   20.648958 O.co2      1 MOL1        -0.6695
      20    O2      23.449162   17.521698   21.210125 O.co2      1 MOL1        -0.6695
@<TRIPOS>BOND
    1     1     2    1
    2     1     3    1
    3     1     4    2
    4     4     5    1
    5     4     6    1
    6     6     7    1
    7     6     8    1
    8     6     9    1
    9     9    10    1
   10     9    11    1
   11     9    12    1
   12    12    13    1
   13    12    14    1
   14    12    15    1
   15    15    16    1
   16    15    17    1
   17    15    18    1
   18    18    19    1
   19    18    20    2
@<TRIPOS>SUBSTRUCTURE
       1 MOL1            1 RESIDUE      1      MOL     
@<SCITEGIC>MOL_PROPERTY
VConf Rank
SciTegic.value.IntegerValue
701

@<SCITEGIC>MOL_PROPERTY
Conf_Id
SciTegic.value.IntegerValue
33

@<SCITEGIC>MOL_PROPERTY
Delta U+W
SciTegic.value.DoubleValue
0.000

@<SCITEGIC>MOL_PROPERTY
U+W
SciTegic.value.DoubleValue
-51.745

@<SCITEGIC>MOL_PROPERTY
Grad RMS
SciTegic.value.DoubleValue
0.000000

@<SCITEGIC>MOL_PROPERTY
U
SciTegic.value.DoubleValue
7.593

@<SCITEGIC>MOL_PROPERTY
W
SciTegic.value.DoubleValue
-59.338

@<SCITEGIC>MOL_PROPERTY
W(PB)
SciTegic.value.DoubleValue
-61.574

@<SCITEGIC>MOL_PROPERTY
W(SA)
SciTegic.value.DoubleValue
2.236

@<SCITEGIC>MOL_PROPERTY
Valence
SciTegic.value.DoubleValue
9.570

@<SCITEGIC>MOL_PROPERTY
Coulomb
SciTegic.value.DoubleValue
-3.091

@<SCITEGIC>MOL_PROPERTY
VdW
SciTegic.value.DoubleValue
1.114

@<SCITEGIC>MOL_PROPERTY
VdW6
SciTegic.value.DoubleValue
-6.064

@<SCITEGIC>MOL_PROPERTY
VdW12
SciTegic.value.DoubleValue
7.178

@<SCITEGIC>MOL_PROPERTY
Bond
SciTegic.value.DoubleValue
0.117

@<SCITEGIC>MOL_PROPERTY
Angle
SciTegic.value.DoubleValue
2.692

@<SCITEGIC>MOL_PROPERTY
Pdih
SciTegic.value.DoubleValue
6.761

@<SCITEGIC>MOL_PROPERTY
Idih
SciTegic.value.DoubleValue
0.000

@<SCITEGIC>MOL_PROPERTY
Tether
SciTegic.value.DoubleValue
0.000

@<TRIPOS>MOLECULE
guest-s22_confgen4.mol2 : confsearch ligand conformer 702
          20          19           1
SMALL
USER_CHARGES
 
@<TRIPOS>ATOM
       1    C1      19.371306   17.284246   25.053895 C.2        1 MOL1        -0.2535
       2    H1      19.103649   18.224633   25.533074 H          1 MOL1         0.0845
       3    H2      19.566571   16.430359   25.700430 H          1 MOL1         0.0845
       4    C2      19.460180   17.178653   23.725503 C.2        1 MOL1        -0.1324
       5    H3      19.730454   16.228285   23.265740 H          1 MOL1         0.0833
       6    C3      19.203092   18.318616   22.765235 C.3        1 MOL1        -0.1813
       7    H4      18.696270   19.144201   23.283056 H          1 MOL1         0.0753
       8    H5      18.524688   17.976263   21.973646 H          1 MOL1         0.0753
       9    C4      20.523166   18.831944   22.147411 C.3        1 MOL1        -0.1855
      10    H6      21.217121   19.088912   22.959651 H          1 MOL1         0.0755
      11    H7      21.001319   18.025562   21.574600 H          1 MOL1         0.0755
      12    C5      20.339608   20.074455   21.243723 C.3        1 MOL1        -0.1855
      13    H8      21.330921   20.438934   20.940493 H          1 MOL1         0.0755
      14    H9      19.873544   20.886419   21.818955 H          1 MOL1         0.0755
      15    C6      19.500808   19.794726   19.969697 C.3        1 MOL1        -0.1958
      16    H10     19.932319   18.957232   19.408640 H          1 MOL1         0.0753
      17    H11     18.475316   19.514764   20.235647 H          1 MOL1         0.0753
      18    C7      19.425406   20.998991   19.038016 C.2        1 MOL1         0.6174
      19    O1      18.525928   21.798716   19.205607 O.co2      1 MOL1        -0.6695
      20    O2      20.279699   21.116137   18.181747 O.co2      1 MOL1        -0.6695
@<TRIPOS>BOND
    1     1     2    1
    2     1     3    1
    3     1     4    2
    4     4     5    1
    5     4     6    1
    6     6     7    1
    7     6     8    1
    8     6     9    1
    9     9    10    1
   10     9    11    1
   11     9    12    1
   12    12    13    1
   13    12    14    1
   14    12    15    1
   15    15    16    1
   16    15    17    1
   17    15    18    1
   18    18    19    1
   19    18    20    2
@<TRIPOS>SUBSTRUCTURE
       1 MOL1            1 RESIDUE      1      MOL     
@<SCITEGIC>MOL_PROPERTY
VConf Rank
SciTegic.value.IntegerValue
702

@<SCITEGIC>MOL_PROPERTY
Conf_Id
SciTegic.value.IntegerValue
37

@<SCITEGIC>MOL_PROPERTY
Delta U+W
SciTegic.value.DoubleValue
-0.384

@<SCITEGIC>MOL_PROPERTY
U+W
SciTegic.value.DoubleValue
-52.130

@<SCITEGIC>MOL_PROPERTY
Grad RMS
SciTegic.value.DoubleValue
0.000000

@<SCITEGIC>MOL_PROPERTY
U
SciTegic.value.DoubleValue
7.491

@<SCITEGIC>MOL_PROPERTY
W
SciTegic.value.DoubleValue
-59.621

@<SCITEGIC>MOL_PROPERTY
W(PB)
SciTegic.value.DoubleValue
-61.853

@<SCITEGIC>MOL_PROPERTY
W(SA)
SciTegic.value.DoubleValue
2.232

@<SCITEGIC>MOL_PROPERTY
Valence
SciTegic.value.DoubleValue
9.604

@<SCITEGIC>MOL_PROPERTY
Coulomb
SciTegic.value.DoubleValue
-2.799

@<SCITEGIC>MOL_PROPERTY
VdW
SciTegic.value.DoubleValue
0.686

@<SCITEGIC>MOL_PROPERTY
VdW6
SciTegic.value.DoubleValue
-6.435

@<SCITEGIC>MOL_PROPERTY
VdW12
SciTegic.value.DoubleValue
7.121

@<SCITEGIC>MOL_PROPERTY
Bond
SciTegic.value.DoubleValue
0.124

@<SCITEGIC>MOL_PROPERTY
Angle
SciTegic.value.DoubleValue
2.493

@<SCITEGIC>MOL_PROPERTY
Pdih
SciTegic.value.DoubleValue
6.986

@<SCITEGIC>MOL_PROPERTY
Idih
SciTegic.value.DoubleValue
0.001

@<SCITEGIC>MOL_PROPERTY
Tether
SciTegic.value.DoubleValue
0.000

@<TRIPOS>MOLECULE
guest-s22_confgen4.mol2 : confsearch ligand conformer 703
          20          19           1
SMALL
USER_CHARGES
 
@<TRIPOS>ATOM
       1    C1      18.812264   18.146538   18.816603 C.2        1 MOL1        -0.2535
       2    H1      18.512042   17.856745   17.811079 H          1 MOL1         0.0845
       3    H2      18.078452   18.686013   19.411611 H          1 MOL1         0.0845
       4    C2      20.030453   17.844140   19.279726 C.2        1 MOL1        -0.1324
       5    H3      20.722497   17.301702   18.635937 H          1 MOL1         0.0833
       6    C3      20.589649   18.179542   20.652249 C.3        1 MOL1        -0.1813
       7    H4      21.510025   18.765035   20.524804 H          1 MOL1         0.0753
       8    H5      20.897491   17.247659   21.145161 H          1 MOL1         0.0753
       9    C4      19.623295   18.949836   21.582190 C.3        1 MOL1        -0.1855
      10    H6      19.327693   19.893587   21.103608 H          1 MOL1         0.0755
      11    H7      18.708501   18.359759   21.730675 H          1 MOL1         0.0755
      12    C5      20.266805   19.250672   22.953472 C.3        1 MOL1        -0.1855
      13    H8      21.182842   19.840922   22.811743 H          1 MOL1         0.0755
      14    H9      20.564919   18.310230   23.437518 H          1 MOL1         0.0755
      15    C6      19.301093   20.021966   23.886527 C.3        1 MOL1        -0.1958
      16    H10     19.004016   20.970637   23.423526 H          1 MOL1         0.0753
      17    H11     18.386025   19.439919   24.049234 H          1 MOL1         0.0753
      18    C7      19.913971   20.330948   25.247739 C.2        1 MOL1         0.6174
      19    O1      20.528198   21.371416   25.377349 O.co2      1 MOL1        -0.6695
      20    O2      19.777830   19.513874   26.136842 O.co2      1 MOL1        -0.6695
@<TRIPOS>BOND
    1     1     2    1
    2     1     3    1
    3     1     4    2
    4     4     5    1
    5     4     6    1
    6     6     7    1
    7     6     8    1
    8     6     9    1
    9     9    10    1
   10     9    11    1
   11     9    12    1
   12    12    13    1
   13    12    14    1
   14    12    15    1
   15    15    16    1
   16    15    17    1
   17    15    18    1
   18    18    19    1
   19    18    20    2
@<TRIPOS>SUBSTRUCTURE
       1 MOL1            1 RESIDUE      1      MOL     
@<SCITEGIC>MOL_PROPERTY
VConf Rank
SciTegic.value.IntegerValue
703

@<SCITEGIC>MOL_PROPERTY
Conf_Id
SciTegic.value.IntegerValue
44

@<SCITEGIC>MOL_PROPERTY
Delta U+W
SciTegic.value.DoubleValue
-1.440

@<SCITEGIC>MOL_PROPERTY
U+W
SciTegic.value.DoubleValue
-53.185

@<SCITEGIC>MOL_PROPERTY
Grad RMS
SciTegic.value.DoubleValue
0.000000

@<SCITEGIC>MOL_PROPERTY
U
SciTegic.value.DoubleValue
6.572

@<SCITEGIC>MOL_PROPERTY
W
SciTegic.value.DoubleValue
-59.757

@<SCITEGIC>MOL_PROPERTY
W(PB)
SciTegic.value.DoubleValue
-62.007

@<SCITEGIC>MOL_PROPERTY
W(SA)
SciTegic.value.DoubleValue
2.249

@<SCITEGIC>MOL_PROPERTY
Valence
SciTegic.value.DoubleValue
7.989

@<SCITEGIC>MOL_PROPERTY
Coulomb
SciTegic.value.DoubleValue
-2.697

@<SCITEGIC>MOL_PROPERTY
VdW
SciTegic.value.DoubleValue
1.281

@<SCITEGIC>MOL_PROPERTY
VdW6
SciTegic.value.DoubleValue
-6.467

@<SCITEGIC>MOL_PROPERTY
VdW12
SciTegic.value.DoubleValue
7.748

@<SCITEGIC>MOL_PROPERTY
Bond
SciTegic.value.DoubleValue
0.136

@<SCITEGIC>MOL_PROPERTY
Angle
SciTegic.value.DoubleValue
2.854

@<SCITEGIC>MOL_PROPERTY
Pdih
SciTegic.value.DoubleValue
4.997

@<SCITEGIC>MOL_PROPERTY
Idih
SciTegic.value.DoubleValue
0.001

@<SCITEGIC>MOL_PROPERTY
Tether
SciTegic.value.DoubleValue
0.000

@<TRIPOS>MOLECULE
guest-s22_confgen4.mol2 : confsearch ligand conformer 704
          20          19           1
SMALL
USER_CHARGES
 
@<TRIPOS>ATOM
       1    C1      19.864822   16.224983   23.906652 C.2        1 MOL1        -0.2535
       2    H1      19.905220   16.982199   24.688042 H          1 MOL1         0.0845
       3    H2      20.096859   15.199774   24.190131 H          1 MOL1         0.0845
       4    C2      19.546182   16.537664   22.647916 C.2        1 MOL1        -0.1324
       5    H3      19.512009   15.764526   21.880631 H          1 MOL1         0.0833
       6    C3      19.211084   17.936690   22.180657 C.3        1 MOL1        -0.1813
       7    H4      19.006064   18.579614   23.046229 H          1 MOL1         0.0753
       8    H5      18.292777   17.912134   21.578958 H          1 MOL1         0.0753
       9    C4      20.364215   18.533038   21.342433 C.3        1 MOL1        -0.1855
      10    H6      21.268475   18.607884   21.962034 H          1 MOL1         0.0755
      11    H7      20.605218   17.839455   20.525155 H          1 MOL1         0.0755
      12    C5      20.033744   19.916550   20.733331 C.3        1 MOL1        -0.1855
      13    H8      19.135084   19.841117   20.105564 H          1 MOL1         0.0755
      14    H9      20.854574   20.212144   20.065227 H          1 MOL1         0.0755
      15    C6      19.831837   21.028393   21.795451 C.3        1 MOL1        -0.1958
      16    H10     18.961112   20.809666   22.423701 H          1 MOL1         0.0753
      17    H11     20.705051   21.083534   22.456399 H          1 MOL1         0.0753
      18    C7      19.621051   22.404689   21.174717 C.2        1 MOL1         0.6174
      19    O1      20.599081   23.093734   20.961624 O.co2      1 MOL1        -0.6695
      20    O2      18.486324   22.743559   20.902183 O.co2      1 MOL1        -0.6695
@<TRIPOS>BOND
    1     1     2    1
    2     1     3    1
    3     1     4    2
    4     4     5    1
    5     4     6    1
    6     6     7    1
    7     6     8    1
    8     6     9    1
    9     9    10    1
   10     9    11    1
   11     9    12    1
   12    12    13    1
   13    12    14    1
   14    12    15    1
   15    15    16    1
   16    15    17    1
   17    15    18    1
   18    18    19    1
   19    18    20    2
@<TRIPOS>SUBSTRUCTURE
       1 MOL1            1 RESIDUE      1      MOL     
@<SCITEGIC>MOL_PROPERTY
VConf Rank
SciTegic.value.IntegerValue
704

@<SCITEGIC>MOL_PROPERTY
Conf_Id
SciTegic.value.IntegerValue
38

@<SCITEGIC>MOL_PROPERTY
Delta U+W
SciTegic.value.DoubleValue
-0.381

@<SCITEGIC>MOL_PROPERTY
U+W
SciTegic.value.DoubleValue
-52.126

@<SCITEGIC>MOL_PROPERTY
Grad RMS
SciTegic.value.DoubleValue
0.000000

@<SCITEGIC>MOL_PROPERTY
U
SciTegic.value.DoubleValue
7.601

@<SCITEGIC>MOL_PROPERTY
W
SciTegic.value.DoubleValue
-59.727

@<SCITEGIC>MOL_PROPERTY
W(PB)
SciTegic.value.DoubleValue
-61.964

@<SCITEGIC>MOL_PROPERTY
W(SA)
SciTegic.value.DoubleValue
2.236

@<SCITEGIC>MOL_PROPERTY
Valence
SciTegic.value.DoubleValue
9.602

@<SCITEGIC>MOL_PROPERTY
Coulomb
SciTegic.value.DoubleValue
-2.686

@<SCITEGIC>MOL_PROPERTY
VdW
SciTegic.value.DoubleValue
0.685

@<SCITEGIC>MOL_PROPERTY
VdW6
SciTegic.value.DoubleValue
-6.453

@<SCITEGIC>MOL_PROPERTY
VdW12
SciTegic.value.DoubleValue
7.139

@<SCITEGIC>MOL_PROPERTY
Bond
SciTegic.value.DoubleValue
0.125

@<SCITEGIC>MOL_PROPERTY
Angle
SciTegic.value.DoubleValue
2.485

@<SCITEGIC>MOL_PROPERTY
Pdih
SciTegic.value.DoubleValue
6.991

@<SCITEGIC>MOL_PROPERTY
Idih
SciTegic.value.DoubleValue
0.001

@<SCITEGIC>MOL_PROPERTY
Tether
SciTegic.value.DoubleValue
0.000

@<TRIPOS>MOLECULE
guest-s22_confgen4.mol2 : confsearch ligand conformer 705
          20          19           1
SMALL
USER_CHARGES
 
@<TRIPOS>ATOM
       1    C1      19.459570   18.141494   18.653811 C.2        1 MOL1        -0.2535
       2    H1      19.463260   17.089168   18.933409 H          1 MOL1         0.0845
       3    H2      19.038057   18.400660   17.684055 H          1 MOL1         0.0845
       4    C2      19.949744   19.081064   19.466585 C.2        1 MOL1        -0.1324
       5    H3      19.935655   20.129075   19.168030 H          1 MOL1         0.0833
       6    C3      20.550530   18.797363   20.825341 C.3        1 MOL1        -0.1813
       7    H4      21.514720   19.315275   20.916059 H          1 MOL1         0.0753
       8    H5      20.756812   17.723796   20.933246 H          1 MOL1         0.0753
       9    C4      19.608531   19.256638   21.957912 C.3        1 MOL1        -0.1855
      10    H6      19.405710   20.331088   21.849052 H          1 MOL1         0.0755
      11    H7      18.643615   18.740095   21.860997 H          1 MOL1         0.0755
      12    C5      20.209092   18.976527   23.354047 C.3        1 MOL1        -0.1855
      13    H8      21.169492   19.500428   23.458234 H          1 MOL1         0.0755
      14    H9      20.422749   17.903137   23.447689 H          1 MOL1         0.0755
      15    C6      19.263465   19.403685   24.506532 C.3        1 MOL1        -0.1958
      16    H10     18.289891   18.909928   24.400629 H          1 MOL1         0.0753
      17    H11     19.682859   19.076379   25.465155 H          1 MOL1         0.0753
      18    C7      19.038280   20.910287   24.597670 C.2        1 MOL1         0.6174
      19    O1      17.975514   21.358038   24.214240 O.co2      1 MOL1        -0.6695
      20    O2      19.929168   21.595107   25.060746 O.co2      1 MOL1        -0.6695
@<TRIPOS>BOND
    1     1     2    1
    2     1     3    1
    3     1     4    2
    4     4     5    1
    5     4     6    1
    6     6     7    1
    7     6     8    1
    8     6     9    1
    9     9    10    1
   10     9    11    1
   11     9    12    1
   12    12    13    1
   13    12    14    1
   14    12    15    1
   15    15    16    1
   16    15    17    1
   17    15    18    1
   18    18    19    1
   19    18    20    2
@<TRIPOS>SUBSTRUCTURE
       1 MOL1            1 RESIDUE      1      MOL     
@<SCITEGIC>MOL_PROPERTY
VConf Rank
SciTegic.value.IntegerValue
705

@<SCITEGIC>MOL_PROPERTY
Conf_Id
SciTegic.value.IntegerValue
58

@<SCITEGIC>MOL_PROPERTY
Delta U+W
SciTegic.value.DoubleValue
0.019

@<SCITEGIC>MOL_PROPERTY
U+W
SciTegic.value.DoubleValue
-51.727

@<SCITEGIC>MOL_PROPERTY
Grad RMS
SciTegic.value.DoubleValue
0.000000

@<SCITEGIC>MOL_PROPERTY
U
SciTegic.value.DoubleValue
8.963

@<SCITEGIC>MOL_PROPERTY
W
SciTegic.value.DoubleValue
-60.690

@<SCITEGIC>MOL_PROPERTY
W(PB)
SciTegic.value.DoubleValue
-62.934

@<SCITEGIC>MOL_PROPERTY
W(SA)
SciTegic.value.DoubleValue
2.244

@<SCITEGIC>MOL_PROPERTY
Valence
SciTegic.value.DoubleValue
9.327

@<SCITEGIC>MOL_PROPERTY
Coulomb
SciTegic.value.DoubleValue
-0.780

@<SCITEGIC>MOL_PROPERTY
VdW
SciTegic.value.DoubleValue
0.417

@<SCITEGIC>MOL_PROPERTY
VdW6
SciTegic.value.DoubleValue
-6.635

@<SCITEGIC>MOL_PROPERTY
VdW12
SciTegic.value.DoubleValue
7.052

@<SCITEGIC>MOL_PROPERTY
Bond
SciTegic.value.DoubleValue
0.105

@<SCITEGIC>MOL_PROPERTY
Angle
SciTegic.value.DoubleValue
2.399

@<SCITEGIC>MOL_PROPERTY
Pdih
SciTegic.value.DoubleValue
6.822

@<SCITEGIC>MOL_PROPERTY
Idih
SciTegic.value.DoubleValue
0.000

@<SCITEGIC>MOL_PROPERTY
Tether
SciTegic.value.DoubleValue
0.000

@<TRIPOS>MOLECULE
guest-s22_confgen4.mol2 : confsearch ligand conformer 706
          20          19           1
SMALL
USER_CHARGES
 
@<TRIPOS>ATOM
       1    C1      19.402157   15.689722   21.943335 C.2        1 MOL1        -0.2535
       2    H1      19.958262   15.605350   21.011023 H          1 MOL1         0.0845
       3    H2      18.732432   14.871582   22.202917 H          1 MOL1         0.0845
       4    C2      19.531552   16.754555   22.738981 C.2        1 MOL1        -0.1324
       5    H3      18.964965   16.819886   23.667621 H          1 MOL1         0.0833
       6    C3      20.440959   17.926876   22.445240 C.3        1 MOL1        -0.1813
       7    H4      21.148792   17.668105   21.646022 H          1 MOL1         0.0753
       8    H5      21.040479   18.158858   23.335681 H          1 MOL1         0.0753
       9    C4      19.628923   19.171599   22.030179 C.3        1 MOL1        -0.1855
      10    H6      19.026996   18.934259   21.142133 H          1 MOL1         0.0755
      11    H7      18.923424   19.429653   22.832121 H          1 MOL1         0.0755
      12    C5      20.543563   20.380378   21.729155 C.3        1 MOL1        -0.1855
      13    H8      21.255042   20.108011   20.937829 H          1 MOL1         0.0755
      14    H9      21.139419   20.627180   22.618952 H          1 MOL1         0.0755
      15    C6      19.747496   21.633330   21.280507 C.3        1 MOL1        -0.1958
      16    H10     20.445708   22.418479   20.967430 H          1 MOL1         0.0753
      17    H11     19.125705   21.395237   20.408988 H          1 MOL1         0.0753
      18    C7      18.855333   22.223610   22.368845 C.2        1 MOL1         0.6174
      19    O1      19.383238   22.863980   23.256730 O.co2      1 MOL1        -0.6695
      20    O2      17.656642   22.037547   22.294749 O.co2      1 MOL1        -0.6695
@<TRIPOS>BOND
    1     1     2    1
    2     1     3    1
    3     1     4    2
    4     4     5    1
    5     4     6    1
    6     6     7    1
    7     6     8    1
    8     6     9    1
    9     9    10    1
   10     9    11    1
   11     9    12    1
   12    12    13    1
   13    12    14    1
   14    12    15    1
   15    15    16    1
   16    15    17    1
   17    15    18    1
   18    18    19    1
   19    18    20    2
@<TRIPOS>SUBSTRUCTURE
       1 MOL1            1 RESIDUE      1      MOL     
@<SCITEGIC>MOL_PROPERTY
VConf Rank
SciTegic.value.IntegerValue
706

@<SCITEGIC>MOL_PROPERTY
Conf_Id
SciTegic.value.IntegerValue
54

@<SCITEGIC>MOL_PROPERTY
Delta U+W
SciTegic.value.DoubleValue
-0.048

@<SCITEGIC>MOL_PROPERTY
U+W
SciTegic.value.DoubleValue
-51.793

@<SCITEGIC>MOL_PROPERTY
Grad RMS
SciTegic.value.DoubleValue
0.000000

@<SCITEGIC>MOL_PROPERTY
U
SciTegic.value.DoubleValue
8.964

@<SCITEGIC>MOL_PROPERTY
W
SciTegic.value.DoubleValue
-60.756

@<SCITEGIC>MOL_PROPERTY
W(PB)
SciTegic.value.DoubleValue
-63.007

@<SCITEGIC>MOL_PROPERTY
W(SA)
SciTegic.value.DoubleValue
2.251

@<SCITEGIC>MOL_PROPERTY
Valence
SciTegic.value.DoubleValue
9.327

@<SCITEGIC>MOL_PROPERTY
Coulomb
SciTegic.value.DoubleValue
-0.780

@<SCITEGIC>MOL_PROPERTY
VdW
SciTegic.value.DoubleValue
0.417

@<SCITEGIC>MOL_PROPERTY
VdW6
SciTegic.value.DoubleValue
-6.635

@<SCITEGIC>MOL_PROPERTY
VdW12
SciTegic.value.DoubleValue
7.052

@<SCITEGIC>MOL_PROPERTY
Bond
SciTegic.value.DoubleValue
0.105

@<SCITEGIC>MOL_PROPERTY
Angle
SciTegic.value.DoubleValue
2.399

@<SCITEGIC>MOL_PROPERTY
Pdih
SciTegic.value.DoubleValue
6.822

@<SCITEGIC>MOL_PROPERTY
Idih
SciTegic.value.DoubleValue
0.000

@<SCITEGIC>MOL_PROPERTY
Tether
SciTegic.value.DoubleValue
0.000

@<TRIPOS>MOLECULE
guest-s22_confgen4.mol2 : confsearch ligand conformer 707
          20          19           1
SMALL
USER_CHARGES
 
@<TRIPOS>ATOM
       1    C1      20.183339   20.962213   24.780532 C.2        1 MOL1        -0.2535
       2    H1      19.799443   21.932722   25.090246 H          1 MOL1         0.0845
       3    H2      20.278751   20.193513   25.545716 H          1 MOL1         0.0845
       4    C2      20.520187   20.726776   23.509794 C.2        1 MOL1        -0.1324
       5    H3      20.420090   21.511421   22.760419 H          1 MOL1         0.0833
       6    C3      21.066227   19.406792   23.008465 C.3        1 MOL1        -0.1813
       7    H4      21.467114   18.828148   23.851669 H          1 MOL1         0.0753
       8    H5      21.910555   19.584616   22.329102 H          1 MOL1         0.0753
       9    C4      19.991132   18.558035   22.292936 C.3        1 MOL1        -0.1855
      10    H6      20.411744   17.565835   22.079377 H          1 MOL1         0.0755
      11    H7      19.141222   18.398059   22.970578 H          1 MOL1         0.0755
      12    C5      19.496790   19.199763   20.974636 C.3        1 MOL1        -0.1855
      13    H8      20.348603   19.373307   20.302525 H          1 MOL1         0.0755
      14    H9      19.056647   20.182759   21.187911 H          1 MOL1         0.0755
      15    C6      18.438622   18.328977   20.248556 C.3        1 MOL1        -0.1958
      16    H10     17.596539   18.118843   20.919057 H          1 MOL1         0.0753
      17    H11     18.033112   18.882486   19.393485 H          1 MOL1         0.0753
      18    C7      18.981796   17.005080   19.718373 C.2        1 MOL1         0.6174
      19    O1      18.701092   15.985859   20.317909 O.co2      1 MOL1        -0.6695
      20    O2      19.663197   17.027759   18.712245 O.co2      1 MOL1        -0.6695
@<TRIPOS>BOND
    1     1     2    1
    2     1     3    1
    3     1     4    2
    4     4     5    1
    5     4     6    1
    6     6     7    1
    7     6     8    1
    8     6     9    1
    9     9    10    1
   10     9    11    1
   11     9    12    1
   12    12    13    1
   13    12    14    1
   14    12    15    1
   15    15    16    1
   16    15    17    1
   17    15    18    1
   18    18    19    1
   19    18    20    2
@<TRIPOS>SUBSTRUCTURE
       1 MOL1            1 RESIDUE      1      MOL     
@<SCITEGIC>MOL_PROPERTY
VConf Rank
SciTegic.value.IntegerValue
707

@<SCITEGIC>MOL_PROPERTY
Conf_Id
SciTegic.value.IntegerValue
27

@<SCITEGIC>MOL_PROPERTY
Delta U+W
SciTegic.value.DoubleValue
0.478

@<SCITEGIC>MOL_PROPERTY
U+W
SciTegic.value.DoubleValue
-51.267

@<SCITEGIC>MOL_PROPERTY
Grad RMS
SciTegic.value.DoubleValue
0.000000

@<SCITEGIC>MOL_PROPERTY
U
SciTegic.value.DoubleValue
9.192

@<SCITEGIC>MOL_PROPERTY
W
SciTegic.value.DoubleValue
-60.459

@<SCITEGIC>MOL_PROPERTY
W(PB)
SciTegic.value.DoubleValue
-62.649

@<SCITEGIC>MOL_PROPERTY
W(SA)
SciTegic.value.DoubleValue
2.190

@<SCITEGIC>MOL_PROPERTY
Valence
SciTegic.value.DoubleValue
9.572

@<SCITEGIC>MOL_PROPERTY
Coulomb
SciTegic.value.DoubleValue
-0.884

@<SCITEGIC>MOL_PROPERTY
VdW
SciTegic.value.DoubleValue
0.504

@<SCITEGIC>MOL_PROPERTY
VdW6
SciTegic.value.DoubleValue
-7.168

@<SCITEGIC>MOL_PROPERTY
VdW12
SciTegic.value.DoubleValue
7.672

@<SCITEGIC>MOL_PROPERTY
Bond
SciTegic.value.DoubleValue
0.127

@<SCITEGIC>MOL_PROPERTY
Angle
SciTegic.value.DoubleValue
2.504

@<SCITEGIC>MOL_PROPERTY
Pdih
SciTegic.value.DoubleValue
6.941

@<SCITEGIC>MOL_PROPERTY
Idih
SciTegic.value.DoubleValue
0.001

@<SCITEGIC>MOL_PROPERTY
Tether
SciTegic.value.DoubleValue
0.000

@<TRIPOS>MOLECULE
guest-s22_confgen4.mol2 : confsearch ligand conformer 708
          20          19           1
SMALL
USER_CHARGES
 
@<TRIPOS>ATOM
       1    C1      17.714188   21.488218   22.362296 C.2        1 MOL1        -0.2535
       2    H1      17.424347   21.829752   21.369898 H          1 MOL1         0.0845
       3    H2      17.774997   22.235585   23.151563 H          1 MOL1         0.0845
       4    C2      17.988438   20.203931   22.605337 C.2        1 MOL1        -0.1324
       5    H3      18.273657   19.882975   23.606801 H          1 MOL1         0.0833
       6    C3      17.918943   19.110143   21.561021 C.3        1 MOL1        -0.1813
       7    H4      17.299886   19.442961   20.716890 H          1 MOL1         0.0753
       8    H5      17.419430   18.225609   21.978330 H          1 MOL1         0.0753
       9    C4      19.314814   18.717469   21.026783 C.3        1 MOL1        -0.1855
      10    H6      19.188740   18.021925   20.185830 H          1 MOL1         0.0755
      11    H7      19.815714   19.609120   20.625080 H          1 MOL1         0.0755
      12    C5      20.206092   18.055993   22.102940 C.3        1 MOL1        -0.1855
      13    H8      19.692636   17.179571   22.521992 H          1 MOL1         0.0755
      14    H9      20.373264   18.755487   22.933268 H          1 MOL1         0.0755
      15    C6      21.575565   17.619370   21.526777 C.3        1 MOL1        -0.1958
      16    H10     21.431723   16.906687   20.705845 H          1 MOL1         0.0753
      17    H11     22.106355   18.486088   21.114866 H          1 MOL1         0.0753
      18    C7      22.474644   16.964834   22.569509 C.2        1 MOL1         0.6174
      19    O1      23.222636   17.676603   23.210254 O.co2      1 MOL1        -0.6695
      20    O2      22.390600   15.762662   22.725768 O.co2      1 MOL1        -0.6695
@<TRIPOS>BOND
    1     1     2    1
    2     1     3    1
    3     1     4    2
    4     4     5    1
    5     4     6    1
    6     6     7    1
    7     6     8    1
    8     6     9    1
    9     9    10    1
   10     9    11    1
   11     9    12    1
   12    12    13    1
   13    12    14    1
   14    12    15    1
   15    15    16    1
   16    15    17    1
   17    15    18    1
   18    18    19    1
   19    18    20    2
@<TRIPOS>SUBSTRUCTURE
       1 MOL1            1 RESIDUE      1      MOL     
@<SCITEGIC>MOL_PROPERTY
VConf Rank
SciTegic.value.IntegerValue
708

@<SCITEGIC>MOL_PROPERTY
Conf_Id
SciTegic.value.IntegerValue
41

@<SCITEGIC>MOL_PROPERTY
Delta U+W
SciTegic.value.DoubleValue
-0.634

@<SCITEGIC>MOL_PROPERTY
U+W
SciTegic.value.DoubleValue
-52.379

@<SCITEGIC>MOL_PROPERTY
Grad RMS
SciTegic.value.DoubleValue
0.000000

@<SCITEGIC>MOL_PROPERTY
U
SciTegic.value.DoubleValue
7.828

@<SCITEGIC>MOL_PROPERTY
W
SciTegic.value.DoubleValue
-60.207

@<SCITEGIC>MOL_PROPERTY
W(PB)
SciTegic.value.DoubleValue
-62.449

@<SCITEGIC>MOL_PROPERTY
W(SA)
SciTegic.value.DoubleValue
2.242

@<SCITEGIC>MOL_PROPERTY
Valence
SciTegic.value.DoubleValue
9.300

@<SCITEGIC>MOL_PROPERTY
Coulomb
SciTegic.value.DoubleValue
-2.080

@<SCITEGIC>MOL_PROPERTY
VdW
SciTegic.value.DoubleValue
0.608

@<SCITEGIC>MOL_PROPERTY
VdW6
SciTegic.value.DoubleValue
-6.341

@<SCITEGIC>MOL_PROPERTY
VdW12
SciTegic.value.DoubleValue
6.949

@<SCITEGIC>MOL_PROPERTY
Bond
SciTegic.value.DoubleValue
0.103

@<SCITEGIC>MOL_PROPERTY
Angle
SciTegic.value.DoubleValue
2.334

@<SCITEGIC>MOL_PROPERTY
Pdih
SciTegic.value.DoubleValue
6.862

@<SCITEGIC>MOL_PROPERTY
Idih
SciTegic.value.DoubleValue
0.001

@<SCITEGIC>MOL_PROPERTY
Tether
SciTegic.value.DoubleValue
0.000

@<TRIPOS>MOLECULE
guest-s22_confgen4.mol2 : confsearch ligand conformer 709
          20          19           1
SMALL
USER_CHARGES
 
@<TRIPOS>ATOM
       1    C1      21.209138   22.004133   23.020139 C.2        1 MOL1        -0.2535
       2    H1      21.478751   23.005139   22.687672 H          1 MOL1         0.0845
       3    H2      21.044221   21.857741   24.086406 H          1 MOL1         0.0845
       4    C2      21.084391   20.998293   22.150405 C.2        1 MOL1        -0.1324
       5    H3      21.253114   21.165676   21.086835 H          1 MOL1         0.0833
       6    C3      20.714590   19.583623   22.537128 C.3        1 MOL1        -0.1813
       7    H4      20.816966   19.446887   23.622115 H          1 MOL1         0.0753
       8    H5      21.414749   18.885828   22.059830 H          1 MOL1         0.0753
       9    C4      19.267515   19.251832   22.109269 C.3        1 MOL1        -0.1855
      10    H6      18.593297   20.018839   22.514596 H          1 MOL1         0.0755
      11    H7      19.184256   19.315068   21.015501 H          1 MOL1         0.0755
      12    C5      18.782041   17.863293   22.593486 C.3        1 MOL1        -0.1855
      13    H8      17.726025   17.741222   22.315430 H          1 MOL1         0.0755
      14    H9      18.816739   17.830427   23.690812 H          1 MOL1         0.0755
      15    C6      19.589390   16.665565   22.022473 C.3        1 MOL1        -0.1958
      16    H10     20.635864   16.715424   22.344050 H          1 MOL1         0.0753
      17    H11     19.185291   15.730100   22.426594 H          1 MOL1         0.0753
      18    C7      19.550334   16.556781   20.500837 C.2        1 MOL1         0.6174
      19    O1      18.513772   16.194900   19.979314 O.co2      1 MOL1        -0.6695
      20    O2      20.560757   16.818806   19.878470 O.co2      1 MOL1        -0.6695
@<TRIPOS>BOND
    1     1     2    1
    2     1     3    1
    3     1     4    2
    4     4     5    1
    5     4     6    1
    6     6     7    1
    7     6     8    1
    8     6     9    1
    9     9    10    1
   10     9    11    1
   11     9    12    1
   12    12    13    1
   13    12    14    1
   14    12    15    1
   15    15    16    1
   16    15    17    1
   17    15    18    1
   18    18    19    1
   19    18    20    2
@<TRIPOS>SUBSTRUCTURE
       1 MOL1            1 RESIDUE      1      MOL     
@<SCITEGIC>MOL_PROPERTY
VConf Rank
SciTegic.value.IntegerValue
709

@<SCITEGIC>MOL_PROPERTY
Conf_Id
SciTegic.value.IntegerValue
84

@<SCITEGIC>MOL_PROPERTY
Delta U+W
SciTegic.value.DoubleValue
0.942

@<SCITEGIC>MOL_PROPERTY
U+W
SciTegic.value.DoubleValue
-50.803

@<SCITEGIC>MOL_PROPERTY
Grad RMS
SciTegic.value.DoubleValue
0.000000

@<SCITEGIC>MOL_PROPERTY
U
SciTegic.value.DoubleValue
10.196

@<SCITEGIC>MOL_PROPERTY
W
SciTegic.value.DoubleValue
-60.999

@<SCITEGIC>MOL_PROPERTY
W(PB)
SciTegic.value.DoubleValue
-63.182

@<SCITEGIC>MOL_PROPERTY
W(SA)
SciTegic.value.DoubleValue
2.182

@<SCITEGIC>MOL_PROPERTY
Valence
SciTegic.value.DoubleValue
9.837

@<SCITEGIC>MOL_PROPERTY
Coulomb
SciTegic.value.DoubleValue
0.032

@<SCITEGIC>MOL_PROPERTY
VdW
SciTegic.value.DoubleValue
0.328

@<SCITEGIC>MOL_PROPERTY
VdW6
SciTegic.value.DoubleValue
-7.642

@<SCITEGIC>MOL_PROPERTY
VdW12
SciTegic.value.DoubleValue
7.969

@<SCITEGIC>MOL_PROPERTY
Bond
SciTegic.value.DoubleValue
0.151

@<SCITEGIC>MOL_PROPERTY
Angle
SciTegic.value.DoubleValue
2.748

@<SCITEGIC>MOL_PROPERTY
Pdih
SciTegic.value.DoubleValue
6.937

@<SCITEGIC>MOL_PROPERTY
Idih
SciTegic.value.DoubleValue
0.001

@<SCITEGIC>MOL_PROPERTY
Tether
SciTegic.value.DoubleValue
0.000

@<TRIPOS>MOLECULE
guest-s22_confgen4.mol2 : confsearch ligand conformer 710
          20          19           1
SMALL
USER_CHARGES
 
@<TRIPOS>ATOM
       1    C1      16.214292   19.558609   21.604231 C.2        1 MOL1        -0.2535
       2    H1      15.273745   19.895887   22.036522 H          1 MOL1         0.0845
       3    H2      16.424164   19.845730   20.575106 H          1 MOL1         0.0845
       4    C2      17.075302   18.823694   22.312910 C.2        1 MOL1        -0.1324
       5    H3      16.846457   18.547763   23.342049 H          1 MOL1         0.0833
       6    C3      18.397991   18.319168   21.780358 C.3        1 MOL1        -0.1813
       7    H4      18.429747   18.416783   20.686625 H          1 MOL1         0.0753
       8    H5      18.500310   17.249126   22.005356 H          1 MOL1         0.0753
       9    C4      19.580142   19.093979   22.399429 C.3        1 MOL1        -0.1855
      10    H6      19.467961   20.164096   22.175948 H          1 MOL1         0.0755
      11    H7      19.551400   18.993419   23.493097 H          1 MOL1         0.0755
      12    C5      20.940160   18.587914   21.867844 C.3        1 MOL1        -0.1855
      13    H8      20.977816   18.700158   20.775280 H          1 MOL1         0.0755
      14    H9      21.034711   17.514064   22.078736 H          1 MOL1         0.0755
      15    C6      22.143134   19.333037   22.502298 C.3        1 MOL1        -0.1958
      16    H10     22.104688   19.253033   23.595447 H          1 MOL1         0.0753
      17    H11     23.078254   18.858794   22.181956 H          1 MOL1         0.0753
      18    C7      22.227553   20.809202   22.124533 C.2        1 MOL1         0.6174
      19    O1      21.908162   21.635675   22.956341 O.co2      1 MOL1        -0.6695
      20    O2      22.623587   21.093281   21.011177 O.co2      1 MOL1        -0.6695
@<TRIPOS>BOND
    1     1     2    1
    2     1     3    1
    3     1     4    2
    4     4     5    1
    5     4     6    1
    6     6     7    1
    7     6     8    1
    8     6     9    1
    9     9    10    1
   10     9    11    1
   11     9    12    1
   12    12    13    1
   13    12    14    1
   14    12    15    1
   15    15    16    1
   16    15    17    1
   17    15    18    1
   18    18    19    1
   19    18    20    2
@<TRIPOS>SUBSTRUCTURE
       1 MOL1            1 RESIDUE      1      MOL     
@<SCITEGIC>MOL_PROPERTY
VConf Rank
SciTegic.value.IntegerValue
710

@<SCITEGIC>MOL_PROPERTY
Conf_Id
SciTegic.value.IntegerValue
81

@<SCITEGIC>MOL_PROPERTY
Delta U+W
SciTegic.value.DoubleValue
-0.051

@<SCITEGIC>MOL_PROPERTY
U+W
SciTegic.value.DoubleValue
-51.796

@<SCITEGIC>MOL_PROPERTY
Grad RMS
SciTegic.value.DoubleValue
0.000000

@<SCITEGIC>MOL_PROPERTY
U
SciTegic.value.DoubleValue
9.412

@<SCITEGIC>MOL_PROPERTY
W
SciTegic.value.DoubleValue
-61.209

@<SCITEGIC>MOL_PROPERTY
W(PB)
SciTegic.value.DoubleValue
-63.452

@<SCITEGIC>MOL_PROPERTY
W(SA)
SciTegic.value.DoubleValue
2.243

@<SCITEGIC>MOL_PROPERTY
Valence
SciTegic.value.DoubleValue
9.329

@<SCITEGIC>MOL_PROPERTY
Coulomb
SciTegic.value.DoubleValue
-0.323

@<SCITEGIC>MOL_PROPERTY
VdW
SciTegic.value.DoubleValue
0.406

@<SCITEGIC>MOL_PROPERTY
VdW6
SciTegic.value.DoubleValue
-6.640

@<SCITEGIC>MOL_PROPERTY
VdW12
SciTegic.value.DoubleValue
7.046

@<SCITEGIC>MOL_PROPERTY
Bond
SciTegic.value.DoubleValue
0.105

@<SCITEGIC>MOL_PROPERTY
Angle
SciTegic.value.DoubleValue
2.401

@<SCITEGIC>MOL_PROPERTY
Pdih
SciTegic.value.DoubleValue
6.823

@<SCITEGIC>MOL_PROPERTY
Idih
SciTegic.value.DoubleValue
0.000

@<SCITEGIC>MOL_PROPERTY
Tether
SciTegic.value.DoubleValue
0.000

@<TRIPOS>MOLECULE
guest-s22_confgen4.mol2 : confsearch ligand conformer 711
          20          19           1
SMALL
USER_CHARGES
 
@<TRIPOS>ATOM
       1    C1      22.817701   18.946070   22.693298 C.2        1 MOL1        -0.2535
       2    H1      22.943845   18.287339   23.550981 H          1 MOL1         0.0845
       3    H2      23.704658   19.182085   22.107850 H          1 MOL1         0.0845
       4    C2      21.622548   19.444905   22.367031 C.2        1 MOL1        -0.1324
       5    H3      21.518344   20.104394   21.505962 H          1 MOL1         0.0833
       6    C3      20.348517   19.165913   23.135494 C.3        1 MOL1        -0.1813
       7    H4      19.785746   20.096843   23.282428 H          1 MOL1         0.0753
       8    H5      20.595399   18.803666   24.142490 H          1 MOL1         0.0753
       9    C4      19.457122   18.110065   22.438853 C.3        1 MOL1        -0.1855
      10    H6      20.010415   17.162761   22.381264 H          1 MOL1         0.0755
      11    H7      18.580164   17.912153   23.070318 H          1 MOL1         0.0755
      12    C5      18.983917   18.499231   21.014522 C.3        1 MOL1        -0.1855
      13    H8      18.385294   17.673939   20.604979 H          1 MOL1         0.0755
      14    H9      19.855034   18.599167   20.353566 H          1 MOL1         0.0755
      15    C6      18.143083   19.803491   20.950547 C.3        1 MOL1        -0.1958
      16    H10     18.737204   20.662683   21.281984 H          1 MOL1         0.0753
      17    H11     17.862198   20.003573   19.910029 H          1 MOL1         0.0753
      18    C7      16.855254   19.754995   21.767669 C.2        1 MOL1         0.6174
      19    O1      16.793524   20.415578   22.785954 O.co2      1 MOL1        -0.6695
      20    O2      15.940262   19.070188   21.353797 O.co2      1 MOL1        -0.6695
@<TRIPOS>BOND
    1     1     2    1
    2     1     3    1
    3     1     4    2
    4     4     5    1
    5     4     6    1
    6     6     7    1
    7     6     8    1
    8     6     9    1
    9     9    10    1
   10     9    11    1
   11     9    12    1
   12    12    13    1
   13    12    14    1
   14    12    15    1
   15    15    16    1
   16    15    17    1
   17    15    18    1
   18    18    19    1
   19    18    20    2
@<TRIPOS>SUBSTRUCTURE
       1 MOL1            1 RESIDUE      1      MOL     
@<SCITEGIC>MOL_PROPERTY
VConf Rank
SciTegic.value.IntegerValue
711

@<SCITEGIC>MOL_PROPERTY
Conf_Id
SciTegic.value.IntegerValue
86

@<SCITEGIC>MOL_PROPERTY
Delta U+W
SciTegic.value.DoubleValue
1.248

@<SCITEGIC>MOL_PROPERTY
U+W
SciTegic.value.DoubleValue
-50.498

@<SCITEGIC>MOL_PROPERTY
Grad RMS
SciTegic.value.DoubleValue
0.000000

@<SCITEGIC>MOL_PROPERTY
U
SciTegic.value.DoubleValue
10.404

@<SCITEGIC>MOL_PROPERTY
W
SciTegic.value.DoubleValue
-60.901

@<SCITEGIC>MOL_PROPERTY
W(PB)
SciTegic.value.DoubleValue
-63.061

@<SCITEGIC>MOL_PROPERTY
W(SA)
SciTegic.value.DoubleValue
2.159

@<SCITEGIC>MOL_PROPERTY
Valence
SciTegic.value.DoubleValue
10.021

@<SCITEGIC>MOL_PROPERTY
Coulomb
SciTegic.value.DoubleValue
0.094

@<SCITEGIC>MOL_PROPERTY
VdW
SciTegic.value.DoubleValue
0.289

@<SCITEGIC>MOL_PROPERTY
VdW6
SciTegic.value.DoubleValue
-8.409

@<SCITEGIC>MOL_PROPERTY
VdW12
SciTegic.value.DoubleValue
8.698

@<SCITEGIC>MOL_PROPERTY
Bond
SciTegic.value.DoubleValue
0.179

@<SCITEGIC>MOL_PROPERTY
Angle
SciTegic.value.DoubleValue
2.939

@<SCITEGIC>MOL_PROPERTY
Pdih
SciTegic.value.DoubleValue
6.902

@<SCITEGIC>MOL_PROPERTY
Idih
SciTegic.value.DoubleValue
0.001

@<SCITEGIC>MOL_PROPERTY
Tether
SciTegic.value.DoubleValue
0.000

@<TRIPOS>MOLECULE
guest-s22_confgen4.mol2 : confsearch ligand conformer 712
          20          19           1
SMALL
USER_CHARGES
 
@<TRIPOS>ATOM
       1    C1      19.882495   21.797366   20.507225 C.2        1 MOL1        -0.2535
       2    H1      19.238788   22.661752   20.353657 H          1 MOL1         0.0845
       3    H2      20.863523   21.974424   20.945013 H          1 MOL1         0.0845
       4    C2      19.479339   20.568489   20.173535 C.2        1 MOL1        -0.1324
       5    H3      18.492486   20.412543   19.738572 H          1 MOL1         0.0833
       6    C3      20.316685   19.320623   20.357209 C.3        1 MOL1        -0.1813
       7    H4      21.353894   19.583665   20.605540 H          1 MOL1         0.0753
       8    H5      20.355531   18.771889   19.406839 H          1 MOL1         0.0753
       9    C4      19.746305   18.386838   21.448433 C.3        1 MOL1        -0.1855
      10    H6      18.707656   18.126411   21.202853 H          1 MOL1         0.0755
      11    H7      20.314792   17.446750   21.440234 H          1 MOL1         0.0755
      12    C5      19.809492   19.012347   22.862061 C.3        1 MOL1        -0.1855
      13    H8      19.235872   19.948775   22.873518 H          1 MOL1         0.0755
      14    H9      20.847928   19.276173   23.105780 H          1 MOL1         0.0755
      15    C6      19.247516   18.069233   23.957392 C.3        1 MOL1        -0.1958
      16    H10     19.202338   18.604252   24.913245 H          1 MOL1         0.0753
      17    H11     18.221015   17.772016   23.710947 H          1 MOL1         0.0753
      18    C7      20.079979   16.809547   24.178577 C.2        1 MOL1         0.6174
      19    O1      21.120128   16.912274   24.798790 O.co2      1 MOL1        -0.6695
      20    O2      19.661946   15.757792   23.735693 O.co2      1 MOL1        -0.6695
@<TRIPOS>BOND
    1     1     2    1
    2     1     3    1
    3     1     4    2
    4     4     5    1
    5     4     6    1
    6     6     7    1
    7     6     8    1
    8     6     9    1
    9     9    10    1
   10     9    11    1
   11     9    12    1
   12    12    13    1
   13    12    14    1
   14    12    15    1
   15    15    16    1
   16    15    17    1
   17    15    18    1
   18    18    19    1
   19    18    20    2
@<TRIPOS>SUBSTRUCTURE
       1 MOL1            1 RESIDUE      1      MOL     
@<SCITEGIC>MOL_PROPERTY
VConf Rank
SciTegic.value.IntegerValue
712

@<SCITEGIC>MOL_PROPERTY
Conf_Id
SciTegic.value.IntegerValue
28

@<SCITEGIC>MOL_PROPERTY
Delta U+W
SciTegic.value.DoubleValue
0.446

@<SCITEGIC>MOL_PROPERTY
U+W
SciTegic.value.DoubleValue
-51.299

@<SCITEGIC>MOL_PROPERTY
Grad RMS
SciTegic.value.DoubleValue
0.000000

@<SCITEGIC>MOL_PROPERTY
U
SciTegic.value.DoubleValue
9.295

@<SCITEGIC>MOL_PROPERTY
W
SciTegic.value.DoubleValue
-60.594

@<SCITEGIC>MOL_PROPERTY
W(PB)
SciTegic.value.DoubleValue
-62.806

@<SCITEGIC>MOL_PROPERTY
W(SA)
SciTegic.value.DoubleValue
2.212

@<SCITEGIC>MOL_PROPERTY
Valence
SciTegic.value.DoubleValue
9.495

@<SCITEGIC>MOL_PROPERTY
Coulomb
SciTegic.value.DoubleValue
-0.610

@<SCITEGIC>MOL_PROPERTY
VdW
SciTegic.value.DoubleValue
0.409

@<SCITEGIC>MOL_PROPERTY
VdW6
SciTegic.value.DoubleValue
-7.332

@<SCITEGIC>MOL_PROPERTY
VdW12
SciTegic.value.DoubleValue
7.741

@<SCITEGIC>MOL_PROPERTY
Bond
SciTegic.value.DoubleValue
0.126

@<SCITEGIC>MOL_PROPERTY
Angle
SciTegic.value.DoubleValue
2.497

@<SCITEGIC>MOL_PROPERTY
Pdih
SciTegic.value.DoubleValue
6.872

@<SCITEGIC>MOL_PROPERTY
Idih
SciTegic.value.DoubleValue
0.000

@<SCITEGIC>MOL_PROPERTY
Tether
SciTegic.value.DoubleValue
0.000

@<TRIPOS>MOLECULE
guest-s22_confgen4.mol2 : confsearch ligand conformer 713
          20          19           1
SMALL
USER_CHARGES
 
@<TRIPOS>ATOM
       1    C1      21.511392   16.749454   21.343912 C.2        1 MOL1        -0.2535
       2    H1      21.053705   17.141514   20.438204 H          1 MOL1         0.0845
       3    H2      22.248271   15.957909   21.218990 H          1 MOL1         0.0845
       4    C2      21.200164   17.207246   22.561918 C.2        1 MOL1        -0.1324
       5    H3      21.694517   16.776107   23.432134 H          1 MOL1         0.0833
       6    C3      20.196998   18.299524   22.893645 C.3        1 MOL1        -0.1813
       7    H4      20.731909   19.123938   23.382389 H          1 MOL1         0.0753
       8    H5      19.492647   17.913656   23.642476 H          1 MOL1         0.0753
       9    C4      19.397735   18.841955   21.683046 C.3        1 MOL1        -0.1855
      10    H6      20.086068   19.311032   20.966571 H          1 MOL1         0.0755
      11    H7      18.925184   17.999497   21.159926 H          1 MOL1         0.0755
      12    C5      18.289541   19.850050   22.076380 C.3        1 MOL1        -0.1855
      13    H8      17.577335   19.359067   22.753201 H          1 MOL1         0.0755
      14    H9      17.721173   20.119039   21.175263 H          1 MOL1         0.0755
      15    C6      18.810276   21.152702   22.743154 C.3        1 MOL1        -0.1958
      16    H10     17.959202   21.796043   22.995036 H          1 MOL1         0.0753
      17    H11     19.318657   20.928170   23.687628 H          1 MOL1         0.0753
      18    C7      19.751375   21.970817   21.863423 C.2        1 MOL1         0.6174
      19    O1      19.281218   22.543777   20.900033 O.co2      1 MOL1        -0.6695
      20    O2      20.924337   22.031246   22.175459 O.co2      1 MOL1        -0.6695
@<TRIPOS>BOND
    1     1     2    1
    2     1     3    1
    3     1     4    2
    4     4     5    1
    5     4     6    1
    6     6     7    1
    7     6     8    1
    8     6     9    1
    9     9    10    1
   10     9    11    1
   11     9    12    1
   12    12    13    1
   13    12    14    1
   14    12    15    1
   15    15    16    1
   16    15    17    1
   17    15    18    1
   18    18    19    1
   19    18    20    2
@<TRIPOS>SUBSTRUCTURE
       1 MOL1            1 RESIDUE      1      MOL     
@<SCITEGIC>MOL_PROPERTY
VConf Rank
SciTegic.value.IntegerValue
713

@<SCITEGIC>MOL_PROPERTY
Conf_Id
SciTegic.value.IntegerValue
53

@<SCITEGIC>MOL_PROPERTY
Delta U+W
SciTegic.value.DoubleValue
0.549

@<SCITEGIC>MOL_PROPERTY
U+W
SciTegic.value.DoubleValue
-51.197

@<SCITEGIC>MOL_PROPERTY
Grad RMS
SciTegic.value.DoubleValue
0.000000

@<SCITEGIC>MOL_PROPERTY
U
SciTegic.value.DoubleValue
10.870

@<SCITEGIC>MOL_PROPERTY
W
SciTegic.value.DoubleValue
-62.067

@<SCITEGIC>MOL_PROPERTY
W(PB)
SciTegic.value.DoubleValue
-64.228

@<SCITEGIC>MOL_PROPERTY
W(SA)
SciTegic.value.DoubleValue
2.161

@<SCITEGIC>MOL_PROPERTY
Valence
SciTegic.value.DoubleValue
8.803

@<SCITEGIC>MOL_PROPERTY
Coulomb
SciTegic.value.DoubleValue
1.020

@<SCITEGIC>MOL_PROPERTY
VdW
SciTegic.value.DoubleValue
1.048

@<SCITEGIC>MOL_PROPERTY
VdW6
SciTegic.value.DoubleValue
-8.312

@<SCITEGIC>MOL_PROPERTY
VdW12
SciTegic.value.DoubleValue
9.360

@<SCITEGIC>MOL_PROPERTY
Bond
SciTegic.value.DoubleValue
0.212

@<SCITEGIC>MOL_PROPERTY
Angle
SciTegic.value.DoubleValue
3.379

@<SCITEGIC>MOL_PROPERTY
Pdih
SciTegic.value.DoubleValue
5.211

@<SCITEGIC>MOL_PROPERTY
Idih
SciTegic.value.DoubleValue
0.001

@<SCITEGIC>MOL_PROPERTY
Tether
SciTegic.value.DoubleValue
0.000

@<TRIPOS>MOLECULE
guest-s22_confgen4.mol2 : confsearch ligand conformer 714
          20          19           1
SMALL
USER_CHARGES
 
@<TRIPOS>ATOM
       1    C1      19.960651   19.690222   19.383968 C.2        1 MOL1        -0.2535
       2    H1      21.008216   19.585029   19.657533 H          1 MOL1         0.0845
       3    H2      19.722955   20.415942   18.608238 H          1 MOL1         0.0845
       4    C2      18.997618   18.963397   19.960985 C.2        1 MOL1        -0.1324
       5    H3      17.963719   19.105822   19.647824 H          1 MOL1         0.0833
       6    C3      19.184269   17.924589   21.054570 C.3        1 MOL1        -0.1813
       7    H4      19.193365   16.927576   20.594912 H          1 MOL1         0.0753
       8    H5      18.298399   17.925079   21.702500 H          1 MOL1         0.0753
       9    C4      20.448633   18.090480   21.937540 C.3        1 MOL1        -0.1855
      10    H6      20.502927   17.241805   22.632984 H          1 MOL1         0.0755
      11    H7      21.345460   18.013821   21.308932 H          1 MOL1         0.0755
      12    C5      20.504396   19.409943   22.751643 C.3        1 MOL1        -0.1855
      13    H8      20.524762   20.266534   22.065793 H          1 MOL1         0.0755
      14    H9      21.452498   19.441183   23.305849 H          1 MOL1         0.0755
      15    C6      19.334999   19.596946   23.756561 C.3        1 MOL1        -0.1958
      16    H10     19.455600   20.552942   24.279144 H          1 MOL1         0.0753
      17    H11     18.376941   19.652515   23.227373 H          1 MOL1         0.0753
      18    C7      19.245131   18.506167   24.819835 C.2        1 MOL1         0.6174
      19    O1      18.332710   17.706354   24.749531 O.co2      1 MOL1        -0.6695
      20    O2      20.081317   18.496442   25.701996 O.co2      1 MOL1        -0.6695
@<TRIPOS>BOND
    1     1     2    1
    2     1     3    1
    3     1     4    2
    4     4     5    1
    5     4     6    1
    6     6     7    1
    7     6     8    1
    8     6     9    1
    9     9    10    1
   10     9    11    1
   11     9    12    1
   12    12    13    1
   13    12    14    1
   14    12    15    1
   15    15    16    1
   16    15    17    1
   17    15    18    1
   18    18    19    1
   19    18    20    2
@<TRIPOS>SUBSTRUCTURE
       1 MOL1            1 RESIDUE      1      MOL     
@<SCITEGIC>MOL_PROPERTY
VConf Rank
SciTegic.value.IntegerValue
714

@<SCITEGIC>MOL_PROPERTY
Conf_Id
SciTegic.value.IntegerValue
66

@<SCITEGIC>MOL_PROPERTY
Delta U+W
SciTegic.value.DoubleValue
1.737

@<SCITEGIC>MOL_PROPERTY
U+W
SciTegic.value.DoubleValue
-50.008

@<SCITEGIC>MOL_PROPERTY
Grad RMS
SciTegic.value.DoubleValue
0.000000

@<SCITEGIC>MOL_PROPERTY
U
SciTegic.value.DoubleValue
11.091

@<SCITEGIC>MOL_PROPERTY
W
SciTegic.value.DoubleValue
-61.099

@<SCITEGIC>MOL_PROPERTY
W(PB)
SciTegic.value.DoubleValue
-63.213

@<SCITEGIC>MOL_PROPERTY
W(SA)
SciTegic.value.DoubleValue
2.114

@<SCITEGIC>MOL_PROPERTY
Valence
SciTegic.value.DoubleValue
9.664

@<SCITEGIC>MOL_PROPERTY
Coulomb
SciTegic.value.DoubleValue
0.658

@<SCITEGIC>MOL_PROPERTY
VdW
SciTegic.value.DoubleValue
0.769

@<SCITEGIC>MOL_PROPERTY
VdW6
SciTegic.value.DoubleValue
-9.171

@<SCITEGIC>MOL_PROPERTY
VdW12
SciTegic.value.DoubleValue
9.940

@<SCITEGIC>MOL_PROPERTY
Bond
SciTegic.value.DoubleValue
0.244

@<SCITEGIC>MOL_PROPERTY
Angle
SciTegic.value.DoubleValue
3.658

@<SCITEGIC>MOL_PROPERTY
Pdih
SciTegic.value.DoubleValue
5.762

@<SCITEGIC>MOL_PROPERTY
Idih
SciTegic.value.DoubleValue
0.001

@<SCITEGIC>MOL_PROPERTY
Tether
SciTegic.value.DoubleValue
0.000

@<TRIPOS>MOLECULE
guest-s22_confgen4.mol2 : confsearch ligand conformer 715
          20          19           1
SMALL
USER_CHARGES
 
@<TRIPOS>ATOM
       1    C1      21.939945   18.088586   22.868432 C.2        1 MOL1        -0.2535
       2    H1      21.937481   17.744423   21.836575 H          1 MOL1         0.0845
       3    H2      22.902312   18.368804   23.293006 H          1 MOL1         0.0845
       4    C2      20.821300   18.164352   23.597660 C.2        1 MOL1        -0.1324
       5    H3      20.881766   18.513923   24.627944 H          1 MOL1         0.0833
       6    C3      19.415764   17.813723   23.137088 C.3        1 MOL1        -0.1813
       7    H4      18.702968   18.489376   23.626029 H          1 MOL1         0.0753
       8    H5      19.161681   16.815469   23.517237 H          1 MOL1         0.0753
       9    C4      19.174967   17.850662   21.605106 C.3        1 MOL1        -0.1855
      10    H6      19.845394   17.133612   21.113313 H          1 MOL1         0.0755
      11    H7      18.156964   17.492355   21.400375 H          1 MOL1         0.0755
      12    C5      19.349691   19.247042   20.955263 C.3        1 MOL1        -0.1855
      13    H8      19.241456   19.142261   19.866922 H          1 MOL1         0.0755
      14    H9      20.367264   19.621681   21.127858 H          1 MOL1         0.0755
      15    C6      18.324820   20.296993   21.457417 C.3        1 MOL1        -0.1958
      16    H10     17.303282   19.916864   21.338624 H          1 MOL1         0.0753
      17    H11     18.475362   20.502236   22.523276 H          1 MOL1         0.0753
      18    C7      18.424728   21.622444   20.710795 C.2        1 MOL1         0.6174
      19    O1      19.154820   22.482922   21.161679 O.co2      1 MOL1        -0.6695
      20    O2      17.780133   21.754651   19.689056 O.co2      1 MOL1        -0.6695
@<TRIPOS>BOND
    1     1     2    1
    2     1     3    1
    3     1     4    2
    4     4     5    1
    5     4     6    1
    6     6     7    1
    7     6     8    1
    8     6     9    1
    9     9    10    1
   10     9    11    1
   11     9    12    1
   12    12    13    1
   13    12    14    1
   14    12    15    1
   15    15    16    1
   16    15    17    1
   17    15    18    1
   18    18    19    1
   19    18    20    2
@<TRIPOS>SUBSTRUCTURE
       1 MOL1            1 RESIDUE      1      MOL     
@<SCITEGIC>MOL_PROPERTY
VConf Rank
SciTegic.value.IntegerValue
715

@<SCITEGIC>MOL_PROPERTY
Conf_Id
SciTegic.value.IntegerValue
64

@<SCITEGIC>MOL_PROPERTY
Delta U+W
SciTegic.value.DoubleValue
0.366

@<SCITEGIC>MOL_PROPERTY
U+W
SciTegic.value.DoubleValue
-51.379

@<SCITEGIC>MOL_PROPERTY
Grad RMS
SciTegic.value.DoubleValue
0.000000

@<SCITEGIC>MOL_PROPERTY
U
SciTegic.value.DoubleValue
10.000

@<SCITEGIC>MOL_PROPERTY
W
SciTegic.value.DoubleValue
-61.379

@<SCITEGIC>MOL_PROPERTY
W(PB)
SciTegic.value.DoubleValue
-63.541

@<SCITEGIC>MOL_PROPERTY
W(SA)
SciTegic.value.DoubleValue
2.162

@<SCITEGIC>MOL_PROPERTY
Valence
SciTegic.value.DoubleValue
9.398

@<SCITEGIC>MOL_PROPERTY
Coulomb
SciTegic.value.DoubleValue
-0.504

@<SCITEGIC>MOL_PROPERTY
VdW
SciTegic.value.DoubleValue
1.105

@<SCITEGIC>MOL_PROPERTY
VdW6
SciTegic.value.DoubleValue
-7.975

@<SCITEGIC>MOL_PROPERTY
VdW12
SciTegic.value.DoubleValue
9.080

@<SCITEGIC>MOL_PROPERTY
Bond
SciTegic.value.DoubleValue
0.216

@<SCITEGIC>MOL_PROPERTY
Angle
SciTegic.value.DoubleValue
3.417

@<SCITEGIC>MOL_PROPERTY
Pdih
SciTegic.value.DoubleValue
5.765

@<SCITEGIC>MOL_PROPERTY
Idih
SciTegic.value.DoubleValue
0.001

@<SCITEGIC>MOL_PROPERTY
Tether
SciTegic.value.DoubleValue
0.000

@<TRIPOS>MOLECULE
guest-s22_confgen4.mol2 : confsearch ligand conformer 716
          20          19           1
SMALL
USER_CHARGES
 
@<TRIPOS>ATOM
       1    C1      21.152875   17.833227   19.593998 C.2        1 MOL1        -0.2535
       2    H1      20.207998   17.997102   19.078469 H          1 MOL1         0.0845
       3    H2      21.668826   16.892879   19.407872 H          1 MOL1         0.0845
       4    C2      21.660573   18.746165   20.426344 C.2        1 MOL1        -0.1324
       5    H3      22.606689   18.561459   20.934418 H          1 MOL1         0.0833
       6    C3      21.001760   20.073817   20.735027 C.3        1 MOL1        -0.1813
       7    H4      20.174129   20.265916   20.038752 H          1 MOL1         0.0753
       8    H5      21.730443   20.880528   20.579842 H          1 MOL1         0.0753
       9    C4      20.480684   20.145446   22.188055 C.3        1 MOL1        -0.1855
      10    H6      21.308388   19.952630   22.884338 H          1 MOL1         0.0755
      11    H7      20.131571   21.167386   22.389657 H          1 MOL1         0.0755
      12    C5      19.327321   19.152139   22.457645 C.3        1 MOL1        -0.1855
      13    H8      19.671861   18.123161   22.285230 H          1 MOL1         0.0755
      14    H9      18.507780   19.335604   21.749138 H          1 MOL1         0.0755
      15    C6      18.789876   19.272090   23.904982 C.3        1 MOL1        -0.1958
      16    H10     19.594605   19.079007   24.624508 H          1 MOL1         0.0753
      17    H11     18.425463   20.289510   24.090849 H          1 MOL1         0.0753
      18    C7      17.650888   18.301377   24.195696 C.2        1 MOL1         0.6174
      19    O1      16.515612   18.659898   23.952055 O.co2      1 MOL1        -0.6695
      20    O2      17.929785   17.207270   24.644959 O.co2      1 MOL1        -0.6695
@<TRIPOS>BOND
    1     1     2    1
    2     1     3    1
    3     1     4    2
    4     4     5    1
    5     4     6    1
    6     6     7    1
    7     6     8    1
    8     6     9    1
    9     9    10    1
   10     9    11    1
   11     9    12    1
   12    12    13    1
   13    12    14    1
   14    12    15    1
   15    15    16    1
   16    15    17    1
   17    15    18    1
   18    18    19    1
   19    18    20    2
@<TRIPOS>SUBSTRUCTURE
       1 MOL1            1 RESIDUE      1      MOL     
@<SCITEGIC>MOL_PROPERTY
VConf Rank
SciTegic.value.IntegerValue
716

@<SCITEGIC>MOL_PROPERTY
Conf_Id
SciTegic.value.IntegerValue
42

@<SCITEGIC>MOL_PROPERTY
Delta U+W
SciTegic.value.DoubleValue
-0.601

@<SCITEGIC>MOL_PROPERTY
U+W
SciTegic.value.DoubleValue
-52.347

@<SCITEGIC>MOL_PROPERTY
Grad RMS
SciTegic.value.DoubleValue
0.000000

@<SCITEGIC>MOL_PROPERTY
U
SciTegic.value.DoubleValue
8.428

@<SCITEGIC>MOL_PROPERTY
W
SciTegic.value.DoubleValue
-60.774

@<SCITEGIC>MOL_PROPERTY
W(PB)
SciTegic.value.DoubleValue
-62.982

@<SCITEGIC>MOL_PROPERTY
W(SA)
SciTegic.value.DoubleValue
2.208

@<SCITEGIC>MOL_PROPERTY
Valence
SciTegic.value.DoubleValue
9.231

@<SCITEGIC>MOL_PROPERTY
Coulomb
SciTegic.value.DoubleValue
-1.304

@<SCITEGIC>MOL_PROPERTY
VdW
SciTegic.value.DoubleValue
0.501

@<SCITEGIC>MOL_PROPERTY
VdW6
SciTegic.value.DoubleValue
-6.515

@<SCITEGIC>MOL_PROPERTY
VdW12
SciTegic.value.DoubleValue
7.016

@<SCITEGIC>MOL_PROPERTY
Bond
SciTegic.value.DoubleValue
0.103

@<SCITEGIC>MOL_PROPERTY
Angle
SciTegic.value.DoubleValue
2.328

@<SCITEGIC>MOL_PROPERTY
Pdih
SciTegic.value.DoubleValue
6.799

@<SCITEGIC>MOL_PROPERTY
Idih
SciTegic.value.DoubleValue
0.000

@<SCITEGIC>MOL_PROPERTY
Tether
SciTegic.value.DoubleValue
0.000

@<TRIPOS>MOLECULE
guest-s22_confgen4.mol2 : confsearch ligand conformer 717
          20          19           1
SMALL
USER_CHARGES
 
@<TRIPOS>ATOM
       1    C1      20.563478   21.885178   23.209084 C.2        1 MOL1        -0.2535
       2    H1      19.645603   22.035535   23.775030 H          1 MOL1         0.0845
       3    H2      21.022067   22.762220   22.755665 H          1 MOL1         0.0845
       4    C2      21.106749   20.672852   23.070718 C.2        1 MOL1        -0.1324
       5    H3      22.024491   20.543500   22.497635 H          1 MOL1         0.0833
       6    C3      20.527192   19.408954   23.669532 C.3        1 MOL1        -0.1813
       7    H4      19.727831   19.650360   24.383223 H          1 MOL1         0.0753
       8    H5      21.308509   18.892386   24.242692 H          1 MOL1         0.0753
       9    C4      19.982481   18.446357   22.590340 C.3        1 MOL1        -0.1855
      10    H6      20.785389   18.200907   21.881516 H          1 MOL1         0.0755
      11    H7      19.690021   17.502694   23.070659 H          1 MOL1         0.0755
      12    C5      18.767063   19.028146   21.830372 C.3        1 MOL1        -0.1855
      13    H8      19.056659   19.951562   21.309996 H          1 MOL1         0.0755
      14    H9      17.987454   19.304911   22.552758 H          1 MOL1         0.0755
      15    C6      18.172157   18.029332   20.804077 C.3        1 MOL1        -0.1958
      16    H10     17.898839   17.091318   21.302228 H          1 MOL1         0.0753
      17    H11     17.249832   18.444639   20.381198 H          1 MOL1         0.0753
      18    C7      19.104886   17.708244   19.639719 C.2        1 MOL1         0.6174
      19    O1      19.689690   16.642829   19.647306 O.co2      1 MOL1        -0.6695
      20    O2      19.207578   18.525627   18.746167 O.co2      1 MOL1        -0.6695
@<TRIPOS>BOND
    1     1     2    1
    2     1     3    1
    3     1     4    2
    4     4     5    1
    5     4     6    1
    6     6     7    1
    7     6     8    1
    8     6     9    1
    9     9    10    1
   10     9    11    1
   11     9    12    1
   12    12    13    1
   13    12    14    1
   14    12    15    1
   15    15    16    1
   16    15    17    1
   17    15    18    1
   18    18    19    1
   19    18    20    2
@<TRIPOS>SUBSTRUCTURE
       1 MOL1            1 RESIDUE      1      MOL     
@<SCITEGIC>MOL_PROPERTY
VConf Rank
SciTegic.value.IntegerValue
717

@<SCITEGIC>MOL_PROPERTY
Conf_Id
SciTegic.value.IntegerValue
68

@<SCITEGIC>MOL_PROPERTY
Delta U+W
SciTegic.value.DoubleValue
0.492

@<SCITEGIC>MOL_PROPERTY
U+W
SciTegic.value.DoubleValue
-51.253

@<SCITEGIC>MOL_PROPERTY
Grad RMS
SciTegic.value.DoubleValue
0.000000

@<SCITEGIC>MOL_PROPERTY
U
SciTegic.value.DoubleValue
10.179

@<SCITEGIC>MOL_PROPERTY
W
SciTegic.value.DoubleValue
-61.432

@<SCITEGIC>MOL_PROPERTY
W(PB)
SciTegic.value.DoubleValue
-63.627

@<SCITEGIC>MOL_PROPERTY
W(SA)
SciTegic.value.DoubleValue
2.195

@<SCITEGIC>MOL_PROPERTY
Valence
SciTegic.value.DoubleValue
9.483

@<SCITEGIC>MOL_PROPERTY
Coulomb
SciTegic.value.DoubleValue
0.361

@<SCITEGIC>MOL_PROPERTY
VdW
SciTegic.value.DoubleValue
0.335

@<SCITEGIC>MOL_PROPERTY
VdW6
SciTegic.value.DoubleValue
-7.385

@<SCITEGIC>MOL_PROPERTY
VdW12
SciTegic.value.DoubleValue
7.720

@<SCITEGIC>MOL_PROPERTY
Bond
SciTegic.value.DoubleValue
0.125

@<SCITEGIC>MOL_PROPERTY
Angle
SciTegic.value.DoubleValue
2.487

@<SCITEGIC>MOL_PROPERTY
Pdih
SciTegic.value.DoubleValue
6.870

@<SCITEGIC>MOL_PROPERTY
Idih
SciTegic.value.DoubleValue
0.001

@<SCITEGIC>MOL_PROPERTY
Tether
SciTegic.value.DoubleValue
0.000

@<TRIPOS>MOLECULE
guest-s22_confgen4.mol2 : confsearch ligand conformer 718
          20          19           1
SMALL
USER_CHARGES
 
@<TRIPOS>ATOM
       1    C1      19.528492   16.989902   24.351836 C.2        1 MOL1        -0.2535
       2    H1      20.338951   16.320111   24.068943 H          1 MOL1         0.0845
       3    H2      18.659689   16.548353   24.837008 H          1 MOL1         0.0845
       4    C2      19.592196   18.302123   24.111602 C.2        1 MOL1        -0.1324
       5    H3      18.770821   18.954970   24.405508 H          1 MOL1         0.0833
       6    C3      20.768290   18.986122   23.447729 C.3        1 MOL1        -0.1813
       7    H4      21.654808   18.340391   23.508041 H          1 MOL1         0.0753
       8    H5      21.021067   19.906518   23.990842 H          1 MOL1         0.0753
       9    C4      20.495598   19.314909   21.962563 C.3        1 MOL1        -0.1855
      10    H6      21.423055   19.686474   21.505936 H          1 MOL1         0.0755
      11    H7      20.232191   18.391368   21.428437 H          1 MOL1         0.0755
      12    C5      19.379530   20.369901   21.775176 C.3        1 MOL1        -0.1855
      13    H8      19.630387   21.269457   22.353259 H          1 MOL1         0.0755
      14    H9      18.430558   19.989366   22.176998 H          1 MOL1         0.0755
      15    C6      19.179103   20.766238   20.289377 C.3        1 MOL1        -0.1958
      16    H10     18.464072   21.594812   20.224548 H          1 MOL1         0.0753
      17    H11     20.122602   21.127063   19.862320 H          1 MOL1         0.0753
      18    C7      18.648883   19.635408   19.412492 C.2        1 MOL1         0.6174
      19    O1      17.465602   19.366164   19.479270 O.co2      1 MOL1        -0.6695
      20    O2      19.427579   19.067141   18.672337 O.co2      1 MOL1        -0.6695
@<TRIPOS>BOND
    1     1     2    1
    2     1     3    1
    3     1     4    2
    4     4     5    1
    5     4     6    1
    6     6     7    1
    7     6     8    1
    8     6     9    1
    9     9    10    1
   10     9    11    1
   11     9    12    1
   12    12    13    1
   13    12    14    1
   14    12    15    1
   15    15    16    1
   16    15    17    1
   17    15    18    1
   18    18    19    1
   19    18    20    2
@<TRIPOS>SUBSTRUCTURE
       1 MOL1            1 RESIDUE      1      MOL     
@<SCITEGIC>MOL_PROPERTY
VConf Rank
SciTegic.value.IntegerValue
718

@<SCITEGIC>MOL_PROPERTY
Conf_Id
SciTegic.value.IntegerValue
87

@<SCITEGIC>MOL_PROPERTY
Delta U+W
SciTegic.value.DoubleValue
0.339

@<SCITEGIC>MOL_PROPERTY
U+W
SciTegic.value.DoubleValue
-51.407

@<SCITEGIC>MOL_PROPERTY
Grad RMS
SciTegic.value.DoubleValue
0.000000

@<SCITEGIC>MOL_PROPERTY
U
SciTegic.value.DoubleValue
10.461

@<SCITEGIC>MOL_PROPERTY
W
SciTegic.value.DoubleValue
-61.867

@<SCITEGIC>MOL_PROPERTY
W(PB)
SciTegic.value.DoubleValue
-64.045

@<SCITEGIC>MOL_PROPERTY
W(SA)
SciTegic.value.DoubleValue
2.178

@<SCITEGIC>MOL_PROPERTY
Valence
SciTegic.value.DoubleValue
9.555

@<SCITEGIC>MOL_PROPERTY
Coulomb
SciTegic.value.DoubleValue
0.483

@<SCITEGIC>MOL_PROPERTY
VdW
SciTegic.value.DoubleValue
0.423

@<SCITEGIC>MOL_PROPERTY
VdW6
SciTegic.value.DoubleValue
-7.223

@<SCITEGIC>MOL_PROPERTY
VdW12
SciTegic.value.DoubleValue
7.646

@<SCITEGIC>MOL_PROPERTY
Bond
SciTegic.value.DoubleValue
0.126

@<SCITEGIC>MOL_PROPERTY
Angle
SciTegic.value.DoubleValue
2.492

@<SCITEGIC>MOL_PROPERTY
Pdih
SciTegic.value.DoubleValue
6.936

@<SCITEGIC>MOL_PROPERTY
Idih
SciTegic.value.DoubleValue
0.001

@<SCITEGIC>MOL_PROPERTY
Tether
SciTegic.value.DoubleValue
0.000

@<TRIPOS>MOLECULE
guest-s22_confgen4.mol2 : confsearch ligand conformer 719
          20          19           1
SMALL
USER_CHARGES
 
@<TRIPOS>ATOM
       1    C1      16.783618   18.751334   22.369251 C.2        1 MOL1        -0.2535
       2    H1      16.530285   17.783911   21.938750 H          1 MOL1         0.0845
       3    H2      16.236629   19.064901   23.256662 H          1 MOL1         0.0845
       4    C2      17.730824   19.524648   21.832129 C.2        1 MOL1        -0.1324
       5    H3      17.963824   20.493620   22.272121 H          1 MOL1         0.0833
       6    C3      18.520678   19.157952   20.593875 C.3        1 MOL1        -0.1813
       7    H4      18.969527   20.056089   20.149107 H          1 MOL1         0.0753
       8    H5      17.823758   18.768594   19.839481 H          1 MOL1         0.0753
       9    C4      19.613333   18.090330   20.849715 C.3        1 MOL1        -0.1855
      10    H6      19.204795   17.273381   21.460147 H          1 MOL1         0.0755
      11    H7      19.877862   17.640500   19.883065 H          1 MOL1         0.0755
      12    C5      20.917290   18.631307   21.488572 C.3        1 MOL1        -0.1855
      13    H8      21.315290   19.457114   20.883031 H          1 MOL1         0.0755
      14    H9      21.673138   17.834365   21.455911 H          1 MOL1         0.0755
      15    C6      20.761195   19.095342   22.959480 C.3        1 MOL1        -0.1958
      16    H10     20.128517   19.986700   23.016749 H          1 MOL1         0.0753
      17    H11     20.278193   18.311956   23.555584 H          1 MOL1         0.0753
      18    C7      22.094447   19.436300   23.615083 C.2        1 MOL1         0.6174
      19    O1      22.513551   20.571910   23.507234 O.co2      1 MOL1        -0.6695
      20    O2      22.689603   18.552056   24.198849 O.co2      1 MOL1        -0.6695
@<TRIPOS>BOND
    1     1     2    1
    2     1     3    1
    3     1     4    2
    4     4     5    1
    5     4     6    1
    6     6     7    1
    7     6     8    1
    8     6     9    1
    9     9    10    1
   10     9    11    1
   11     9    12    1
   12    12    13    1
   13    12    14    1
   14    12    15    1
   15    15    16    1
   16    15    17    1
   17    15    18    1
   18    18    19    1
   19    18    20    2
@<TRIPOS>SUBSTRUCTURE
       1 MOL1            1 RESIDUE      1      MOL     
@<SCITEGIC>MOL_PROPERTY
VConf Rank
SciTegic.value.IntegerValue
719

@<SCITEGIC>MOL_PROPERTY
Conf_Id
SciTegic.value.IntegerValue
51

@<SCITEGIC>MOL_PROPERTY
Delta U+W
SciTegic.value.DoubleValue
1.709

@<SCITEGIC>MOL_PROPERTY
U+W
SciTegic.value.DoubleValue
-50.036

@<SCITEGIC>MOL_PROPERTY
Grad RMS
SciTegic.value.DoubleValue
0.000000

@<SCITEGIC>MOL_PROPERTY
U
SciTegic.value.DoubleValue
10.643

@<SCITEGIC>MOL_PROPERTY
W
SciTegic.value.DoubleValue
-60.679

@<SCITEGIC>MOL_PROPERTY
W(PB)
SciTegic.value.DoubleValue
-62.882

@<SCITEGIC>MOL_PROPERTY
W(SA)
SciTegic.value.DoubleValue
2.203

@<SCITEGIC>MOL_PROPERTY
Valence
SciTegic.value.DoubleValue
11.231

@<SCITEGIC>MOL_PROPERTY
Coulomb
SciTegic.value.DoubleValue
-1.077

@<SCITEGIC>MOL_PROPERTY
VdW
SciTegic.value.DoubleValue
0.489

@<SCITEGIC>MOL_PROPERTY
VdW6
SciTegic.value.DoubleValue
-7.546

@<SCITEGIC>MOL_PROPERTY
VdW12
SciTegic.value.DoubleValue
8.035

@<SCITEGIC>MOL_PROPERTY
Bond
SciTegic.value.DoubleValue
0.159

@<SCITEGIC>MOL_PROPERTY
Angle
SciTegic.value.DoubleValue
3.005

@<SCITEGIC>MOL_PROPERTY
Pdih
SciTegic.value.DoubleValue
8.065

@<SCITEGIC>MOL_PROPERTY
Idih
SciTegic.value.DoubleValue
0.002

@<SCITEGIC>MOL_PROPERTY
Tether
SciTegic.value.DoubleValue
0.000

@<TRIPOS>MOLECULE
guest-s22_confgen4.mol2 : confsearch ligand conformer 720
          20          19           1
SMALL
USER_CHARGES
 
@<TRIPOS>ATOM
       1    C1      18.329821   21.235154   23.322792 C.2        1 MOL1        -0.2535
       2    H1      17.275337   21.059550   23.116290 H          1 MOL1         0.0845
       3    H2      18.665498   22.269258   23.377303 H          1 MOL1         0.0845
       4    C2      19.181569   20.221858   23.500188 C.2        1 MOL1        -0.1324
       5    H3      20.231467   20.417887   23.714854 H          1 MOL1         0.0833
       6    C3      18.782110   18.762546   23.450775 C.3        1 MOL1        -0.1813
       7    H4      17.857936   18.635141   24.030497 H          1 MOL1         0.0753
       8    H5      19.537069   18.144215   23.954402 H          1 MOL1         0.0753
       9    C4      18.537172   18.235571   22.014992 C.3        1 MOL1        -0.1855
      10    H6      17.931535   17.322165   22.090015 H          1 MOL1         0.0755
      11    H7      17.928698   18.954583   21.449562 H          1 MOL1         0.0755
      12    C5      19.820658   17.884247   21.221052 C.3        1 MOL1        -0.1855
      13    H8      19.524371   17.359146   20.302373 H          1 MOL1         0.0755
      14    H9      20.433280   17.176042   21.795664 H          1 MOL1         0.0755
      15    C6      20.680953   19.111651   20.825275 C.3        1 MOL1        -0.1958
      16    H10     20.058928   19.868358   20.332526 H          1 MOL1         0.0753
      17    H11     21.119497   19.576853   21.713729 H          1 MOL1         0.0753
      18    C7      21.824733   18.751516   19.884164 C.2        1 MOL1         0.6174
      19    O1      22.885001   18.413104   20.372221 O.co2      1 MOL1        -0.6695
      20    O2      21.619610   18.798934   18.687268 O.co2      1 MOL1        -0.6695
@<TRIPOS>BOND
    1     1     2    1
    2     1     3    1
    3     1     4    2
    4     4     5    1
    5     4     6    1
    6     6     7    1
    7     6     8    1
    8     6     9    1
    9     9    10    1
   10     9    11    1
   11     9    12    1
   12    12    13    1
   13    12    14    1
   14    12    15    1
   15    15    16    1
   16    15    17    1
   17    15    18    1
   18    18    19    1
   19    18    20    2
@<TRIPOS>SUBSTRUCTURE
       1 MOL1            1 RESIDUE      1      MOL     
@<SCITEGIC>MOL_PROPERTY
VConf Rank
SciTegic.value.IntegerValue
720

@<SCITEGIC>MOL_PROPERTY
Conf_Id
SciTegic.value.IntegerValue
91

@<SCITEGIC>MOL_PROPERTY
Delta U+W
SciTegic.value.DoubleValue
1.604

@<SCITEGIC>MOL_PROPERTY
U+W
SciTegic.value.DoubleValue
-50.141

@<SCITEGIC>MOL_PROPERTY
Grad RMS
SciTegic.value.DoubleValue
0.000000

@<SCITEGIC>MOL_PROPERTY
U
SciTegic.value.DoubleValue
10.644

@<SCITEGIC>MOL_PROPERTY
W
SciTegic.value.DoubleValue
-60.786

@<SCITEGIC>MOL_PROPERTY
W(PB)
SciTegic.value.DoubleValue
-62.965

@<SCITEGIC>MOL_PROPERTY
W(SA)
SciTegic.value.DoubleValue
2.179

@<SCITEGIC>MOL_PROPERTY
Valence
SciTegic.value.DoubleValue
11.230

@<SCITEGIC>MOL_PROPERTY
Coulomb
SciTegic.value.DoubleValue
-1.075

@<SCITEGIC>MOL_PROPERTY
VdW
SciTegic.value.DoubleValue
0.489

@<SCITEGIC>MOL_PROPERTY
VdW6
SciTegic.value.DoubleValue
-7.547

@<SCITEGIC>MOL_PROPERTY
VdW12
SciTegic.value.DoubleValue
8.036

@<SCITEGIC>MOL_PROPERTY
Bond
SciTegic.value.DoubleValue
0.159

@<SCITEGIC>MOL_PROPERTY
Angle
SciTegic.value.DoubleValue
3.006

@<SCITEGIC>MOL_PROPERTY
Pdih
SciTegic.value.DoubleValue
8.064

@<SCITEGIC>MOL_PROPERTY
Idih
SciTegic.value.DoubleValue
0.002

@<SCITEGIC>MOL_PROPERTY
Tether
SciTegic.value.DoubleValue
0.000

@<TRIPOS>MOLECULE
guest-s22_confgen4.mol2 : confsearch ligand conformer 721
          20          19           1
SMALL
USER_CHARGES
 
@<TRIPOS>ATOM
       1    C1      21.830237   18.580303   24.937423 C.2        1 MOL1        -0.2535
       2    H1      22.373391   19.483790   24.664868 H          1 MOL1         0.0845
       3    H2      22.311473   17.898118   25.636216 H          1 MOL1         0.0845
       4    C2      20.621924   18.314218   24.434602 C.2        1 MOL1        -0.1324
       5    H3      20.095367   17.403710   24.719857 H          1 MOL1         0.0833
       6    C3      19.891825   19.213205   23.461761 C.3        1 MOL1        -0.1813
       7    H4      20.361955   20.205705   23.434791 H          1 MOL1         0.0753
       8    H5      18.858769   19.362238   23.803414 H          1 MOL1         0.0753
       9    C4      19.885393   18.608919   22.042018 C.3        1 MOL1        -0.1855
      10    H6      20.920872   18.457989   21.706772 H          1 MOL1         0.0755
      11    H7      19.410995   17.618265   22.068693 H          1 MOL1         0.0755
      12    C5      19.140800   19.513427   21.035757 C.3        1 MOL1        -0.1855
      13    H8      19.615030   20.504329   21.008158 H          1 MOL1         0.0755
      14    H9      18.105503   19.665764   21.371134 H          1 MOL1         0.0755
      15    C6      19.135195   18.905646   19.607832 C.3        1 MOL1        -0.1958
      16    H10     20.165592   18.756895   19.264219 H          1 MOL1         0.0753
      17    H11     18.657490   17.919061   19.626699 H          1 MOL1         0.0753
      18    C7      18.416526   19.740075   18.546437 C.2        1 MOL1         0.6174
      19    O1      18.390090   19.295659   17.415980 O.co2      1 MOL1        -0.6695
      20    O2      17.904649   20.798626   18.856437 O.co2      1 MOL1        -0.6695
@<TRIPOS>BOND
    1     1     2    1
    2     1     3    1
    3     1     4    2
    4     4     5    1
    5     4     6    1
    6     6     7    1
    7     6     8    1
    8     6     9    1
    9     9    10    1
   10     9    11    1
   11     9    12    1
   12    12    13    1
   13    12    14    1
   14    12    15    1
   15    15    16    1
   16    15    17    1
   17    15    18    1
   18    18    19    1
   19    18    20    2
@<TRIPOS>SUBSTRUCTURE
       1 MOL1            1 RESIDUE      1      MOL     
@<SCITEGIC>MOL_PROPERTY
VConf Rank
SciTegic.value.IntegerValue
721

@<SCITEGIC>MOL_PROPERTY
Conf_Id
SciTegic.value.IntegerValue
33

@<SCITEGIC>MOL_PROPERTY
Delta U+W
SciTegic.value.DoubleValue
0.000

@<SCITEGIC>MOL_PROPERTY
U+W
SciTegic.value.DoubleValue
-51.745

@<SCITEGIC>MOL_PROPERTY
Grad RMS
SciTegic.value.DoubleValue
0.000000

@<SCITEGIC>MOL_PROPERTY
U
SciTegic.value.DoubleValue
7.593

@<SCITEGIC>MOL_PROPERTY
W
SciTegic.value.DoubleValue
-59.338

@<SCITEGIC>MOL_PROPERTY
W(PB)
SciTegic.value.DoubleValue
-61.574

@<SCITEGIC>MOL_PROPERTY
W(SA)
SciTegic.value.DoubleValue
2.236

@<SCITEGIC>MOL_PROPERTY
Valence
SciTegic.value.DoubleValue
9.570

@<SCITEGIC>MOL_PROPERTY
Coulomb
SciTegic.value.DoubleValue
-3.091

@<SCITEGIC>MOL_PROPERTY
VdW
SciTegic.value.DoubleValue
1.114

@<SCITEGIC>MOL_PROPERTY
VdW6
SciTegic.value.DoubleValue
-6.064

@<SCITEGIC>MOL_PROPERTY
VdW12
SciTegic.value.DoubleValue
7.178

@<SCITEGIC>MOL_PROPERTY
Bond
SciTegic.value.DoubleValue
0.117

@<SCITEGIC>MOL_PROPERTY
Angle
SciTegic.value.DoubleValue
2.692

@<SCITEGIC>MOL_PROPERTY
Pdih
SciTegic.value.DoubleValue
6.761

@<SCITEGIC>MOL_PROPERTY
Idih
SciTegic.value.DoubleValue
0.000

@<SCITEGIC>MOL_PROPERTY
Tether
SciTegic.value.DoubleValue
0.000

@<TRIPOS>MOLECULE
guest-s22_confgen4.mol2 : confsearch ligand conformer 722
          20          19           1
SMALL
USER_CHARGES
 
@<TRIPOS>ATOM
       1    C1      21.590516   16.265065   20.514360 C.2        1 MOL1        -0.2535
       2    H1      22.443747   16.928113   20.380410 H          1 MOL1         0.0845
       3    H2      21.645725   15.278888   20.056468 H          1 MOL1         0.0845
       4    C2      20.515287   16.643631   21.210237 C.2        1 MOL1        -0.1324
       5    H3      19.671320   15.964972   21.331780 H          1 MOL1         0.0833
       6    C3      20.367441   17.994593   21.874141 C.3        1 MOL1        -0.1813
       7    H4      21.340379   18.502151   21.922854 H          1 MOL1         0.0753
       8    H5      20.031522   17.852155   22.908993 H          1 MOL1         0.0753
       9    C4      19.361757   18.882483   21.107289 C.3        1 MOL1        -0.1855
      10    H6      19.672739   18.941048   20.055053 H          1 MOL1         0.0755
      11    H7      18.371087   18.407567   21.111817 H          1 MOL1         0.0755
      12    C5      19.252837   20.319618   21.670281 C.3        1 MOL1        -0.1855
      13    H8      18.609210   20.910928   21.004255 H          1 MOL1         0.0755
      14    H9      20.240624   20.800665   21.654037 H          1 MOL1         0.0755
      15    C6      18.671326   20.379251   23.106687 C.3        1 MOL1        -0.1958
      16    H10     17.703905   19.864469   23.145154 H          1 MOL1         0.0753
      17    H11     19.337618   19.874017   23.814880 H          1 MOL1         0.0753
      18    C7      18.467097   21.806943   23.600605 C.2        1 MOL1         0.6174
      19    O1      19.389522   22.353858   24.172202 O.co2      1 MOL1        -0.6695
      20    O2      17.397704   22.341635   23.383264 O.co2      1 MOL1        -0.6695
@<TRIPOS>BOND
    1     1     2    1
    2     1     3    1
    3     1     4    2
    4     4     5    1
    5     4     6    1
    6     6     7    1
    7     6     8    1
    8     6     9    1
    9     9    10    1
   10     9    11    1
   11     9    12    1
   12    12    13    1
   13    12    14    1
   14    12    15    1
   15    15    16    1
   16    15    17    1
   17    15    18    1
   18    18    19    1
   19    18    20    2
@<TRIPOS>SUBSTRUCTURE
       1 MOL1            1 RESIDUE      1      MOL     
@<SCITEGIC>MOL_PROPERTY
VConf Rank
SciTegic.value.IntegerValue
722

@<SCITEGIC>MOL_PROPERTY
Conf_Id
SciTegic.value.IntegerValue
37

@<SCITEGIC>MOL_PROPERTY
Delta U+W
SciTegic.value.DoubleValue
-0.384

@<SCITEGIC>MOL_PROPERTY
U+W
SciTegic.value.DoubleValue
-52.130

@<SCITEGIC>MOL_PROPERTY
Grad RMS
SciTegic.value.DoubleValue
0.000000

@<SCITEGIC>MOL_PROPERTY
U
SciTegic.value.DoubleValue
7.491

@<SCITEGIC>MOL_PROPERTY
W
SciTegic.value.DoubleValue
-59.621

@<SCITEGIC>MOL_PROPERTY
W(PB)
SciTegic.value.DoubleValue
-61.853

@<SCITEGIC>MOL_PROPERTY
W(SA)
SciTegic.value.DoubleValue
2.232

@<SCITEGIC>MOL_PROPERTY
Valence
SciTegic.value.DoubleValue
9.604

@<SCITEGIC>MOL_PROPERTY
Coulomb
SciTegic.value.DoubleValue
-2.799

@<SCITEGIC>MOL_PROPERTY
VdW
SciTegic.value.DoubleValue
0.686

@<SCITEGIC>MOL_PROPERTY
VdW6
SciTegic.value.DoubleValue
-6.435

@<SCITEGIC>MOL_PROPERTY
VdW12
SciTegic.value.DoubleValue
7.121

@<SCITEGIC>MOL_PROPERTY
Bond
SciTegic.value.DoubleValue
0.124

@<SCITEGIC>MOL_PROPERTY
Angle
SciTegic.value.DoubleValue
2.493

@<SCITEGIC>MOL_PROPERTY
Pdih
SciTegic.value.DoubleValue
6.986

@<SCITEGIC>MOL_PROPERTY
Idih
SciTegic.value.DoubleValue
0.001

@<SCITEGIC>MOL_PROPERTY
Tether
SciTegic.value.DoubleValue
0.000

@<TRIPOS>MOLECULE
guest-s22_confgen4.mol2 : confsearch ligand conformer 723
          20          19           1
SMALL
USER_CHARGES
 
@<TRIPOS>ATOM
       1    C1      19.411249   18.637062   18.594517 C.2        1 MOL1        -0.2535
       2    H1      19.271604   18.509035   17.522463 H          1 MOL1         0.0845
       3    H2      20.391026   18.975332   18.924907 H          1 MOL1         0.0845
       4    C2      18.412712   18.384914   19.448484 C.2        1 MOL1        -0.1324
       5    H3      17.453014   18.048192   19.057042 H          1 MOL1         0.0833
       6    C3      18.456383   18.516535   20.961687 C.3        1 MOL1        -0.1813
       7    H4      18.196245   17.547284   21.407799 H          1 MOL1         0.0753
       8    H5      17.665834   19.209936   21.278485 H          1 MOL1         0.0753
       9    C4      19.810016   18.993205   21.538270 C.3        1 MOL1        -0.1855
      10    H6      20.602326   18.291988   21.242252 H          1 MOL1         0.0755
      11    H7      20.066173   19.972669   21.111515 H          1 MOL1         0.0755
      12    C5      19.770149   19.100290   23.078388 C.3        1 MOL1        -0.1855
      13    H8      19.514242   18.123308   23.511547 H          1 MOL1         0.0755
      14    H9      18.979182   19.800547   23.381069 H          1 MOL1         0.0755
      15    C6      21.124487   19.577448   23.658192 C.3        1 MOL1        -0.1958
      16    H10     21.923573   18.881351   23.376211 H          1 MOL1         0.0753
      17    H11     21.388532   20.558612   23.245639 H          1 MOL1         0.0753
      18    C7      21.110340   19.691278   25.178333 C.2        1 MOL1         0.6174
      19    O1      21.419961   18.713224   25.829635 O.co2      1 MOL1        -0.6695
      20    O2      20.771015   20.748930   25.671160 O.co2      1 MOL1        -0.6695
@<TRIPOS>BOND
    1     1     2    1
    2     1     3    1
    3     1     4    2
    4     4     5    1
    5     4     6    1
    6     6     7    1
    7     6     8    1
    8     6     9    1
    9     9    10    1
   10     9    11    1
   11     9    12    1
   12    12    13    1
   13    12    14    1
   14    12    15    1
   15    15    16    1
   16    15    17    1
   17    15    18    1
   18    18    19    1
   19    18    20    2
@<TRIPOS>SUBSTRUCTURE
       1 MOL1            1 RESIDUE      1      MOL     
@<SCITEGIC>MOL_PROPERTY
VConf Rank
SciTegic.value.IntegerValue
723

@<SCITEGIC>MOL_PROPERTY
Conf_Id
SciTegic.value.IntegerValue
44

@<SCITEGIC>MOL_PROPERTY
Delta U+W
SciTegic.value.DoubleValue
-1.440

@<SCITEGIC>MOL_PROPERTY
U+W
SciTegic.value.DoubleValue
-53.185

@<SCITEGIC>MOL_PROPERTY
Grad RMS
SciTegic.value.DoubleValue
0.000000

@<SCITEGIC>MOL_PROPERTY
U
SciTegic.value.DoubleValue
6.572

@<SCITEGIC>MOL_PROPERTY
W
SciTegic.value.DoubleValue
-59.757

@<SCITEGIC>MOL_PROPERTY
W(PB)
SciTegic.value.DoubleValue
-62.007

@<SCITEGIC>MOL_PROPERTY
W(SA)
SciTegic.value.DoubleValue
2.249

@<SCITEGIC>MOL_PROPERTY
Valence
SciTegic.value.DoubleValue
7.989

@<SCITEGIC>MOL_PROPERTY
Coulomb
SciTegic.value.DoubleValue
-2.697

@<SCITEGIC>MOL_PROPERTY
VdW
SciTegic.value.DoubleValue
1.281

@<SCITEGIC>MOL_PROPERTY
VdW6
SciTegic.value.DoubleValue
-6.467

@<SCITEGIC>MOL_PROPERTY
VdW12
SciTegic.value.DoubleValue
7.748

@<SCITEGIC>MOL_PROPERTY
Bond
SciTegic.value.DoubleValue
0.136

@<SCITEGIC>MOL_PROPERTY
Angle
SciTegic.value.DoubleValue
2.854

@<SCITEGIC>MOL_PROPERTY
Pdih
SciTegic.value.DoubleValue
4.997

@<SCITEGIC>MOL_PROPERTY
Idih
SciTegic.value.DoubleValue
0.001

@<SCITEGIC>MOL_PROPERTY
Tether
SciTegic.value.DoubleValue
0.000

@<TRIPOS>MOLECULE
guest-s22_confgen4.mol2 : confsearch ligand conformer 724
          20          19           1
SMALL
USER_CHARGES
 
@<TRIPOS>ATOM
       1    C1      19.388607   17.172950   24.797949 C.2        1 MOL1        -0.2535
       2    H1      18.523496   17.826699   24.896814 H          1 MOL1         0.0845
       3    H2      19.679670   16.591741   25.671295 H          1 MOL1         0.0845
       4    C2      20.070475   17.086426   23.652835 C.2        1 MOL1        -0.1324
       5    H3      20.934023   16.426214   23.575111 H          1 MOL1         0.0833
       6    C3      19.725396   17.860497   22.399986 C.3        1 MOL1        -0.1813
       7    H4      18.711864   18.273136   22.484145 H          1 MOL1         0.0753
       8    H5      19.720411   17.179858   21.538222 H          1 MOL1         0.0753
       9    C4      20.739809   19.000099   22.154559 C.3        1 MOL1        -0.1855
      10    H6      20.704743   19.710149   22.992289 H          1 MOL1         0.0755
      11    H7      21.754131   18.577961   22.148519 H          1 MOL1         0.0755
      12    C5      20.511786   19.753821   20.822557 C.3        1 MOL1        -0.1855
      13    H8      20.556240   19.046379   19.982960 H          1 MOL1         0.0755
      14    H9      21.337475   20.463495   20.673893 H          1 MOL1         0.0755
      15    C6      19.171543   20.532531   20.773386 C.3        1 MOL1        -0.1958
      16    H10     18.321459   19.843218   20.827304 H          1 MOL1         0.0753
      17    H11     19.096144   21.210776   21.631695 H          1 MOL1         0.0753
      18    C7      19.017179   21.359666   19.502185 C.2        1 MOL1         0.6174
      19    O1      19.426340   22.503900   19.509129 O.co2      1 MOL1        -0.6695
      20    O2      18.509993   20.831830   18.532203 O.co2      1 MOL1        -0.6695
@<TRIPOS>BOND
    1     1     2    1
    2     1     3    1
    3     1     4    2
    4     4     5    1
    5     4     6    1
    6     6     7    1
    7     6     8    1
    8     6     9    1
    9     9    10    1
   10     9    11    1
   11     9    12    1
   12    12    13    1
   13    12    14    1
   14    12    15    1
   15    15    16    1
   16    15    17    1
   17    15    18    1
   18    18    19    1
   19    18    20    2
@<TRIPOS>SUBSTRUCTURE
       1 MOL1            1 RESIDUE      1      MOL     
@<SCITEGIC>MOL_PROPERTY
VConf Rank
SciTegic.value.IntegerValue
724

@<SCITEGIC>MOL_PROPERTY
Conf_Id
SciTegic.value.IntegerValue
38

@<SCITEGIC>MOL_PROPERTY
Delta U+W
SciTegic.value.DoubleValue
-0.381

@<SCITEGIC>MOL_PROPERTY
U+W
SciTegic.value.DoubleValue
-52.126

@<SCITEGIC>MOL_PROPERTY
Grad RMS
SciTegic.value.DoubleValue
0.000000

@<SCITEGIC>MOL_PROPERTY
U
SciTegic.value.DoubleValue
7.601

@<SCITEGIC>MOL_PROPERTY
W
SciTegic.value.DoubleValue
-59.727

@<SCITEGIC>MOL_PROPERTY
W(PB)
SciTegic.value.DoubleValue
-61.964

@<SCITEGIC>MOL_PROPERTY
W(SA)
SciTegic.value.DoubleValue
2.236

@<SCITEGIC>MOL_PROPERTY
Valence
SciTegic.value.DoubleValue
9.602

@<SCITEGIC>MOL_PROPERTY
Coulomb
SciTegic.value.DoubleValue
-2.686

@<SCITEGIC>MOL_PROPERTY
VdW
SciTegic.value.DoubleValue
0.685

@<SCITEGIC>MOL_PROPERTY
VdW6
SciTegic.value.DoubleValue
-6.453

@<SCITEGIC>MOL_PROPERTY
VdW12
SciTegic.value.DoubleValue
7.139

@<SCITEGIC>MOL_PROPERTY
Bond
SciTegic.value.DoubleValue
0.125

@<SCITEGIC>MOL_PROPERTY
Angle
SciTegic.value.DoubleValue
2.485

@<SCITEGIC>MOL_PROPERTY
Pdih
SciTegic.value.DoubleValue
6.991

@<SCITEGIC>MOL_PROPERTY
Idih
SciTegic.value.DoubleValue
0.001

@<SCITEGIC>MOL_PROPERTY
Tether
SciTegic.value.DoubleValue
0.000

@<TRIPOS>MOLECULE
guest-s22_confgen4.mol2 : confsearch ligand conformer 725
          20          19           1
SMALL
USER_CHARGES
 
@<TRIPOS>ATOM
       1    C1      21.556510   19.936460   19.068025 C.2        1 MOL1        -0.2535
       2    H1      22.377765   20.393182   19.618046 H          1 MOL1         0.0845
       3    H2      21.768629   19.567672   18.065892 H          1 MOL1         0.0845
       4    C2      20.335807   19.828703   19.599000 C.2        1 MOL1        -0.1324
       5    H3      19.527661   19.367232   19.031897 H          1 MOL1         0.0833
       6    C3      19.966614   20.317497   20.981905 C.3        1 MOL1        -0.1813
       7    H4      19.044353   20.911306   20.927570 H          1 MOL1         0.0753
       8    H5      20.748886   20.983180   21.371337 H          1 MOL1         0.0753
       9    C4      19.764614   19.136813   21.954629 C.3        1 MOL1        -0.1855
      10    H6      18.980157   18.473873   21.564027 H          1 MOL1         0.0755
      11    H7      20.687526   18.542505   22.002629 H          1 MOL1         0.0755
      12    C5      19.383690   19.619074   23.372604 C.3        1 MOL1        -0.1855
      13    H8      18.455020   20.205097   23.329668 H          1 MOL1         0.0755
      14    H9      20.165628   20.292923   23.748214 H          1 MOL1         0.0755
      15    C6      19.205872   18.447627   24.373098 C.3        1 MOL1        -0.1958
      16    H10     20.115815   17.836274   24.406393 H          1 MOL1         0.0753
      17    H11     19.054952   18.847572   25.382674 H          1 MOL1         0.0753
      18    C7      18.020014   17.539523   24.060123 C.2        1 MOL1         0.6174
      19    O1      18.242917   16.447645   23.575265 O.co2      1 MOL1        -0.6695
      20    O2      16.904283   17.945075   24.320447 O.co2      1 MOL1        -0.6695
@<TRIPOS>BOND
    1     1     2    1
    2     1     3    1
    3     1     4    2
    4     4     5    1
    5     4     6    1
    6     6     7    1
    7     6     8    1
    8     6     9    1
    9     9    10    1
   10     9    11    1
   11     9    12    1
   12    12    13    1
   13    12    14    1
   14    12    15    1
   15    15    16    1
   16    15    17    1
   17    15    18    1
   18    18    19    1
   19    18    20    2
@<TRIPOS>SUBSTRUCTURE
       1 MOL1            1 RESIDUE      1      MOL     
@<SCITEGIC>MOL_PROPERTY
VConf Rank
SciTegic.value.IntegerValue
725

@<SCITEGIC>MOL_PROPERTY
Conf_Id
SciTegic.value.IntegerValue
58

@<SCITEGIC>MOL_PROPERTY
Delta U+W
SciTegic.value.DoubleValue
0.019

@<SCITEGIC>MOL_PROPERTY
U+W
SciTegic.value.DoubleValue
-51.727

@<SCITEGIC>MOL_PROPERTY
Grad RMS
SciTegic.value.DoubleValue
0.000000

@<SCITEGIC>MOL_PROPERTY
U
SciTegic.value.DoubleValue
8.963

@<SCITEGIC>MOL_PROPERTY
W
SciTegic.value.DoubleValue
-60.690

@<SCITEGIC>MOL_PROPERTY
W(PB)
SciTegic.value.DoubleValue
-62.934

@<SCITEGIC>MOL_PROPERTY
W(SA)
SciTegic.value.DoubleValue
2.244

@<SCITEGIC>MOL_PROPERTY
Valence
SciTegic.value.DoubleValue
9.327

@<SCITEGIC>MOL_PROPERTY
Coulomb
SciTegic.value.DoubleValue
-0.780

@<SCITEGIC>MOL_PROPERTY
VdW
SciTegic.value.DoubleValue
0.417

@<SCITEGIC>MOL_PROPERTY
VdW6
SciTegic.value.DoubleValue
-6.635

@<SCITEGIC>MOL_PROPERTY
VdW12
SciTegic.value.DoubleValue
7.052

@<SCITEGIC>MOL_PROPERTY
Bond
SciTegic.value.DoubleValue
0.105

@<SCITEGIC>MOL_PROPERTY
Angle
SciTegic.value.DoubleValue
2.399

@<SCITEGIC>MOL_PROPERTY
Pdih
SciTegic.value.DoubleValue
6.822

@<SCITEGIC>MOL_PROPERTY
Idih
SciTegic.value.DoubleValue
0.000

@<SCITEGIC>MOL_PROPERTY
Tether
SciTegic.value.DoubleValue
0.000

@<TRIPOS>MOLECULE
guest-s22_confgen4.mol2 : confsearch ligand conformer 726
          20          19           1
SMALL
USER_CHARGES
 
@<TRIPOS>ATOM
       1    C1      16.490363   18.153704   23.004277 C.2        1 MOL1        -0.2535
       2    H1      16.863250   17.624157   23.879554 H          1 MOL1         0.0845
       3    H2      15.520931   17.851768   22.611462 H          1 MOL1         0.0845
       4    C2      17.192591   19.134063   22.430310 C.2        1 MOL1        -0.1324
       5    H3      16.801694   19.650934   21.554122 H          1 MOL1         0.0833
       6    C3      18.543280   19.607719   22.919118 C.3        1 MOL1        -0.1813
       7    H4      18.738075   19.223552   23.929667 H          1 MOL1         0.0753
       8    H5      18.544023   20.703545   22.991860 H          1 MOL1         0.0753
       9    C4      19.670718   19.151979   21.969278 C.3        1 MOL1        -0.1855
      10    H6      19.663754   18.055731   21.895366 H          1 MOL1         0.0755
      11    H7      19.474724   19.539411   20.959865 H          1 MOL1         0.0755
      12    C5      21.058265   19.630613   22.452962 C.3        1 MOL1        -0.1855
      13    H8      21.238502   19.251681   23.468102 H          1 MOL1         0.0755
      14    H9      21.072021   20.727566   22.517773 H          1 MOL1         0.0755
      15    C6      22.208602   19.156437   21.527340 C.3        1 MOL1        -0.1958
      16    H10     23.173153   19.419727   21.977114 H          1 MOL1         0.0753
      17    H11     22.191044   18.064141   21.430182 H          1 MOL1         0.0753
      18    C7      22.173711   19.770393   20.130663 C.2        1 MOL1         0.6174
      19    O1      22.533116   20.924429   20.003682 O.co2      1 MOL1        -0.6695
      20    O2      21.799269   19.076649   19.205740 O.co2      1 MOL1        -0.6695
@<TRIPOS>BOND
    1     1     2    1
    2     1     3    1
    3     1     4    2
    4     4     5    1
    5     4     6    1
    6     6     7    1
    7     6     8    1
    8     6     9    1
    9     9    10    1
   10     9    11    1
   11     9    12    1
   12    12    13    1
   13    12    14    1
   14    12    15    1
   15    15    16    1
   16    15    17    1
   17    15    18    1
   18    18    19    1
   19    18    20    2
@<TRIPOS>SUBSTRUCTURE
       1 MOL1            1 RESIDUE      1      MOL     
@<SCITEGIC>MOL_PROPERTY
VConf Rank
SciTegic.value.IntegerValue
726

@<SCITEGIC>MOL_PROPERTY
Conf_Id
SciTegic.value.IntegerValue
54

@<SCITEGIC>MOL_PROPERTY
Delta U+W
SciTegic.value.DoubleValue
-0.048

@<SCITEGIC>MOL_PROPERTY
U+W
SciTegic.value.DoubleValue
-51.793

@<SCITEGIC>MOL_PROPERTY
Grad RMS
SciTegic.value.DoubleValue
0.000000

@<SCITEGIC>MOL_PROPERTY
U
SciTegic.value.DoubleValue
8.964

@<SCITEGIC>MOL_PROPERTY
W
SciTegic.value.DoubleValue
-60.756

@<SCITEGIC>MOL_PROPERTY
W(PB)
SciTegic.value.DoubleValue
-63.007

@<SCITEGIC>MOL_PROPERTY
W(SA)
SciTegic.value.DoubleValue
2.251

@<SCITEGIC>MOL_PROPERTY
Valence
SciTegic.value.DoubleValue
9.327

@<SCITEGIC>MOL_PROPERTY
Coulomb
SciTegic.value.DoubleValue
-0.780

@<SCITEGIC>MOL_PROPERTY
VdW
SciTegic.value.DoubleValue
0.417

@<SCITEGIC>MOL_PROPERTY
VdW6
SciTegic.value.DoubleValue
-6.635

@<SCITEGIC>MOL_PROPERTY
VdW12
SciTegic.value.DoubleValue
7.052

@<SCITEGIC>MOL_PROPERTY
Bond
SciTegic.value.DoubleValue
0.105

@<SCITEGIC>MOL_PROPERTY
Angle
SciTegic.value.DoubleValue
2.399

@<SCITEGIC>MOL_PROPERTY
Pdih
SciTegic.value.DoubleValue
6.822

@<SCITEGIC>MOL_PROPERTY
Idih
SciTegic.value.DoubleValue
0.000

@<SCITEGIC>MOL_PROPERTY
Tether
SciTegic.value.DoubleValue
0.000

@<TRIPOS>MOLECULE
guest-s22_confgen4.mol2 : confsearch ligand conformer 727
          20          19           1
SMALL
USER_CHARGES
 
@<TRIPOS>ATOM
       1    C1      16.634546   17.867121   21.768666 C.2        1 MOL1        -0.2535
       2    H1      16.170640   16.934593   22.085479 H          1 MOL1         0.0845
       3    H2      16.042868   18.776807   21.857530 H          1 MOL1         0.0845
       4    C2      17.882245   17.890523   21.292880 C.2        1 MOL1        -0.1324
       5    H3      18.455712   16.967832   21.209045 H          1 MOL1         0.0833
       6    C3      18.588421   19.146253   20.827792 C.3        1 MOL1        -0.1813
       7    H4      17.847807   19.926493   20.605875 H          1 MOL1         0.0753
       8    H5      19.119529   18.950473   19.886708 H          1 MOL1         0.0753
       9    C4      19.578887   19.690072   21.882039 C.3        1 MOL1        -0.1855
      10    H6      19.949975   20.667352   21.544104 H          1 MOL1         0.0755
      11    H7      19.046294   19.867439   22.826509 H          1 MOL1         0.0755
      12    C5      20.777886   18.743054   22.126302 C.3        1 MOL1        -0.1855
      13    H8      21.302041   18.553836   21.179257 H          1 MOL1         0.0755
      14    H9      20.411129   17.772109   22.484420 H          1 MOL1         0.0755
      15    C6      21.781415   19.308422   23.164796 C.3        1 MOL1        -0.1958
      16    H10     21.265483   19.534154   24.105908 H          1 MOL1         0.0753
      17    H11     22.539356   18.549674   23.392352 H          1 MOL1         0.0753
      18    C7      22.516757   20.561916   22.699116 C.2        1 MOL1         0.6174
      19    O1      22.179541   21.633373   23.163137 O.co2      1 MOL1        -0.6695
      20    O2      23.415667   20.431467   21.891614 O.co2      1 MOL1        -0.6695
@<TRIPOS>BOND
    1     1     2    1
    2     1     3    1
    3     1     4    2
    4     4     5    1
    5     4     6    1
    6     6     7    1
    7     6     8    1
    8     6     9    1
    9     9    10    1
   10     9    11    1
   11     9    12    1
   12    12    13    1
   13    12    14    1
   14    12    15    1
   15    15    16    1
   16    15    17    1
   17    15    18    1
   18    18    19    1
   19    18    20    2
@<TRIPOS>SUBSTRUCTURE
       1 MOL1            1 RESIDUE      1      MOL     
@<SCITEGIC>MOL_PROPERTY
VConf Rank
SciTegic.value.IntegerValue
727

@<SCITEGIC>MOL_PROPERTY
Conf_Id
SciTegic.value.IntegerValue
27

@<SCITEGIC>MOL_PROPERTY
Delta U+W
SciTegic.value.DoubleValue
0.478

@<SCITEGIC>MOL_PROPERTY
U+W
SciTegic.value.DoubleValue
-51.267

@<SCITEGIC>MOL_PROPERTY
Grad RMS
SciTegic.value.DoubleValue
0.000000

@<SCITEGIC>MOL_PROPERTY
U
SciTegic.value.DoubleValue
9.192

@<SCITEGIC>MOL_PROPERTY
W
SciTegic.value.DoubleValue
-60.459

@<SCITEGIC>MOL_PROPERTY
W(PB)
SciTegic.value.DoubleValue
-62.649

@<SCITEGIC>MOL_PROPERTY
W(SA)
SciTegic.value.DoubleValue
2.190

@<SCITEGIC>MOL_PROPERTY
Valence
SciTegic.value.DoubleValue
9.572

@<SCITEGIC>MOL_PROPERTY
Coulomb
SciTegic.value.DoubleValue
-0.884

@<SCITEGIC>MOL_PROPERTY
VdW
SciTegic.value.DoubleValue
0.504

@<SCITEGIC>MOL_PROPERTY
VdW6
SciTegic.value.DoubleValue
-7.168

@<SCITEGIC>MOL_PROPERTY
VdW12
SciTegic.value.DoubleValue
7.672

@<SCITEGIC>MOL_PROPERTY
Bond
SciTegic.value.DoubleValue
0.127

@<SCITEGIC>MOL_PROPERTY
Angle
SciTegic.value.DoubleValue
2.504

@<SCITEGIC>MOL_PROPERTY
Pdih
SciTegic.value.DoubleValue
6.941

@<SCITEGIC>MOL_PROPERTY
Idih
SciTegic.value.DoubleValue
0.001

@<SCITEGIC>MOL_PROPERTY
Tether
SciTegic.value.DoubleValue
0.000

@<TRIPOS>MOLECULE
guest-s22_confgen4.mol2 : confsearch ligand conformer 728
          20          19           1
SMALL
USER_CHARGES
 
@<TRIPOS>ATOM
       1    C1      20.127205   16.224018   24.016098 C.2        1 MOL1        -0.2535
       2    H1      21.181385   15.956441   23.964970 H          1 MOL1         0.0845
       3    H2      19.419622   15.430666   24.250869 H          1 MOL1         0.0845
       4    C2      19.713785   17.474885   23.796798 C.2        1 MOL1        -0.1324
       5    H3      18.654130   17.721693   23.856034 H          1 MOL1         0.0833
       6    C3      20.638732   18.628562   23.472299 C.3        1 MOL1        -0.1813
       7    H4      21.663228   18.379770   23.780626 H          1 MOL1         0.0753
       8    H5      20.349723   19.514617   24.053196 H          1 MOL1         0.0753
       9    C4      20.644694   18.971781   21.965572 C.3        1 MOL1        -0.1855
      10    H6      21.426452   19.720096   21.776479 H          1 MOL1         0.0755
      11    H7      20.919093   18.077665   21.388885 H          1 MOL1         0.0755
      12    C5      19.287196   19.519622   21.468472 C.3        1 MOL1        -0.1855
      13    H8      19.001807   20.398277   22.063348 H          1 MOL1         0.0755
      14    H9      18.501944   18.765659   21.615453 H          1 MOL1         0.0755
      15    C6      19.338193   19.910525   19.970923 C.3        1 MOL1        -0.1958
      16    H10     20.105847   20.675784   19.804727 H          1 MOL1         0.0753
      17    H11     19.610363   19.040159   19.361828 H          1 MOL1         0.0753
      18    C7      18.009989   20.452913   19.455427 C.2        1 MOL1         0.6174
      19    O1      17.209241   19.664798   18.992459 O.co2      1 MOL1        -0.6695
      20    O2      17.804038   21.647054   19.546589 O.co2      1 MOL1        -0.6695
@<TRIPOS>BOND
    1     1     2    1
    2     1     3    1
    3     1     4    2
    4     4     5    1
    5     4     6    1
    6     6     7    1
    7     6     8    1
    8     6     9    1
    9     9    10    1
   10     9    11    1
   11     9    12    1
   12    12    13    1
   13    12    14    1
   14    12    15    1
   15    15    16    1
   16    15    17    1
   17    15    18    1
   18    18    19    1
   19    18    20    2
@<TRIPOS>SUBSTRUCTURE
       1 MOL1            1 RESIDUE      1      MOL     
@<SCITEGIC>MOL_PROPERTY
VConf Rank
SciTegic.value.IntegerValue
728

@<SCITEGIC>MOL_PROPERTY
Conf_Id
SciTegic.value.IntegerValue
41

@<SCITEGIC>MOL_PROPERTY
Delta U+W
SciTegic.value.DoubleValue
-0.634

@<SCITEGIC>MOL_PROPERTY
U+W
SciTegic.value.DoubleValue
-52.379

@<SCITEGIC>MOL_PROPERTY
Grad RMS
SciTegic.value.DoubleValue
0.000000

@<SCITEGIC>MOL_PROPERTY
U
SciTegic.value.DoubleValue
7.828

@<SCITEGIC>MOL_PROPERTY
W
SciTegic.value.DoubleValue
-60.207

@<SCITEGIC>MOL_PROPERTY
W(PB)
SciTegic.value.DoubleValue
-62.449

@<SCITEGIC>MOL_PROPERTY
W(SA)
SciTegic.value.DoubleValue
2.242

@<SCITEGIC>MOL_PROPERTY
Valence
SciTegic.value.DoubleValue
9.300

@<SCITEGIC>MOL_PROPERTY
Coulomb
SciTegic.value.DoubleValue
-2.080

@<SCITEGIC>MOL_PROPERTY
VdW
SciTegic.value.DoubleValue
0.608

@<SCITEGIC>MOL_PROPERTY
VdW6
SciTegic.value.DoubleValue
-6.341

@<SCITEGIC>MOL_PROPERTY
VdW12
SciTegic.value.DoubleValue
6.949

@<SCITEGIC>MOL_PROPERTY
Bond
SciTegic.value.DoubleValue
0.103

@<SCITEGIC>MOL_PROPERTY
Angle
SciTegic.value.DoubleValue
2.334

@<SCITEGIC>MOL_PROPERTY
Pdih
SciTegic.value.DoubleValue
6.862

@<SCITEGIC>MOL_PROPERTY
Idih
SciTegic.value.DoubleValue
0.001

@<SCITEGIC>MOL_PROPERTY
Tether
SciTegic.value.DoubleValue
0.000

@<TRIPOS>MOLECULE
guest-s22_confgen4.mol2 : confsearch ligand conformer 729
          20          19           1
SMALL
USER_CHARGES
 
@<TRIPOS>ATOM
       1    C1      17.352475   20.843289   23.300173 C.2        1 MOL1        -0.2535
       2    H1      16.614168   21.003627   24.084031 H          1 MOL1         0.0845
       3    H2      17.583943   21.685462   22.650003 H          1 MOL1         0.0845
       4    C2      17.950232   19.658835   23.146976 C.2        1 MOL1        -0.1324
       5    H3      17.705023   18.828431   23.808767 H          1 MOL1         0.0833
       6    C3      18.982708   19.361248   22.082535 C.3        1 MOL1        -0.1813
       7    H4      18.978087   20.149240   21.317406 H          1 MOL1         0.0753
       8    H5      18.717762   18.423627   21.576941 H          1 MOL1         0.0753
       9    C4      20.395701   19.246541   22.696918 C.3        1 MOL1        -0.1855
      10    H6      20.602564   20.153232   23.281964 H          1 MOL1         0.0755
      11    H7      20.420342   18.408856   23.407506 H          1 MOL1         0.0755
      12    C5      21.516744   19.073944   21.642562 C.3        1 MOL1        -0.1855
      13    H8      22.488426   19.078910   22.155588 H          1 MOL1         0.0755
      14    H9      21.519052   19.943415   20.971427 H          1 MOL1         0.0755
      15    C6      21.407261   17.776930   20.795103 C.3        1 MOL1        -0.1958
      16    H10     20.480542   17.773588   20.210138 H          1 MOL1         0.0753
      17    H11     22.230374   17.745668   20.071768 H          1 MOL1         0.0753
      18    C7      21.473304   16.490594   21.613466 C.2        1 MOL1         0.6174
      19    O1      22.544362   16.170008   22.090397 O.co2      1 MOL1        -0.6695
      20    O2      20.458130   15.834131   21.737691 O.co2      1 MOL1        -0.6695
@<TRIPOS>BOND
    1     1     2    1
    2     1     3    1
    3     1     4    2
    4     4     5    1
    5     4     6    1
    6     6     7    1
    7     6     8    1
    8     6     9    1
    9     9    10    1
   10     9    11    1
   11     9    12    1
   12    12    13    1
   13    12    14    1
   14    12    15    1
   15    15    16    1
   16    15    17    1
   17    15    18    1
   18    18    19    1
   19    18    20    2
@<TRIPOS>SUBSTRUCTURE
       1 MOL1            1 RESIDUE      1      MOL     
@<SCITEGIC>MOL_PROPERTY
VConf Rank
SciTegic.value.IntegerValue
729

@<SCITEGIC>MOL_PROPERTY
Conf_Id
SciTegic.value.IntegerValue
84

@<SCITEGIC>MOL_PROPERTY
Delta U+W
SciTegic.value.DoubleValue
0.942

@<SCITEGIC>MOL_PROPERTY
U+W
SciTegic.value.DoubleValue
-50.803

@<SCITEGIC>MOL_PROPERTY
Grad RMS
SciTegic.value.DoubleValue
0.000000

@<SCITEGIC>MOL_PROPERTY
U
SciTegic.value.DoubleValue
10.196

@<SCITEGIC>MOL_PROPERTY
W
SciTegic.value.DoubleValue
-60.999

@<SCITEGIC>MOL_PROPERTY
W(PB)
SciTegic.value.DoubleValue
-63.182

@<SCITEGIC>MOL_PROPERTY
W(SA)
SciTegic.value.DoubleValue
2.182

@<SCITEGIC>MOL_PROPERTY
Valence
SciTegic.value.DoubleValue
9.837

@<SCITEGIC>MOL_PROPERTY
Coulomb
SciTegic.value.DoubleValue
0.032

@<SCITEGIC>MOL_PROPERTY
VdW
SciTegic.value.DoubleValue
0.328

@<SCITEGIC>MOL_PROPERTY
VdW6
SciTegic.value.DoubleValue
-7.642

@<SCITEGIC>MOL_PROPERTY
VdW12
SciTegic.value.DoubleValue
7.969

@<SCITEGIC>MOL_PROPERTY
Bond
SciTegic.value.DoubleValue
0.151

@<SCITEGIC>MOL_PROPERTY
Angle
SciTegic.value.DoubleValue
2.748

@<SCITEGIC>MOL_PROPERTY
Pdih
SciTegic.value.DoubleValue
6.937

@<SCITEGIC>MOL_PROPERTY
Idih
SciTegic.value.DoubleValue
0.001

@<SCITEGIC>MOL_PROPERTY
Tether
SciTegic.value.DoubleValue
0.000

@<TRIPOS>MOLECULE
guest-s22_confgen4.mol2 : confsearch ligand conformer 730
          20          19           1
SMALL
USER_CHARGES
 
@<TRIPOS>ATOM
       1    C1      20.623684   15.932991   21.635527 C.2        1 MOL1        -0.2535
       2    H1      20.989564   15.188633   20.930313 H          1 MOL1         0.0845
       3    H2      21.122243   15.995643   22.601495 H          1 MOL1         0.0845
       4    C2      19.604517   16.737523   21.322972 C.2        1 MOL1        -0.1324
       5    H3      19.119712   16.659103   20.350115 H          1 MOL1         0.0833
       6    C3      19.042205   17.792472   22.249552 C.3        1 MOL1        -0.1813
       7    H4      19.405100   17.631507   23.273849 H          1 MOL1         0.0753
       8    H5      17.948025   17.705074   22.284419 H          1 MOL1         0.0753
       9    C4      19.433970   19.210184   21.782996 C.3        1 MOL1        -0.1855
      10    H6      20.529441   19.288451   21.744318 H          1 MOL1         0.0755
      11    H7      19.067791   19.373392   20.760096 H          1 MOL1         0.0755
      12    C5      18.863885   20.300729   22.717902 C.3        1 MOL1        -0.1855
      13    H8      19.239488   20.148770   23.739442 H          1 MOL1         0.0755
      14    H9      17.770879   20.202342   22.765086 H          1 MOL1         0.0755
      15    C6      19.220075   21.735007   22.247944 C.3        1 MOL1        -0.1958
      16    H10     18.875216   21.893223   21.218919 H          1 MOL1         0.0753
      17    H11     18.696247   22.466580   22.874347 H          1 MOL1         0.0753
      18    C7      20.709847   22.058454   22.317633 C.2        1 MOL1         0.6174
      19    O1      21.341235   22.091000   21.279720 O.co2      1 MOL1        -0.6695
      20    O2      21.196449   22.282333   23.408597 O.co2      1 MOL1        -0.6695
@<TRIPOS>BOND
    1     1     2    1
    2     1     3    1
    3     1     4    2
    4     4     5    1
    5     4     6    1
    6     6     7    1
    7     6     8    1
    8     6     9    1
    9     9    10    1
   10     9    11    1
   11     9    12    1
   12    12    13    1
   13    12    14    1
   14    12    15    1
   15    15    16    1
   16    15    17    1
   17    15    18    1
   18    18    19    1
   19    18    20    2
@<TRIPOS>SUBSTRUCTURE
       1 MOL1            1 RESIDUE      1      MOL     
@<SCITEGIC>MOL_PROPERTY
VConf Rank
SciTegic.value.IntegerValue
730

@<SCITEGIC>MOL_PROPERTY
Conf_Id
SciTegic.value.IntegerValue
81

@<SCITEGIC>MOL_PROPERTY
Delta U+W
SciTegic.value.DoubleValue
-0.051

@<SCITEGIC>MOL_PROPERTY
U+W
SciTegic.value.DoubleValue
-51.796

@<SCITEGIC>MOL_PROPERTY
Grad RMS
SciTegic.value.DoubleValue
0.000000

@<SCITEGIC>MOL_PROPERTY
U
SciTegic.value.DoubleValue
9.412

@<SCITEGIC>MOL_PROPERTY
W
SciTegic.value.DoubleValue
-61.209

@<SCITEGIC>MOL_PROPERTY
W(PB)
SciTegic.value.DoubleValue
-63.452

@<SCITEGIC>MOL_PROPERTY
W(SA)
SciTegic.value.DoubleValue
2.243

@<SCITEGIC>MOL_PROPERTY
Valence
SciTegic.value.DoubleValue
9.329

@<SCITEGIC>MOL_PROPERTY
Coulomb
SciTegic.value.DoubleValue
-0.323

@<SCITEGIC>MOL_PROPERTY
VdW
SciTegic.value.DoubleValue
0.406

@<SCITEGIC>MOL_PROPERTY
VdW6
SciTegic.value.DoubleValue
-6.640

@<SCITEGIC>MOL_PROPERTY
VdW12
SciTegic.value.DoubleValue
7.046

@<SCITEGIC>MOL_PROPERTY
Bond
SciTegic.value.DoubleValue
0.105

@<SCITEGIC>MOL_PROPERTY
Angle
SciTegic.value.DoubleValue
2.401

@<SCITEGIC>MOL_PROPERTY
Pdih
SciTegic.value.DoubleValue
6.823

@<SCITEGIC>MOL_PROPERTY
Idih
SciTegic.value.DoubleValue
0.000

@<SCITEGIC>MOL_PROPERTY
Tether
SciTegic.value.DoubleValue
0.000

@<TRIPOS>MOLECULE
guest-s22_confgen4.mol2 : confsearch ligand conformer 731
          20          19           1
SMALL
USER_CHARGES
 
@<TRIPOS>ATOM
       1    C1      21.396198   20.693800   19.830878 C.2        1 MOL1        -0.2535
       2    H1      22.438541   20.413980   19.974685 H          1 MOL1         0.0845
       3    H2      21.133912   21.186718   18.896328 H          1 MOL1         0.0845
       4    C2      20.471726   20.441301   20.761080 C.2        1 MOL1        -0.1324
       5    H3      19.434235   20.731764   20.598388 H          1 MOL1         0.0833
       6    C3      20.762291   19.765817   22.084264 C.3        1 MOL1        -0.1813
       7    H4      20.258045   20.301135   22.899189 H          1 MOL1         0.0753
       8    H5      21.836407   19.829427   22.304365 H          1 MOL1         0.0753
       9    C4      20.347364   18.275011   22.090645 C.3        1 MOL1        -0.1855
      10    H6      20.928419   17.743013   21.325016 H          1 MOL1         0.0755
      11    H7      20.633609   17.830014   23.053460 H          1 MOL1         0.0755
      12    C5      18.838722   18.020927   21.838593 C.3        1 MOL1        -0.1855
      13    H8      18.660047   16.936836   21.836949 H          1 MOL1         0.0755
      14    H9      18.570513   18.374061   20.834075 H          1 MOL1         0.0755
      15    C6      17.893227   18.679614   22.879920 C.3        1 MOL1        -0.1958
      16    H10     17.991282   19.770848   22.854738 H          1 MOL1         0.0753
      17    H11     16.852611   18.455654   22.618068 H          1 MOL1         0.0753
      18    C7      18.114476   18.201622   24.312092 C.2        1 MOL1         0.6174
      19    O1      18.624426   18.969857   25.103832 O.co2      1 MOL1        -0.6695
      20    O2      17.754176   17.077640   24.602450 O.co2      1 MOL1        -0.6695
@<TRIPOS>BOND
    1     1     2    1
    2     1     3    1
    3     1     4    2
    4     4     5    1
    5     4     6    1
    6     6     7    1
    7     6     8    1
    8     6     9    1
    9     9    10    1
   10     9    11    1
   11     9    12    1
   12    12    13    1
   13    12    14    1
   14    12    15    1
   15    15    16    1
   16    15    17    1
   17    15    18    1
   18    18    19    1
   19    18    20    2
@<TRIPOS>SUBSTRUCTURE
       1 MOL1            1 RESIDUE      1      MOL     
@<SCITEGIC>MOL_PROPERTY
VConf Rank
SciTegic.value.IntegerValue
731

@<SCITEGIC>MOL_PROPERTY
Conf_Id
SciTegic.value.IntegerValue
86

@<SCITEGIC>MOL_PROPERTY
Delta U+W
SciTegic.value.DoubleValue
1.248

@<SCITEGIC>MOL_PROPERTY
U+W
SciTegic.value.DoubleValue
-50.498

@<SCITEGIC>MOL_PROPERTY
Grad RMS
SciTegic.value.DoubleValue
0.000000

@<SCITEGIC>MOL_PROPERTY
U
SciTegic.value.DoubleValue
10.404

@<SCITEGIC>MOL_PROPERTY
W
SciTegic.value.DoubleValue
-60.901

@<SCITEGIC>MOL_PROPERTY
W(PB)
SciTegic.value.DoubleValue
-63.061

@<SCITEGIC>MOL_PROPERTY
W(SA)
SciTegic.value.DoubleValue
2.159

@<SCITEGIC>MOL_PROPERTY
Valence
SciTegic.value.DoubleValue
10.021

@<SCITEGIC>MOL_PROPERTY
Coulomb
SciTegic.value.DoubleValue
0.094

@<SCITEGIC>MOL_PROPERTY
VdW
SciTegic.value.DoubleValue
0.289

@<SCITEGIC>MOL_PROPERTY
VdW6
SciTegic.value.DoubleValue
-8.409

@<SCITEGIC>MOL_PROPERTY
VdW12
SciTegic.value.DoubleValue
8.698

@<SCITEGIC>MOL_PROPERTY
Bond
SciTegic.value.DoubleValue
0.179

@<SCITEGIC>MOL_PROPERTY
Angle
SciTegic.value.DoubleValue
2.939

@<SCITEGIC>MOL_PROPERTY
Pdih
SciTegic.value.DoubleValue
6.902

@<SCITEGIC>MOL_PROPERTY
Idih
SciTegic.value.DoubleValue
0.001

@<SCITEGIC>MOL_PROPERTY
Tether
SciTegic.value.DoubleValue
0.000

@<TRIPOS>MOLECULE
guest-s22_confgen4.mol2 : confsearch ligand conformer 732
          20          19           1
SMALL
USER_CHARGES
 
@<TRIPOS>ATOM
       1    C1      17.747155   17.876125   19.986764 C.2        1 MOL1        -0.2535
       2    H1      17.684892   17.654371   18.922785 H          1 MOL1         0.0845
       3    H2      17.587847   17.052366   20.680640 H          1 MOL1         0.0845
       4    C2      18.012467   19.111394   20.420061 C.2        1 MOL1        -0.1324
       5    H3      18.170945   19.921565   19.708798 H          1 MOL1         0.0833
       6    C3      18.115074   19.495443   21.880894 C.3        1 MOL1        -0.1813
       7    H4      17.747220   18.682459   22.521518 H          1 MOL1         0.0753
       8    H5      17.463463   20.358568   22.071260 H          1 MOL1         0.0753
       9    C4      19.559254   19.861711   22.291080 C.3        1 MOL1        -0.1855
      10    H6      19.929344   20.672109   21.648265 H          1 MOL1         0.0755
      11    H7      19.544987   20.257170   23.315979 H          1 MOL1         0.0755
      12    C5      20.524261   18.654503   22.220309 C.3        1 MOL1        -0.1855
      13    H8      20.544739   18.262399   21.194686 H          1 MOL1         0.0755
      14    H9      20.151768   17.842772   22.860383 H          1 MOL1         0.0755
      15    C6      21.970443   19.021190   22.643547 C.3        1 MOL1        -0.1958
      16    H10     22.633536   18.167945   22.458552 H          1 MOL1         0.0753
      17    H11     22.344385   19.852197   22.033324 H          1 MOL1         0.0753
      18    C7      22.109863   19.396434   24.116123 C.2        1 MOL1         0.6174
      19    O1      22.094458   18.501957   24.938802 O.co2      1 MOL1        -0.6695
      20    O2      22.241605   20.570479   24.401340 O.co2      1 MOL1        -0.6695
@<TRIPOS>BOND
    1     1     2    1
    2     1     3    1
    3     1     4    2
    4     4     5    1
    5     4     6    1
    6     6     7    1
    7     6     8    1
    8     6     9    1
    9     9    10    1
   10     9    11    1
   11     9    12    1
   12    12    13    1
   13    12    14    1
   14    12    15    1
   15    15    16    1
   16    15    17    1
   17    15    18    1
   18    18    19    1
   19    18    20    2
@<TRIPOS>SUBSTRUCTURE
       1 MOL1            1 RESIDUE      1      MOL     
@<SCITEGIC>MOL_PROPERTY
VConf Rank
SciTegic.value.IntegerValue
732

@<SCITEGIC>MOL_PROPERTY
Conf_Id
SciTegic.value.IntegerValue
28

@<SCITEGIC>MOL_PROPERTY
Delta U+W
SciTegic.value.DoubleValue
0.446

@<SCITEGIC>MOL_PROPERTY
U+W
SciTegic.value.DoubleValue
-51.299

@<SCITEGIC>MOL_PROPERTY
Grad RMS
SciTegic.value.DoubleValue
0.000000

@<SCITEGIC>MOL_PROPERTY
U
SciTegic.value.DoubleValue
9.295

@<SCITEGIC>MOL_PROPERTY
W
SciTegic.value.DoubleValue
-60.594

@<SCITEGIC>MOL_PROPERTY
W(PB)
SciTegic.value.DoubleValue
-62.806

@<SCITEGIC>MOL_PROPERTY
W(SA)
SciTegic.value.DoubleValue
2.212

@<SCITEGIC>MOL_PROPERTY
Valence
SciTegic.value.DoubleValue
9.495

@<SCITEGIC>MOL_PROPERTY
Coulomb
SciTegic.value.DoubleValue
-0.610

@<SCITEGIC>MOL_PROPERTY
VdW
SciTegic.value.DoubleValue
0.409

@<SCITEGIC>MOL_PROPERTY
VdW6
SciTegic.value.DoubleValue
-7.332

@<SCITEGIC>MOL_PROPERTY
VdW12
SciTegic.value.DoubleValue
7.741

@<SCITEGIC>MOL_PROPERTY
Bond
SciTegic.value.DoubleValue
0.126

@<SCITEGIC>MOL_PROPERTY
Angle
SciTegic.value.DoubleValue
2.497

@<SCITEGIC>MOL_PROPERTY
Pdih
SciTegic.value.DoubleValue
6.872

@<SCITEGIC>MOL_PROPERTY
Idih
SciTegic.value.DoubleValue
0.000

@<SCITEGIC>MOL_PROPERTY
Tether
SciTegic.value.DoubleValue
0.000

@<TRIPOS>MOLECULE
guest-s22_confgen4.mol2 : confsearch ligand conformer 733
          20          19           1
SMALL
USER_CHARGES
 
@<TRIPOS>ATOM
       1    C1      19.088708   17.354833   24.542961 C.2        1 MOL1        -0.2535
       2    H1      19.539553   16.744328   23.763528 H          1 MOL1         0.0845
       3    H2      18.904618   16.871386   25.500839 H          1 MOL1         0.0845
       4    C2      18.771848   18.640951   24.354611 C.2        1 MOL1        -0.1324
       5    H3      18.324350   19.201852   25.174780 H          1 MOL1         0.0833
       6    C3      18.965862   19.448037   23.081651 C.3        1 MOL1        -0.1813
       7    H4      19.653177   20.275933   23.298089 H          1 MOL1         0.0753
       8    H5      18.009169   19.915259   22.812958 H          1 MOL1         0.0753
       9    C4      19.489467   18.639446   21.868961 C.3        1 MOL1        -0.1855
      10    H6      20.487926   18.240370   22.094773 H          1 MOL1         0.0755
      11    H7      18.833770   17.773191   21.706606 H          1 MOL1         0.0755
      12    C5      19.541546   19.459500   20.556003 C.3        1 MOL1        -0.1855
      13    H8      18.531214   19.813099   20.309864 H          1 MOL1         0.0755
      14    H9      19.841986   18.793247   19.735483 H          1 MOL1         0.0755
      15    C6      20.510867   20.672676   20.591774 C.3        1 MOL1        -0.1958
      16    H10     20.472394   21.195716   19.629170 H          1 MOL1         0.0753
      17    H11     20.196307   21.397843   21.350775 H          1 MOL1         0.0753
      18    C7      21.968552   20.299388   20.846169 C.2        1 MOL1         0.6174
      19    O1      22.574958   19.724830   19.963217 O.co2      1 MOL1        -0.6695
      20    O2      22.465430   20.610859   21.910573 O.co2      1 MOL1        -0.6695
@<TRIPOS>BOND
    1     1     2    1
    2     1     3    1
    3     1     4    2
    4     4     5    1
    5     4     6    1
    6     6     7    1
    7     6     8    1
    8     6     9    1
    9     9    10    1
   10     9    11    1
   11     9    12    1
   12    12    13    1
   13    12    14    1
   14    12    15    1
   15    15    16    1
   16    15    17    1
   17    15    18    1
   18    18    19    1
   19    18    20    2
@<TRIPOS>SUBSTRUCTURE
       1 MOL1            1 RESIDUE      1      MOL     
@<SCITEGIC>MOL_PROPERTY
VConf Rank
SciTegic.value.IntegerValue
733

@<SCITEGIC>MOL_PROPERTY
Conf_Id
SciTegic.value.IntegerValue
53

@<SCITEGIC>MOL_PROPERTY
Delta U+W
SciTegic.value.DoubleValue
0.549

@<SCITEGIC>MOL_PROPERTY
U+W
SciTegic.value.DoubleValue
-51.197

@<SCITEGIC>MOL_PROPERTY
Grad RMS
SciTegic.value.DoubleValue
0.000000

@<SCITEGIC>MOL_PROPERTY
U
SciTegic.value.DoubleValue
10.870

@<SCITEGIC>MOL_PROPERTY
W
SciTegic.value.DoubleValue
-62.067

@<SCITEGIC>MOL_PROPERTY
W(PB)
SciTegic.value.DoubleValue
-64.228

@<SCITEGIC>MOL_PROPERTY
W(SA)
SciTegic.value.DoubleValue
2.161

@<SCITEGIC>MOL_PROPERTY
Valence
SciTegic.value.DoubleValue
8.803

@<SCITEGIC>MOL_PROPERTY
Coulomb
SciTegic.value.DoubleValue
1.020

@<SCITEGIC>MOL_PROPERTY
VdW
SciTegic.value.DoubleValue
1.048

@<SCITEGIC>MOL_PROPERTY
VdW6
SciTegic.value.DoubleValue
-8.312

@<SCITEGIC>MOL_PROPERTY
VdW12
SciTegic.value.DoubleValue
9.360

@<SCITEGIC>MOL_PROPERTY
Bond
SciTegic.value.DoubleValue
0.212

@<SCITEGIC>MOL_PROPERTY
Angle
SciTegic.value.DoubleValue
3.379

@<SCITEGIC>MOL_PROPERTY
Pdih
SciTegic.value.DoubleValue
5.211

@<SCITEGIC>MOL_PROPERTY
Idih
SciTegic.value.DoubleValue
0.001

@<SCITEGIC>MOL_PROPERTY
Tether
SciTegic.value.DoubleValue
0.000

@<TRIPOS>MOLECULE
guest-s22_confgen4.mol2 : confsearch ligand conformer 734
          20          19           1
SMALL
USER_CHARGES
 
@<TRIPOS>ATOM
       1    C1      21.161722   17.759366   24.175897 C.2        1 MOL1        -0.2535
       2    H1      20.919988   16.859881   23.613945 H          1 MOL1         0.0845
       3    H2      21.300675   17.648700   25.249847 H          1 MOL1         0.0845
       4    C2      21.291968   18.953188   23.587271 C.2        1 MOL1        -0.1324
       5    H3      21.538128   19.822564   24.196281 H          1 MOL1         0.0833
       6    C3      21.120909   19.252462   22.107047 C.3        1 MOL1        -0.1813
       7    H4      22.113255   19.290861   21.638884 H          1 MOL1         0.0753
       8    H5      20.718653   20.267126   21.992039 H          1 MOL1         0.0753
       9    C4      20.221905   18.266464   21.316241 C.3        1 MOL1        -0.1855
      10    H6      20.241351   18.550176   20.255125 H          1 MOL1         0.0755
      11    H7      20.657850   17.259800   21.359862 H          1 MOL1         0.0755
      12    C5      18.746526   18.207330   21.792284 C.3        1 MOL1        -0.1855
      13    H8      18.707342   17.854166   22.830694 H          1 MOL1         0.0755
      14    H9      18.214250   17.454719   21.194558 H          1 MOL1         0.0755
      15    C6      17.981771   19.555252   21.689450 C.3        1 MOL1        -0.1958
      16    H10     16.955695   19.418204   22.049938 H          1 MOL1         0.0753
      17    H11     18.439878   20.309122   22.339696 H          1 MOL1         0.0753
      18    C7      17.894553   20.117078   20.273410 C.2        1 MOL1         0.6174
      19    O1      18.555952   21.099774   20.001351 O.co2      1 MOL1        -0.6695
      20    O2      17.152197   19.566555   19.483891 O.co2      1 MOL1        -0.6695
@<TRIPOS>BOND
    1     1     2    1
    2     1     3    1
    3     1     4    2
    4     4     5    1
    5     4     6    1
    6     6     7    1
    7     6     8    1
    8     6     9    1
    9     9    10    1
   10     9    11    1
   11     9    12    1
   12    12    13    1
   13    12    14    1
   14    12    15    1
   15    15    16    1
   16    15    17    1
   17    15    18    1
   18    18    19    1
   19    18    20    2
@<TRIPOS>SUBSTRUCTURE
       1 MOL1            1 RESIDUE      1      MOL     
@<SCITEGIC>MOL_PROPERTY
VConf Rank
SciTegic.value.IntegerValue
734

@<SCITEGIC>MOL_PROPERTY
Conf_Id
SciTegic.value.IntegerValue
66

@<SCITEGIC>MOL_PROPERTY
Delta U+W
SciTegic.value.DoubleValue
1.737

@<SCITEGIC>MOL_PROPERTY
U+W
SciTegic.value.DoubleValue
-50.008

@<SCITEGIC>MOL_PROPERTY
Grad RMS
SciTegic.value.DoubleValue
0.000000

@<SCITEGIC>MOL_PROPERTY
U
SciTegic.value.DoubleValue
11.091

@<SCITEGIC>MOL_PROPERTY
W
SciTegic.value.DoubleValue
-61.099

@<SCITEGIC>MOL_PROPERTY
W(PB)
SciTegic.value.DoubleValue
-63.213

@<SCITEGIC>MOL_PROPERTY
W(SA)
SciTegic.value.DoubleValue
2.114

@<SCITEGIC>MOL_PROPERTY
Valence
SciTegic.value.DoubleValue
9.664

@<SCITEGIC>MOL_PROPERTY
Coulomb
SciTegic.value.DoubleValue
0.658

@<SCITEGIC>MOL_PROPERTY
VdW
SciTegic.value.DoubleValue
0.769

@<SCITEGIC>MOL_PROPERTY
VdW6
SciTegic.value.DoubleValue
-9.171

@<SCITEGIC>MOL_PROPERTY
VdW12
SciTegic.value.DoubleValue
9.940

@<SCITEGIC>MOL_PROPERTY
Bond
SciTegic.value.DoubleValue
0.244

@<SCITEGIC>MOL_PROPERTY
Angle
SciTegic.value.DoubleValue
3.658

@<SCITEGIC>MOL_PROPERTY
Pdih
SciTegic.value.DoubleValue
5.762

@<SCITEGIC>MOL_PROPERTY
Idih
SciTegic.value.DoubleValue
0.001

@<SCITEGIC>MOL_PROPERTY
Tether
SciTegic.value.DoubleValue
0.000

@<TRIPOS>MOLECULE
guest-s22_confgen4.mol2 : confsearch ligand conformer 735
          20          19           1
SMALL
USER_CHARGES
 
@<TRIPOS>ATOM
       1    C1      22.011158   17.875833   22.034354 C.2        1 MOL1        -0.2535
       2    H1      22.148720   18.705525   22.724189 H          1 MOL1         0.0845
       3    H2      22.539446   16.951733   22.262141 H          1 MOL1         0.0845
       4    C2      21.236433   17.972198   20.948355 C.2        1 MOL1        -0.1324
       5    H3      21.136069   17.110095   20.289533 H          1 MOL1         0.0833
       6    C3      20.439546   19.190468   20.510877 C.3        1 MOL1        -0.1813
       7    H4      19.510176   18.854504   20.034380 H          1 MOL1         0.0753
       8    H5      20.993674   19.703414   19.713750 H          1 MOL1         0.0753
       9    C4      20.093024   20.210846   21.626703 C.3        1 MOL1        -0.1855
      10    H6      21.020978   20.595732   22.069712 H          1 MOL1         0.0755
      11    H7      19.601338   21.079667   21.168420 H          1 MOL1         0.0755
      12    C5      19.178210   19.657722   22.749143 C.3        1 MOL1        -0.1855
      13    H8      19.068080   20.430005   23.522856 H          1 MOL1         0.0755
      14    H9      19.655040   18.798418   23.238865 H          1 MOL1         0.0755
      15    C6      17.767476   19.247151   22.252978 C.3        1 MOL1        -0.1958
      16    H10     17.296935   20.079616   21.716559 H          1 MOL1         0.0753
      17    H11     17.835250   18.405121   21.554956 H          1 MOL1         0.0753
      18    C7      16.839666   18.834076   23.389983 C.2        1 MOL1         0.6174
      19    O1      16.800633   17.660497   23.702939 O.co2      1 MOL1        -0.6695
      20    O2      16.190246   19.699756   23.942962 O.co2      1 MOL1        -0.6695
@<TRIPOS>BOND
    1     1     2    1
    2     1     3    1
    3     1     4    2
    4     4     5    1
    5     4     6    1
    6     6     7    1
    7     6     8    1
    8     6     9    1
    9     9    10    1
   10     9    11    1
   11     9    12    1
   12    12    13    1
   13    12    14    1
   14    12    15    1
   15    15    16    1
   16    15    17    1
   17    15    18    1
   18    18    19    1
   19    18    20    2
@<TRIPOS>SUBSTRUCTURE
       1 MOL1            1 RESIDUE      1      MOL     
@<SCITEGIC>MOL_PROPERTY
VConf Rank
SciTegic.value.IntegerValue
735

@<SCITEGIC>MOL_PROPERTY
Conf_Id
SciTegic.value.IntegerValue
64

@<SCITEGIC>MOL_PROPERTY
Delta U+W
SciTegic.value.DoubleValue
0.366

@<SCITEGIC>MOL_PROPERTY
U+W
SciTegic.value.DoubleValue
-51.379

@<SCITEGIC>MOL_PROPERTY
Grad RMS
SciTegic.value.DoubleValue
0.000000

@<SCITEGIC>MOL_PROPERTY
U
SciTegic.value.DoubleValue
10.000

@<SCITEGIC>MOL_PROPERTY
W
SciTegic.value.DoubleValue
-61.379

@<SCITEGIC>MOL_PROPERTY
W(PB)
SciTegic.value.DoubleValue
-63.541

@<SCITEGIC>MOL_PROPERTY
W(SA)
SciTegic.value.DoubleValue
2.162

@<SCITEGIC>MOL_PROPERTY
Valence
SciTegic.value.DoubleValue
9.398

@<SCITEGIC>MOL_PROPERTY
Coulomb
SciTegic.value.DoubleValue
-0.504

@<SCITEGIC>MOL_PROPERTY
VdW
SciTegic.value.DoubleValue
1.105

@<SCITEGIC>MOL_PROPERTY
VdW6
SciTegic.value.DoubleValue
-7.975

@<SCITEGIC>MOL_PROPERTY
VdW12
SciTegic.value.DoubleValue
9.080

@<SCITEGIC>MOL_PROPERTY
Bond
SciTegic.value.DoubleValue
0.216

@<SCITEGIC>MOL_PROPERTY
Angle
SciTegic.value.DoubleValue
3.417

@<SCITEGIC>MOL_PROPERTY
Pdih
SciTegic.value.DoubleValue
5.765

@<SCITEGIC>MOL_PROPERTY
Idih
SciTegic.value.DoubleValue
0.001

@<SCITEGIC>MOL_PROPERTY
Tether
SciTegic.value.DoubleValue
0.000

@<TRIPOS>MOLECULE
guest-s22_confgen4.mol2 : confsearch ligand conformer 736
          20          19           1
SMALL
USER_CHARGES
 
@<TRIPOS>ATOM
       1    C1      22.772035   18.244314   22.333412 C.2        1 MOL1        -0.2535
       2    H1      22.527250   17.959220   23.355283 H          1 MOL1         0.0845
       3    H2      23.733568   18.725873   22.164117 H          1 MOL1         0.0845
       4    C2      21.926502   18.017494   21.324632 C.2        1 MOL1        -0.1324
       5    H3      22.189745   18.312934   20.309344 H          1 MOL1         0.0833
       6    C3      20.574474   17.354799   21.482229 C.3        1 MOL1        -0.1813
       7    H4      20.475850   16.910455   22.481983 H          1 MOL1         0.0753
       8    H5      20.495475   16.526171   20.766005 H          1 MOL1         0.0753
       9    C4      19.407917   18.338237   21.237414 C.3        1 MOL1        -0.1855
      10    H6      19.507033   18.783104   20.237738 H          1 MOL1         0.0755
      11    H7      18.463941   17.776286   21.239495 H          1 MOL1         0.0755
      12    C5      19.336285   19.455655   22.303167 C.3        1 MOL1        -0.1855
      13    H8      20.265078   20.042566   22.292787 H          1 MOL1         0.0755
      14    H9      19.254403   19.008303   23.303397 H          1 MOL1         0.0755
      15    C6      18.134302   20.402623   22.065446 C.3        1 MOL1        -0.1958
      16    H10     18.208706   20.866906   21.074743 H          1 MOL1         0.0753
      17    H11     17.195411   19.836569   22.088962 H          1 MOL1         0.0753
      18    C7      18.042289   21.514441   23.104430 C.2        1 MOL1         0.6174
      19    O1      17.418556   21.296101   24.124251 O.co2      1 MOL1        -0.6695
      20    O2      18.608307   22.564562   22.873000 O.co2      1 MOL1        -0.6695
@<TRIPOS>BOND
    1     1     2    1
    2     1     3    1
    3     1     4    2
    4     4     5    1
    5     4     6    1
    6     6     7    1
    7     6     8    1
    8     6     9    1
    9     9    10    1
   10     9    11    1
   11     9    12    1
   12    12    13    1
   13    12    14    1
   14    12    15    1
   15    15    16    1
   16    15    17    1
   17    15    18    1
   18    18    19    1
   19    18    20    2
@<TRIPOS>SUBSTRUCTURE
       1 MOL1            1 RESIDUE      1      MOL     
@<SCITEGIC>MOL_PROPERTY
VConf Rank
SciTegic.value.IntegerValue
736

@<SCITEGIC>MOL_PROPERTY
Conf_Id
SciTegic.value.IntegerValue
42

@<SCITEGIC>MOL_PROPERTY
Delta U+W
SciTegic.value.DoubleValue
-0.601

@<SCITEGIC>MOL_PROPERTY
U+W
SciTegic.value.DoubleValue
-52.347

@<SCITEGIC>MOL_PROPERTY
Grad RMS
SciTegic.value.DoubleValue
0.000000

@<SCITEGIC>MOL_PROPERTY
U
SciTegic.value.DoubleValue
8.428

@<SCITEGIC>MOL_PROPERTY
W
SciTegic.value.DoubleValue
-60.774

@<SCITEGIC>MOL_PROPERTY
W(PB)
SciTegic.value.DoubleValue
-62.982

@<SCITEGIC>MOL_PROPERTY
W(SA)
SciTegic.value.DoubleValue
2.208

@<SCITEGIC>MOL_PROPERTY
Valence
SciTegic.value.DoubleValue
9.231

@<SCITEGIC>MOL_PROPERTY
Coulomb
SciTegic.value.DoubleValue
-1.304

@<SCITEGIC>MOL_PROPERTY
VdW
SciTegic.value.DoubleValue
0.501

@<SCITEGIC>MOL_PROPERTY
VdW6
SciTegic.value.DoubleValue
-6.515

@<SCITEGIC>MOL_PROPERTY
VdW12
SciTegic.value.DoubleValue
7.016

@<SCITEGIC>MOL_PROPERTY
Bond
SciTegic.value.DoubleValue
0.103

@<SCITEGIC>MOL_PROPERTY
Angle
SciTegic.value.DoubleValue
2.328

@<SCITEGIC>MOL_PROPERTY
Pdih
SciTegic.value.DoubleValue
6.799

@<SCITEGIC>MOL_PROPERTY
Idih
SciTegic.value.DoubleValue
0.000

@<SCITEGIC>MOL_PROPERTY
Tether
SciTegic.value.DoubleValue
0.000

@<TRIPOS>MOLECULE
guest-s22_confgen4.mol2 : confsearch ligand conformer 737
          20          19           1
SMALL
USER_CHARGES
 
@<TRIPOS>ATOM
       1    C1      19.479906   19.561290   19.074328 C.2        1 MOL1        -0.2535
       2    H1      20.101965   18.693144   18.862760 H          1 MOL1         0.0845
       3    H2      19.587776   20.426105   18.421983 H          1 MOL1         0.0845
       4    C2      18.619575   19.570413   20.095980 C.2        1 MOL1        -0.1324
       5    H3      18.008133   20.450744   20.292350 H          1 MOL1         0.0833
       6    C3      18.415657   18.408763   21.045133 C.3        1 MOL1        -0.1813
       7    H4      18.915502   17.507120   20.665918 H          1 MOL1         0.0753
       8    H5      17.344858   18.170906   21.096363 H          1 MOL1         0.0753
       9    C4      18.925230   18.720929   22.470211 C.3        1 MOL1        -0.1855
      10    H6      18.419039   19.619128   22.850140 H          1 MOL1         0.0755
      11    H7      18.641474   17.896007   23.137840 H          1 MOL1         0.0755
      12    C5      20.458900   18.915835   22.526218 C.3        1 MOL1        -0.1855
      13    H8      20.752608   19.765684   21.894676 H          1 MOL1         0.0755
      14    H9      20.951880   18.027755   22.108468 H          1 MOL1         0.0755
      15    C6      20.977694   19.149038   23.968887 C.3        1 MOL1        -0.1958
      16    H10     20.673094   18.320830   24.620052 H          1 MOL1         0.0753
      17    H11     22.073943   19.163859   23.965905 H          1 MOL1         0.0753
      18    C7      20.504452   20.458570   24.593371 C.2        1 MOL1         0.6174
      19    O1      19.608701   20.414706   25.413658 O.co2      1 MOL1        -0.6695
      20    O2      21.057582   21.486724   24.255672 O.co2      1 MOL1        -0.6695
@<TRIPOS>BOND
    1     1     2    1
    2     1     3    1
    3     1     4    2
    4     4     5    1
    5     4     6    1
    6     6     7    1
    7     6     8    1
    8     6     9    1
    9     9    10    1
   10     9    11    1
   11     9    12    1
   12    12    13    1
   13    12    14    1
   14    12    15    1
   15    15    16    1
   16    15    17    1
   17    15    18    1
   18    18    19    1
   19    18    20    2
@<TRIPOS>SUBSTRUCTURE
       1 MOL1            1 RESIDUE      1      MOL     
@<SCITEGIC>MOL_PROPERTY
VConf Rank
SciTegic.value.IntegerValue
737

@<SCITEGIC>MOL_PROPERTY
Conf_Id
SciTegic.value.IntegerValue
68

@<SCITEGIC>MOL_PROPERTY
Delta U+W
SciTegic.value.DoubleValue
0.492

@<SCITEGIC>MOL_PROPERTY
U+W
SciTegic.value.DoubleValue
-51.253

@<SCITEGIC>MOL_PROPERTY
Grad RMS
SciTegic.value.DoubleValue
0.000000

@<SCITEGIC>MOL_PROPERTY
U
SciTegic.value.DoubleValue
10.179

@<SCITEGIC>MOL_PROPERTY
W
SciTegic.value.DoubleValue
-61.432

@<SCITEGIC>MOL_PROPERTY
W(PB)
SciTegic.value.DoubleValue
-63.627

@<SCITEGIC>MOL_PROPERTY
W(SA)
SciTegic.value.DoubleValue
2.195

@<SCITEGIC>MOL_PROPERTY
Valence
SciTegic.value.DoubleValue
9.483

@<SCITEGIC>MOL_PROPERTY
Coulomb
SciTegic.value.DoubleValue
0.361

@<SCITEGIC>MOL_PROPERTY
VdW
SciTegic.value.DoubleValue
0.335

@<SCITEGIC>MOL_PROPERTY
VdW6
SciTegic.value.DoubleValue
-7.385

@<SCITEGIC>MOL_PROPERTY
VdW12
SciTegic.value.DoubleValue
7.720

@<SCITEGIC>MOL_PROPERTY
Bond
SciTegic.value.DoubleValue
0.125

@<SCITEGIC>MOL_PROPERTY
Angle
SciTegic.value.DoubleValue
2.487

@<SCITEGIC>MOL_PROPERTY
Pdih
SciTegic.value.DoubleValue
6.870

@<SCITEGIC>MOL_PROPERTY
Idih
SciTegic.value.DoubleValue
0.001

@<SCITEGIC>MOL_PROPERTY
Tether
SciTegic.value.DoubleValue
0.000

@<TRIPOS>MOLECULE
guest-s22_confgen4.mol2 : confsearch ligand conformer 738
          20          19           1
SMALL
USER_CHARGES
 
@<TRIPOS>ATOM
       1    C1      16.852641   18.197771   23.197962 C.2        1 MOL1        -0.2535
       2    H1      16.146797   18.590303   22.467762 H          1 MOL1         0.0845
       3    H2      16.507628   18.099354   24.225804 H          1 MOL1         0.0845
       4    C2      18.095318   17.852627   22.851081 C.2        1 MOL1        -0.1324
       5    H3      18.784850   17.459235   23.597428 H          1 MOL1         0.0833
       6    C3      18.641963   17.956125   21.443158 C.3        1 MOL1        -0.1813
       7    H4      17.811532   18.019363   20.726985 H          1 MOL1         0.0753
       8    H5      19.197551   17.043430   21.189570 H          1 MOL1         0.0753
       9    C4      19.552649   19.190435   21.255244 C.3        1 MOL1        -0.1855
      10    H6      19.809366   19.282527   20.191120 H          1 MOL1         0.0755
      11    H7      18.993734   20.098259   21.521828 H          1 MOL1         0.0755
      12    C5      20.855094   19.109069   22.086356 C.3        1 MOL1        -0.1855
      13    H8      21.379732   18.174224   21.847340 H          1 MOL1         0.0755
      14    H9      20.616148   19.073320   23.158010 H          1 MOL1         0.0755
      15    C6      21.807383   20.303252   21.818163 C.3        1 MOL1        -0.1958
      16    H10     22.757768   20.138058   22.339207 H          1 MOL1         0.0753
      17    H11     22.039447   20.370692   20.748415 H          1 MOL1         0.0753
      18    C7      21.259295   21.649444   22.283141 C.2        1 MOL1         0.6174
      19    O1      21.304139   21.906424   23.470178 O.co2      1 MOL1        -0.6695
      20    O2      20.820441   22.412880   21.445468 O.co2      1 MOL1        -0.6695
@<TRIPOS>BOND
    1     1     2    1
    2     1     3    1
    3     1     4    2
    4     4     5    1
    5     4     6    1
    6     6     7    1
    7     6     8    1
    8     6     9    1
    9     9    10    1
   10     9    11    1
   11     9    12    1
   12    12    13    1
   13    12    14    1
   14    12    15    1
   15    15    16    1
   16    15    17    1
   17    15    18    1
   18    18    19    1
   19    18    20    2
@<TRIPOS>SUBSTRUCTURE
       1 MOL1            1 RESIDUE      1      MOL     
@<SCITEGIC>MOL_PROPERTY
VConf Rank
SciTegic.value.IntegerValue
738

@<SCITEGIC>MOL_PROPERTY
Conf_Id
SciTegic.value.IntegerValue
87

@<SCITEGIC>MOL_PROPERTY
Delta U+W
SciTegic.value.DoubleValue
0.339

@<SCITEGIC>MOL_PROPERTY
U+W
SciTegic.value.DoubleValue
-51.407

@<SCITEGIC>MOL_PROPERTY
Grad RMS
SciTegic.value.DoubleValue
0.000000

@<SCITEGIC>MOL_PROPERTY
U
SciTegic.value.DoubleValue
10.461

@<SCITEGIC>MOL_PROPERTY
W
SciTegic.value.DoubleValue
-61.867

@<SCITEGIC>MOL_PROPERTY
W(PB)
SciTegic.value.DoubleValue
-64.045

@<SCITEGIC>MOL_PROPERTY
W(SA)
SciTegic.value.DoubleValue
2.178

@<SCITEGIC>MOL_PROPERTY
Valence
SciTegic.value.DoubleValue
9.555

@<SCITEGIC>MOL_PROPERTY
Coulomb
SciTegic.value.DoubleValue
0.483

@<SCITEGIC>MOL_PROPERTY
VdW
SciTegic.value.DoubleValue
0.423

@<SCITEGIC>MOL_PROPERTY
VdW6
SciTegic.value.DoubleValue
-7.223

@<SCITEGIC>MOL_PROPERTY
VdW12
SciTegic.value.DoubleValue
7.646

@<SCITEGIC>MOL_PROPERTY
Bond
SciTegic.value.DoubleValue
0.126

@<SCITEGIC>MOL_PROPERTY
Angle
SciTegic.value.DoubleValue
2.492

@<SCITEGIC>MOL_PROPERTY
Pdih
SciTegic.value.DoubleValue
6.936

@<SCITEGIC>MOL_PROPERTY
Idih
SciTegic.value.DoubleValue
0.001

@<SCITEGIC>MOL_PROPERTY
Tether
SciTegic.value.DoubleValue
0.000

@<TRIPOS>MOLECULE
guest-s22_confgen4.mol2 : confsearch ligand conformer 739
          20          19           1
SMALL
USER_CHARGES
 
@<TRIPOS>ATOM
       1    C1      21.741275   17.202702   22.587805 C.2        1 MOL1        -0.2535
       2    H1      22.564118   17.616649   22.007295 H          1 MOL1         0.0845
       3    H2      21.976253   16.785850   23.565578 H          1 MOL1         0.0845
       4    C2      20.489926   17.207251   22.121093 C.2        1 MOL1        -0.1324
       5    H3      19.681267   16.780140   22.713068 H          1 MOL1         0.0833
       6    C3      20.093933   17.757811   20.767697 C.3        1 MOL1        -0.1813
       7    H4      19.121018   17.350981   20.461330 H          1 MOL1         0.0753
       8    H5      20.815290   17.398411   20.021451 H          1 MOL1         0.0753
       9    C4      20.062210   19.305469   20.713688 C.3        1 MOL1        -0.1855
      10    H6      20.960831   19.716672   21.193613 H          1 MOL1         0.0755
      11    H7      20.119521   19.607108   19.658955 H          1 MOL1         0.0755
      12    C5      18.791610   19.953580   21.319187 C.3        1 MOL1        -0.1855
      13    H8      17.894771   19.529931   20.846703 H          1 MOL1         0.0755
      14    H9      18.796327   21.022825   21.065846 H          1 MOL1         0.0755
      15    C6      18.679422   19.817872   22.859401 C.3        1 MOL1        -0.1958
      16    H10     18.522409   18.772465   23.143213 H          1 MOL1         0.0753
      17    H11     19.607499   20.151562   23.338617 H          1 MOL1         0.0753
      18    C7      17.527086   20.628991   23.440639 C.2        1 MOL1         0.6174
      19    O1      16.433475   20.103725   23.511364 O.co2      1 MOL1        -0.6695
      20    O2      17.748113   21.772317   23.788253 O.co2      1 MOL1        -0.6695
@<TRIPOS>BOND
    1     1     2    1
    2     1     3    1
    3     1     4    2
    4     4     5    1
    5     4     6    1
    6     6     7    1
    7     6     8    1
    8     6     9    1
    9     9    10    1
   10     9    11    1
   11     9    12    1
   12    12    13    1
   13    12    14    1
   14    12    15    1
   15    15    16    1
   16    15    17    1
   17    15    18    1
   18    18    19    1
   19    18    20    2
@<TRIPOS>SUBSTRUCTURE
       1 MOL1            1 RESIDUE      1      MOL     
@<SCITEGIC>MOL_PROPERTY
VConf Rank
SciTegic.value.IntegerValue
739

@<SCITEGIC>MOL_PROPERTY
Conf_Id
SciTegic.value.IntegerValue
51

@<SCITEGIC>MOL_PROPERTY
Delta U+W
SciTegic.value.DoubleValue
1.709

@<SCITEGIC>MOL_PROPERTY
U+W
SciTegic.value.DoubleValue
-50.036

@<SCITEGIC>MOL_PROPERTY
Grad RMS
SciTegic.value.DoubleValue
0.000000

@<SCITEGIC>MOL_PROPERTY
U
SciTegic.value.DoubleValue
10.643

@<SCITEGIC>MOL_PROPERTY
W
SciTegic.value.DoubleValue
-60.679

@<SCITEGIC>MOL_PROPERTY
W(PB)
SciTegic.value.DoubleValue
-62.882

@<SCITEGIC>MOL_PROPERTY
W(SA)
SciTegic.value.DoubleValue
2.203

@<SCITEGIC>MOL_PROPERTY
Valence
SciTegic.value.DoubleValue
11.231

@<SCITEGIC>MOL_PROPERTY
Coulomb
SciTegic.value.DoubleValue
-1.077

@<SCITEGIC>MOL_PROPERTY
VdW
SciTegic.value.DoubleValue
0.489

@<SCITEGIC>MOL_PROPERTY
VdW6
SciTegic.value.DoubleValue
-7.546

@<SCITEGIC>MOL_PROPERTY
VdW12
SciTegic.value.DoubleValue
8.035

@<SCITEGIC>MOL_PROPERTY
Bond
SciTegic.value.DoubleValue
0.159

@<SCITEGIC>MOL_PROPERTY
Angle
SciTegic.value.DoubleValue
3.005

@<SCITEGIC>MOL_PROPERTY
Pdih
SciTegic.value.DoubleValue
8.065

@<SCITEGIC>MOL_PROPERTY
Idih
SciTegic.value.DoubleValue
0.002

@<SCITEGIC>MOL_PROPERTY
Tether
SciTegic.value.DoubleValue
0.000

@<TRIPOS>MOLECULE
guest-s22_confgen4.mol2 : confsearch ligand conformer 740
          20          19           1
SMALL
USER_CHARGES
 
@<TRIPOS>ATOM
       1    C1      19.640204   21.306315   20.169801 C.2        1 MOL1        -0.2535
       2    H1      18.893367   21.028994   19.427679 H          1 MOL1         0.0845
       3    H2      20.516712   21.849825   19.821448 H          1 MOL1         0.0845
       4    C2      19.490105   20.990408   21.458749 C.2        1 MOL1        -0.1324
       5    H3      20.244183   21.284570   22.187877 H          1 MOL1         0.0833
       6    C3      18.293084   20.248473   22.013975 C.3        1 MOL1        -0.1813
       7    H4      17.382238   20.687181   21.584670 H          1 MOL1         0.0753
       8    H5      18.217072   20.406214   23.098076 H          1 MOL1         0.0753
       9    C4      18.303094   18.732088   21.698306 C.3        1 MOL1        -0.1855
      10    H6      17.277296   18.356794   21.815053 H          1 MOL1         0.0755
      11    H7      18.564889   18.569545   20.643805 H          1 MOL1         0.0755
      12    C5      19.221277   17.881471   22.611814 C.3        1 MOL1        -0.1855
      13    H8      19.012155   16.820258   22.417948 H          1 MOL1         0.0755
      14    H9      18.965975   18.057278   23.665830 H          1 MOL1         0.0755
      15    C6      20.736913   18.126847   22.397556 C.3        1 MOL1        -0.1958
      16    H10     20.987948   18.046004   21.333240 H          1 MOL1         0.0753
      17    H11     21.013432   19.134634   22.723110 H          1 MOL1         0.0753
      18    C7      21.608604   17.140966   23.166851 C.2        1 MOL1         0.6174
      19    O1      21.924560   17.421628   24.306276 O.co2      1 MOL1        -0.6695
      20    O2      21.932135   16.108286   22.613877 O.co2      1 MOL1        -0.6695
@<TRIPOS>BOND
    1     1     2    1
    2     1     3    1
    3     1     4    2
    4     4     5    1
    5     4     6    1
    6     6     7    1
    7     6     8    1
    8     6     9    1
    9     9    10    1
   10     9    11    1
   11     9    12    1
   12    12    13    1
   13    12    14    1
   14    12    15    1
   15    15    16    1
   16    15    17    1
   17    15    18    1
   18    18    19    1
   19    18    20    2
@<TRIPOS>SUBSTRUCTURE
       1 MOL1            1 RESIDUE      1      MOL     
@<SCITEGIC>MOL_PROPERTY
VConf Rank
SciTegic.value.IntegerValue
740

@<SCITEGIC>MOL_PROPERTY
Conf_Id
SciTegic.value.IntegerValue
91

@<SCITEGIC>MOL_PROPERTY
Delta U+W
SciTegic.value.DoubleValue
1.604

@<SCITEGIC>MOL_PROPERTY
U+W
SciTegic.value.DoubleValue
-50.141

@<SCITEGIC>MOL_PROPERTY
Grad RMS
SciTegic.value.DoubleValue
0.000000

@<SCITEGIC>MOL_PROPERTY
U
SciTegic.value.DoubleValue
10.644

@<SCITEGIC>MOL_PROPERTY
W
SciTegic.value.DoubleValue
-60.786

@<SCITEGIC>MOL_PROPERTY
W(PB)
SciTegic.value.DoubleValue
-62.965

@<SCITEGIC>MOL_PROPERTY
W(SA)
SciTegic.value.DoubleValue
2.179

@<SCITEGIC>MOL_PROPERTY
Valence
SciTegic.value.DoubleValue
11.230

@<SCITEGIC>MOL_PROPERTY
Coulomb
SciTegic.value.DoubleValue
-1.075

@<SCITEGIC>MOL_PROPERTY
VdW
SciTegic.value.DoubleValue
0.489

@<SCITEGIC>MOL_PROPERTY
VdW6
SciTegic.value.DoubleValue
-7.547

@<SCITEGIC>MOL_PROPERTY
VdW12
SciTegic.value.DoubleValue
8.036

@<SCITEGIC>MOL_PROPERTY
Bond
SciTegic.value.DoubleValue
0.159

@<SCITEGIC>MOL_PROPERTY
Angle
SciTegic.value.DoubleValue
3.006

@<SCITEGIC>MOL_PROPERTY
Pdih
SciTegic.value.DoubleValue
8.064

@<SCITEGIC>MOL_PROPERTY
Idih
SciTegic.value.DoubleValue
0.002

@<SCITEGIC>MOL_PROPERTY
Tether
SciTegic.value.DoubleValue
0.000

@<TRIPOS>MOLECULE
guest-s22_confgen4.mol2 : confsearch ligand conformer 741
          20          19           1
SMALL
USER_CHARGES
 
@<TRIPOS>ATOM
       1    C1      23.207588   20.303278   21.267592 C.2        1 MOL1        -0.2535
       2    H1      22.776749   21.004343   20.554516 H          1 MOL1         0.0845
       3    H2      24.272411   20.093084   21.182459 H          1 MOL1         0.0845
       4    C2      22.462152   19.719859   22.209716 C.2        1 MOL1        -0.1324
       5    H3      22.912880   19.020346   22.913410 H          1 MOL1         0.0833
       6    C3      20.980191   19.963036   22.389431 C.3        1 MOL1        -0.1813
       7    H4      20.670120   20.854426   21.827217 H          1 MOL1         0.0753
       8    H5      20.766845   20.166799   23.447310 H          1 MOL1         0.0753
       9    C4      20.155063   18.746638   21.919949 C.3        1 MOL1        -0.1855
      10    H6      20.375297   18.544559   20.862572 H          1 MOL1         0.0755
      11    H7      20.462326   17.856329   22.485722 H          1 MOL1         0.0755
      12    C5      18.638535   18.977068   22.099286 C.3        1 MOL1        -0.1855
      13    H8      18.330363   19.867129   21.533279 H          1 MOL1         0.0755
      14    H9      18.417803   19.180451   23.156375 H          1 MOL1         0.0755
      15    C6      17.809000   17.753727   21.626311 C.3        1 MOL1        -0.1958
      16    H10     18.019623   17.549019   20.570069 H          1 MOL1         0.0753
      17    H11     18.106888   16.862862   22.191581 H          1 MOL1         0.0753
      18    C7      16.293131   17.898735   21.769240 C.2        1 MOL1         0.6174
      19    O1      15.610083   16.960226   21.410371 O.co2      1 MOL1        -0.6695
      20    O2      15.826027   18.924028   22.226662 O.co2      1 MOL1        -0.6695
@<TRIPOS>BOND
    1     1     2    1
    2     1     3    1
    3     1     4    2
    4     4     5    1
    5     4     6    1
    6     6     7    1
    7     6     8    1
    8     6     9    1
    9     9    10    1
   10     9    11    1
   11     9    12    1
   12    12    13    1
   13    12    14    1
   14    12    15    1
   15    15    16    1
   16    15    17    1
   17    15    18    1
   18    18    19    1
   19    18    20    2
@<TRIPOS>SUBSTRUCTURE
       1 MOL1            1 RESIDUE      1      MOL     
@<SCITEGIC>MOL_PROPERTY
VConf Rank
SciTegic.value.IntegerValue
741

@<SCITEGIC>MOL_PROPERTY
Conf_Id
SciTegic.value.IntegerValue
33

@<SCITEGIC>MOL_PROPERTY
Delta U+W
SciTegic.value.DoubleValue
0.000

@<SCITEGIC>MOL_PROPERTY
U+W
SciTegic.value.DoubleValue
-51.745

@<SCITEGIC>MOL_PROPERTY
Grad RMS
SciTegic.value.DoubleValue
0.000000

@<SCITEGIC>MOL_PROPERTY
U
SciTegic.value.DoubleValue
7.593

@<SCITEGIC>MOL_PROPERTY
W
SciTegic.value.DoubleValue
-59.338

@<SCITEGIC>MOL_PROPERTY
W(PB)
SciTegic.value.DoubleValue
-61.574

@<SCITEGIC>MOL_PROPERTY
W(SA)
SciTegic.value.DoubleValue
2.236

@<SCITEGIC>MOL_PROPERTY
Valence
SciTegic.value.DoubleValue
9.570

@<SCITEGIC>MOL_PROPERTY
Coulomb
SciTegic.value.DoubleValue
-3.091

@<SCITEGIC>MOL_PROPERTY
VdW
SciTegic.value.DoubleValue
1.114

@<SCITEGIC>MOL_PROPERTY
VdW6
SciTegic.value.DoubleValue
-6.064

@<SCITEGIC>MOL_PROPERTY
VdW12
SciTegic.value.DoubleValue
7.178

@<SCITEGIC>MOL_PROPERTY
Bond
SciTegic.value.DoubleValue
0.117

@<SCITEGIC>MOL_PROPERTY
Angle
SciTegic.value.DoubleValue
2.692

@<SCITEGIC>MOL_PROPERTY
Pdih
SciTegic.value.DoubleValue
6.761

@<SCITEGIC>MOL_PROPERTY
Idih
SciTegic.value.DoubleValue
0.000

@<SCITEGIC>MOL_PROPERTY
Tether
SciTegic.value.DoubleValue
0.000

@<TRIPOS>MOLECULE
guest-s22_confgen4.mol2 : confsearch ligand conformer 742
          20          19           1
SMALL
USER_CHARGES
 
@<TRIPOS>ATOM
       1    C1      19.506071   16.295582   24.269751 C.2        1 MOL1        -0.2535
       2    H1      20.562294   16.428354   24.498537 H          1 MOL1         0.0845
       3    H2      19.014499   15.410025   24.669009 H          1 MOL1         0.0845
       4    C2      18.836568   17.180658   23.526732 C.2        1 MOL1        -0.1324
       5    H3      17.779719   17.028646   23.308570 H          1 MOL1         0.0833
       6    C3      19.450852   18.431999   22.939770 C.3        1 MOL1        -0.1813
       7    H4      20.421233   18.636142   23.412297 H          1 MOL1         0.0753
       8    H5      18.802942   19.289251   23.161990 H          1 MOL1         0.0753
       9    C4      19.641372   18.292692   21.412647 C.3        1 MOL1        -0.1855
      10    H6      20.221136   17.381464   21.210461 H          1 MOL1         0.0755
      11    H7      18.664672   18.152297   20.929595 H          1 MOL1         0.0755
      12    C5      20.372278   19.495340   20.769534 C.3        1 MOL1        -0.1855
      13    H8      20.565844   19.265585   19.712539 H          1 MOL1         0.0755
      14    H9      21.355009   19.628844   21.242620 H          1 MOL1         0.0755
      15    C6      19.573088   20.821759   20.852504 C.3        1 MOL1        -0.1958
      16    H10     18.573601   20.689151   20.421430 H          1 MOL1         0.0753
      17    H11     19.439780   21.128258   21.896070 H          1 MOL1         0.0753
      18    C7      20.256956   21.968424   20.116669 C.2        1 MOL1         0.6174
      19    O1      21.054345   22.649653   20.730514 O.co2      1 MOL1        -0.6695
      20    O2      19.989108   22.137927   18.943527 O.co2      1 MOL1        -0.6695
@<TRIPOS>BOND
    1     1     2    1
    2     1     3    1
    3     1     4    2
    4     4     5    1
    5     4     6    1
    6     6     7    1
    7     6     8    1
    8     6     9    1
    9     9    10    1
   10     9    11    1
   11     9    12    1
   12    12    13    1
   13    12    14    1
   14    12    15    1
   15    15    16    1
   16    15    17    1
   17    15    18    1
   18    18    19    1
   19    18    20    2
@<TRIPOS>SUBSTRUCTURE
       1 MOL1            1 RESIDUE      1      MOL     
@<SCITEGIC>MOL_PROPERTY
VConf Rank
SciTegic.value.IntegerValue
742

@<SCITEGIC>MOL_PROPERTY
Conf_Id
SciTegic.value.IntegerValue
37

@<SCITEGIC>MOL_PROPERTY
Delta U+W
SciTegic.value.DoubleValue
-0.384

@<SCITEGIC>MOL_PROPERTY
U+W
SciTegic.value.DoubleValue
-52.130

@<SCITEGIC>MOL_PROPERTY
Grad RMS
SciTegic.value.DoubleValue
0.000000

@<SCITEGIC>MOL_PROPERTY
U
SciTegic.value.DoubleValue
7.491

@<SCITEGIC>MOL_PROPERTY
W
SciTegic.value.DoubleValue
-59.621

@<SCITEGIC>MOL_PROPERTY
W(PB)
SciTegic.value.DoubleValue
-61.853

@<SCITEGIC>MOL_PROPERTY
W(SA)
SciTegic.value.DoubleValue
2.232

@<SCITEGIC>MOL_PROPERTY
Valence
SciTegic.value.DoubleValue
9.604

@<SCITEGIC>MOL_PROPERTY
Coulomb
SciTegic.value.DoubleValue
-2.799

@<SCITEGIC>MOL_PROPERTY
VdW
SciTegic.value.DoubleValue
0.686

@<SCITEGIC>MOL_PROPERTY
VdW6
SciTegic.value.DoubleValue
-6.435

@<SCITEGIC>MOL_PROPERTY
VdW12
SciTegic.value.DoubleValue
7.121

@<SCITEGIC>MOL_PROPERTY
Bond
SciTegic.value.DoubleValue
0.124

@<SCITEGIC>MOL_PROPERTY
Angle
SciTegic.value.DoubleValue
2.493

@<SCITEGIC>MOL_PROPERTY
Pdih
SciTegic.value.DoubleValue
6.986

@<SCITEGIC>MOL_PROPERTY
Idih
SciTegic.value.DoubleValue
0.001

@<SCITEGIC>MOL_PROPERTY
Tether
SciTegic.value.DoubleValue
0.000

@<TRIPOS>MOLECULE
guest-s22_confgen4.mol2 : confsearch ligand conformer 743
          20          19           1
SMALL
USER_CHARGES
 
@<TRIPOS>ATOM
       1    C1      16.845549   18.187726   23.272335 C.2        1 MOL1        -0.2535
       2    H1      15.897234   17.919682   23.734982 H          1 MOL1         0.0845
       3    H2      16.856160   18.271528   22.187709 H          1 MOL1         0.0845
       4    C2      17.934648   18.399714   24.019890 C.2        1 MOL1        -0.1324
       5    H3      17.861630   18.300587   25.102696 H          1 MOL1         0.0833
       6    C3      19.319362   18.777728   23.521203 C.3        1 MOL1        -0.1813
       7    H4      20.038188   18.024902   23.871457 H          1 MOL1         0.0753
       8    H5      19.621195   19.719746   23.998312 H          1 MOL1         0.0753
       9    C4      19.444993   18.923495   21.986618 C.3        1 MOL1        -0.1855
      10    H6      19.164306   17.977295   21.503910 H          1 MOL1         0.0755
      11    H7      18.742769   19.690510   21.632137 H          1 MOL1         0.0755
      12    C5      20.879683   19.308142   21.563849 C.3        1 MOL1        -0.1855
      13    H8      21.587274   18.544514   21.915693 H          1 MOL1         0.0755
      14    H9      21.166594   20.254220   22.043665 H          1 MOL1         0.0755
      15    C6      21.008074   19.454727   20.027583 C.3        1 MOL1        -0.1958
      16    H10     20.737853   18.513792   19.533392 H          1 MOL1         0.0753
      17    H11     20.317075   20.223497   19.661367 H          1 MOL1         0.0753
      18    C7      22.416553   19.834506   19.584931 C.2        1 MOL1         0.6174
      19    O1      23.204859   18.939939   19.350473 O.co2      1 MOL1        -0.6695
      20    O2      22.694062   21.014892   19.505391 O.co2      1 MOL1        -0.6695
@<TRIPOS>BOND
    1     1     2    1
    2     1     3    1
    3     1     4    2
    4     4     5    1
    5     4     6    1
    6     6     7    1
    7     6     8    1
    8     6     9    1
    9     9    10    1
   10     9    11    1
   11     9    12    1
   12    12    13    1
   13    12    14    1
   14    12    15    1
   15    15    16    1
   16    15    17    1
   17    15    18    1
   18    18    19    1
   19    18    20    2
@<TRIPOS>SUBSTRUCTURE
       1 MOL1            1 RESIDUE      1      MOL     
@<SCITEGIC>MOL_PROPERTY
VConf Rank
SciTegic.value.IntegerValue
743

@<SCITEGIC>MOL_PROPERTY
Conf_Id
SciTegic.value.IntegerValue
44

@<SCITEGIC>MOL_PROPERTY
Delta U+W
SciTegic.value.DoubleValue
-1.440

@<SCITEGIC>MOL_PROPERTY
U+W
SciTegic.value.DoubleValue
-53.185

@<SCITEGIC>MOL_PROPERTY
Grad RMS
SciTegic.value.DoubleValue
0.000000

@<SCITEGIC>MOL_PROPERTY
U
SciTegic.value.DoubleValue
6.572

@<SCITEGIC>MOL_PROPERTY
W
SciTegic.value.DoubleValue
-59.757

@<SCITEGIC>MOL_PROPERTY
W(PB)
SciTegic.value.DoubleValue
-62.007

@<SCITEGIC>MOL_PROPERTY
W(SA)
SciTegic.value.DoubleValue
2.249

@<SCITEGIC>MOL_PROPERTY
Valence
SciTegic.value.DoubleValue
7.989

@<SCITEGIC>MOL_PROPERTY
Coulomb
SciTegic.value.DoubleValue
-2.697

@<SCITEGIC>MOL_PROPERTY
VdW
SciTegic.value.DoubleValue
1.281

@<SCITEGIC>MOL_PROPERTY
VdW6
SciTegic.value.DoubleValue
-6.467

@<SCITEGIC>MOL_PROPERTY
VdW12
SciTegic.value.DoubleValue
7.748

@<SCITEGIC>MOL_PROPERTY
Bond
SciTegic.value.DoubleValue
0.136

@<SCITEGIC>MOL_PROPERTY
Angle
SciTegic.value.DoubleValue
2.854

@<SCITEGIC>MOL_PROPERTY
Pdih
SciTegic.value.DoubleValue
4.997

@<SCITEGIC>MOL_PROPERTY
Idih
SciTegic.value.DoubleValue
0.001

@<SCITEGIC>MOL_PROPERTY
Tether
SciTegic.value.DoubleValue
0.000

@<TRIPOS>MOLECULE
guest-s22_confgen4.mol2 : confsearch ligand conformer 744
          20          19           1
SMALL
USER_CHARGES
 
@<TRIPOS>ATOM
       1    C1      22.460654   21.242604   22.263560 C.2        1 MOL1        -0.2535
       2    H1      21.707415   21.943246   21.906754 H          1 MOL1         0.0845
       3    H2      23.497274   21.575214   22.256949 H          1 MOL1         0.0845
       4    C2      22.130528   20.021099   22.690946 C.2        1 MOL1        -0.1324
       5    H3      22.900132   19.334809   23.043585 H          1 MOL1         0.0833
       6    C3      20.714589   19.490586   22.730530 C.3        1 MOL1        -0.1813
       7    H4      20.002982   20.319261   22.623231 H          1 MOL1         0.0753
       8    H5      20.522222   19.031813   23.709538 H          1 MOL1         0.0753
       9    C4      20.481252   18.447539   21.614480 C.3        1 MOL1        -0.1855
      10    H6      20.620668   18.921740   20.633211 H          1 MOL1         0.0755
      11    H7      21.249049   17.665568   21.692543 H          1 MOL1         0.0755
      12    C5      19.087710   17.777820   21.676459 C.3        1 MOL1        -0.1855
      13    H8      18.950697   17.294809   22.653853 H          1 MOL1         0.0755
      14    H9      19.048951   16.975806   20.926277 H          1 MOL1         0.0755
      15    C6      17.916482   18.760234   21.415413 C.3        1 MOL1        -0.1958
      16    H10     17.869756   19.523658   22.200080 H          1 MOL1         0.0753
      17    H11     18.064873   19.281343   20.462091 H          1 MOL1         0.0753
      18    C7      16.562004   18.062401   21.366958 C.2        1 MOL1         0.6174
      19    O1      16.165670   17.653116   20.293580 O.co2      1 MOL1        -0.6695
      20    O2      15.947877   17.928681   22.406996 O.co2      1 MOL1        -0.6695
@<TRIPOS>BOND
    1     1     2    1
    2     1     3    1
    3     1     4    2
    4     4     5    1
    5     4     6    1
    6     6     7    1
    7     6     8    1
    8     6     9    1
    9     9    10    1
   10     9    11    1
   11     9    12    1
   12    12    13    1
   13    12    14    1
   14    12    15    1
   15    15    16    1
   16    15    17    1
   17    15    18    1
   18    18    19    1
   19    18    20    2
@<TRIPOS>SUBSTRUCTURE
       1 MOL1            1 RESIDUE      1      MOL     
@<SCITEGIC>MOL_PROPERTY
VConf Rank
SciTegic.value.IntegerValue
744

@<SCITEGIC>MOL_PROPERTY
Conf_Id
SciTegic.value.IntegerValue
38

@<SCITEGIC>MOL_PROPERTY
Delta U+W
SciTegic.value.DoubleValue
-0.381

@<SCITEGIC>MOL_PROPERTY
U+W
SciTegic.value.DoubleValue
-52.126

@<SCITEGIC>MOL_PROPERTY
Grad RMS
SciTegic.value.DoubleValue
0.000000

@<SCITEGIC>MOL_PROPERTY
U
SciTegic.value.DoubleValue
7.601

@<SCITEGIC>MOL_PROPERTY
W
SciTegic.value.DoubleValue
-59.727

@<SCITEGIC>MOL_PROPERTY
W(PB)
SciTegic.value.DoubleValue
-61.964

@<SCITEGIC>MOL_PROPERTY
W(SA)
SciTegic.value.DoubleValue
2.236

@<SCITEGIC>MOL_PROPERTY
Valence
SciTegic.value.DoubleValue
9.602

@<SCITEGIC>MOL_PROPERTY
Coulomb
SciTegic.value.DoubleValue
-2.686

@<SCITEGIC>MOL_PROPERTY
VdW
SciTegic.value.DoubleValue
0.685

@<SCITEGIC>MOL_PROPERTY
VdW6
SciTegic.value.DoubleValue
-6.453

@<SCITEGIC>MOL_PROPERTY
VdW12
SciTegic.value.DoubleValue
7.139

@<SCITEGIC>MOL_PROPERTY
Bond
SciTegic.value.DoubleValue
0.125

@<SCITEGIC>MOL_PROPERTY
Angle
SciTegic.value.DoubleValue
2.485

@<SCITEGIC>MOL_PROPERTY
Pdih
SciTegic.value.DoubleValue
6.991

@<SCITEGIC>MOL_PROPERTY
Idih
SciTegic.value.DoubleValue
0.001

@<SCITEGIC>MOL_PROPERTY
Tether
SciTegic.value.DoubleValue
0.000

@<TRIPOS>MOLECULE
guest-s22_confgen4.mol2 : confsearch ligand conformer 745
          20          19           1
SMALL
USER_CHARGES
 
@<TRIPOS>ATOM
       1    C1      22.428715   21.454619   22.672035 C.2        1 MOL1        -0.2535
       2    H1      21.771392   22.244537   23.031944 H          1 MOL1         0.0845
       3    H2      23.471642   21.490625   22.982317 H          1 MOL1         0.0845
       4    C2      21.976955   20.476649   21.882635 C.2        1 MOL1        -0.1324
       5    H3      22.651383   19.694788   21.534068 H          1 MOL1         0.0833
       6    C3      20.544567   20.361378   21.410801 C.3        1 MOL1        -0.1813
       7    H4      20.527814   20.188155   20.326440 H          1 MOL1         0.0753
       8    H5      20.008572   21.303577   21.588878 H          1 MOL1         0.0753
       9    C4      19.812213   19.209047   22.129691 C.3        1 MOL1        -0.1855
      10    H6      20.348947   18.267579   21.948067 H          1 MOL1         0.0755
      11    H7      19.835254   19.383371   23.214289 H          1 MOL1         0.0755
      12    C5      18.347044   19.075496   21.656642 C.3        1 MOL1        -0.1855
      13    H8      18.320774   18.890481   20.573694 H          1 MOL1         0.0755
      14    H9      17.823156   20.025668   21.827809 H          1 MOL1         0.0755
      15    C6      17.584731   17.941475   22.389969 C.3        1 MOL1        -0.1958
      16    H10     17.625855   18.097148   23.474835 H          1 MOL1         0.0753
      17    H11     16.526298   17.967699   22.105347 H          1 MOL1         0.0753
      18    C7      18.106366   16.541550   22.078564 C.2        1 MOL1         0.6174
      19    O1      18.772312   15.974189   22.922121 O.co2      1 MOL1        -0.6695
      20    O2      17.822724   16.051200   21.003296 O.co2      1 MOL1        -0.6695
@<TRIPOS>BOND
    1     1     2    1
    2     1     3    1
    3     1     4    2
    4     4     5    1
    5     4     6    1
    6     6     7    1
    7     6     8    1
    8     6     9    1
    9     9    10    1
   10     9    11    1
   11     9    12    1
   12    12    13    1
   13    12    14    1
   14    12    15    1
   15    15    16    1
   16    15    17    1
   17    15    18    1
   18    18    19    1
   19    18    20    2
@<TRIPOS>SUBSTRUCTURE
       1 MOL1            1 RESIDUE      1      MOL     
@<SCITEGIC>MOL_PROPERTY
VConf Rank
SciTegic.value.IntegerValue
745

@<SCITEGIC>MOL_PROPERTY
Conf_Id
SciTegic.value.IntegerValue
58

@<SCITEGIC>MOL_PROPERTY
Delta U+W
SciTegic.value.DoubleValue
0.019

@<SCITEGIC>MOL_PROPERTY
U+W
SciTegic.value.DoubleValue
-51.727

@<SCITEGIC>MOL_PROPERTY
Grad RMS
SciTegic.value.DoubleValue
0.000000

@<SCITEGIC>MOL_PROPERTY
U
SciTegic.value.DoubleValue
8.963

@<SCITEGIC>MOL_PROPERTY
W
SciTegic.value.DoubleValue
-60.690

@<SCITEGIC>MOL_PROPERTY
W(PB)
SciTegic.value.DoubleValue
-62.934

@<SCITEGIC>MOL_PROPERTY
W(SA)
SciTegic.value.DoubleValue
2.244

@<SCITEGIC>MOL_PROPERTY
Valence
SciTegic.value.DoubleValue
9.327

@<SCITEGIC>MOL_PROPERTY
Coulomb
SciTegic.value.DoubleValue
-0.780

@<SCITEGIC>MOL_PROPERTY
VdW
SciTegic.value.DoubleValue
0.417

@<SCITEGIC>MOL_PROPERTY
VdW6
SciTegic.value.DoubleValue
-6.635

@<SCITEGIC>MOL_PROPERTY
VdW12
SciTegic.value.DoubleValue
7.052

@<SCITEGIC>MOL_PROPERTY
Bond
SciTegic.value.DoubleValue
0.105

@<SCITEGIC>MOL_PROPERTY
Angle
SciTegic.value.DoubleValue
2.399

@<SCITEGIC>MOL_PROPERTY
Pdih
SciTegic.value.DoubleValue
6.822

@<SCITEGIC>MOL_PROPERTY
Idih
SciTegic.value.DoubleValue
0.000

@<SCITEGIC>MOL_PROPERTY
Tether
SciTegic.value.DoubleValue
0.000

@<TRIPOS>MOLECULE
guest-s22_confgen4.mol2 : confsearch ligand conformer 746
          20          19           1
SMALL
USER_CHARGES
 
@<TRIPOS>ATOM
       1    C1      19.509215   16.728614   19.520754 C.2        1 MOL1        -0.2535
       2    H1      19.912451   17.384783   18.751066 H          1 MOL1         0.0845
       3    H2      18.916977   15.876154   19.192376 H          1 MOL1         0.0845
       4    C2      19.727919   16.958258   20.818097 C.2        1 MOL1        -0.1324
       5    H3      19.314392   16.289621   21.572801 H          1 MOL1         0.0833
       6    C3      20.539403   18.119175   21.348575 C.3        1 MOL1        -0.1813
       7    H4      21.119338   18.579898   20.537310 H          1 MOL1         0.0753
       8    H5      21.264845   17.753084   22.087383 H          1 MOL1         0.0753
       9    C4      19.630619   19.182794   21.999604 C.3        1 MOL1        -0.1855
      10    H6      18.903362   19.543091   21.258960 H          1 MOL1         0.0755
      11    H7      19.053445   18.720001   22.812086 H          1 MOL1         0.0755
      12    C5      20.444892   20.375428   22.549978 C.3        1 MOL1        -0.1855
      13    H8      21.030133   20.821517   21.734453 H          1 MOL1         0.0755
      14    H9      21.166122   20.019855   23.299038 H          1 MOL1         0.0755
      15    C6      19.546247   21.470172   23.181537 C.3        1 MOL1        -0.1958
      16    H10     20.159186   22.339745   23.446351 H          1 MOL1         0.0753
      17    H11     18.802044   21.815884   22.453867 H          1 MOL1         0.0753
      18    C7      18.819361   21.022136   24.446355 C.2        1 MOL1         0.6174
      19    O1      19.460109   20.939402   25.475769 O.co2      1 MOL1        -0.6695
      20    O2      17.631028   20.778585   24.372078 O.co2      1 MOL1        -0.6695
@<TRIPOS>BOND
    1     1     2    1
    2     1     3    1
    3     1     4    2
    4     4     5    1
    5     4     6    1
    6     6     7    1
    7     6     8    1
    8     6     9    1
    9     9    10    1
   10     9    11    1
   11     9    12    1
   12    12    13    1
   13    12    14    1
   14    12    15    1
   15    15    16    1
   16    15    17    1
   17    15    18    1
   18    18    19    1
   19    18    20    2
@<TRIPOS>SUBSTRUCTURE
       1 MOL1            1 RESIDUE      1      MOL     
@<SCITEGIC>MOL_PROPERTY
VConf Rank
SciTegic.value.IntegerValue
746

@<SCITEGIC>MOL_PROPERTY
Conf_Id
SciTegic.value.IntegerValue
54

@<SCITEGIC>MOL_PROPERTY
Delta U+W
SciTegic.value.DoubleValue
-0.048

@<SCITEGIC>MOL_PROPERTY
U+W
SciTegic.value.DoubleValue
-51.793

@<SCITEGIC>MOL_PROPERTY
Grad RMS
SciTegic.value.DoubleValue
0.000000

@<SCITEGIC>MOL_PROPERTY
U
SciTegic.value.DoubleValue
8.964

@<SCITEGIC>MOL_PROPERTY
W
SciTegic.value.DoubleValue
-60.756

@<SCITEGIC>MOL_PROPERTY
W(PB)
SciTegic.value.DoubleValue
-63.007

@<SCITEGIC>MOL_PROPERTY
W(SA)
SciTegic.value.DoubleValue
2.251

@<SCITEGIC>MOL_PROPERTY
Valence
SciTegic.value.DoubleValue
9.327

@<SCITEGIC>MOL_PROPERTY
Coulomb
SciTegic.value.DoubleValue
-0.780

@<SCITEGIC>MOL_PROPERTY
VdW
SciTegic.value.DoubleValue
0.417

@<SCITEGIC>MOL_PROPERTY
VdW6
SciTegic.value.DoubleValue
-6.635

@<SCITEGIC>MOL_PROPERTY
VdW12
SciTegic.value.DoubleValue
7.052

@<SCITEGIC>MOL_PROPERTY
Bond
SciTegic.value.DoubleValue
0.105

@<SCITEGIC>MOL_PROPERTY
Angle
SciTegic.value.DoubleValue
2.399

@<SCITEGIC>MOL_PROPERTY
Pdih
SciTegic.value.DoubleValue
6.822

@<SCITEGIC>MOL_PROPERTY
Idih
SciTegic.value.DoubleValue
0.000

@<SCITEGIC>MOL_PROPERTY
Tether
SciTegic.value.DoubleValue
0.000

@<TRIPOS>MOLECULE
guest-s22_confgen4.mol2 : confsearch ligand conformer 747
          20          19           1
SMALL
USER_CHARGES
 
@<TRIPOS>ATOM
       1    C1      21.784621   18.769624   19.303237 C.2        1 MOL1        -0.2535
       2    H1      22.812023   18.434006   19.172880 H          1 MOL1         0.0845
       3    H2      21.066762   18.497911   18.530995 H          1 MOL1         0.0845
       4    C2      21.422269   19.484110   20.371826 C.2        1 MOL1        -0.1324
       5    H3      22.157591   19.748180   21.131314 H          1 MOL1         0.0833
       6    C3      20.016470   19.990048   20.615965 C.3        1 MOL1        -0.1813
       7    H4      19.457923   20.001248   19.670221 H          1 MOL1         0.0753
       8    H5      20.048448   21.030478   20.966007 H          1 MOL1         0.0753
       9    C4      19.246000   19.120554   21.635061 C.3        1 MOL1        -0.1855
      10    H6      18.199820   19.454869   21.661930 H          1 MOL1         0.0755
      11    H7      19.232219   18.077848   21.289067 H          1 MOL1         0.0755
      12    C5      19.843675   19.191934   23.060471 C.3        1 MOL1        -0.1855
      13    H8      19.871082   20.236312   23.401002 H          1 MOL1         0.0755
      14    H9      20.882928   18.838319   23.040367 H          1 MOL1         0.0755
      15    C6      19.048703   18.338904   24.082988 C.3        1 MOL1        -0.1958
      16    H10     18.983818   17.299343   23.739571 H          1 MOL1         0.0753
      17    H11     19.582016   18.324136   25.040753 H          1 MOL1         0.0753
      18    C7      17.637287   18.851460   24.355068 C.2        1 MOL1         0.6174
      19    O1      16.701933   18.252879   23.861243 O.co2      1 MOL1        -0.6695
      20    O2      17.510610   19.830799   25.063561 O.co2      1 MOL1        -0.6695
@<TRIPOS>BOND
    1     1     2    1
    2     1     3    1
    3     1     4    2
    4     4     5    1
    5     4     6    1
    6     6     7    1
    7     6     8    1
    8     6     9    1
    9     9    10    1
   10     9    11    1
   11     9    12    1
   12    12    13    1
   13    12    14    1
   14    12    15    1
   15    15    16    1
   16    15    17    1
   17    15    18    1
   18    18    19    1
   19    18    20    2
@<TRIPOS>SUBSTRUCTURE
       1 MOL1            1 RESIDUE      1      MOL     
@<SCITEGIC>MOL_PROPERTY
VConf Rank
SciTegic.value.IntegerValue
747

@<SCITEGIC>MOL_PROPERTY
Conf_Id
SciTegic.value.IntegerValue
27

@<SCITEGIC>MOL_PROPERTY
Delta U+W
SciTegic.value.DoubleValue
0.478

@<SCITEGIC>MOL_PROPERTY
U+W
SciTegic.value.DoubleValue
-51.267

@<SCITEGIC>MOL_PROPERTY
Grad RMS
SciTegic.value.DoubleValue
0.000000

@<SCITEGIC>MOL_PROPERTY
U
SciTegic.value.DoubleValue
9.192

@<SCITEGIC>MOL_PROPERTY
W
SciTegic.value.DoubleValue
-60.459

@<SCITEGIC>MOL_PROPERTY
W(PB)
SciTegic.value.DoubleValue
-62.649

@<SCITEGIC>MOL_PROPERTY
W(SA)
SciTegic.value.DoubleValue
2.190

@<SCITEGIC>MOL_PROPERTY
Valence
SciTegic.value.DoubleValue
9.572

@<SCITEGIC>MOL_PROPERTY
Coulomb
SciTegic.value.DoubleValue
-0.884

@<SCITEGIC>MOL_PROPERTY
VdW
SciTegic.value.DoubleValue
0.504

@<SCITEGIC>MOL_PROPERTY
VdW6
SciTegic.value.DoubleValue
-7.168

@<SCITEGIC>MOL_PROPERTY
VdW12
SciTegic.value.DoubleValue
7.672

@<SCITEGIC>MOL_PROPERTY
Bond
SciTegic.value.DoubleValue
0.127

@<SCITEGIC>MOL_PROPERTY
Angle
SciTegic.value.DoubleValue
2.504

@<SCITEGIC>MOL_PROPERTY
Pdih
SciTegic.value.DoubleValue
6.941

@<SCITEGIC>MOL_PROPERTY
Idih
SciTegic.value.DoubleValue
0.001

@<SCITEGIC>MOL_PROPERTY
Tether
SciTegic.value.DoubleValue
0.000

@<TRIPOS>MOLECULE
guest-s22_confgen4.mol2 : confsearch ligand conformer 748
          20          19           1
SMALL
USER_CHARGES
 
@<TRIPOS>ATOM
       1    C1      16.613285   17.503265   21.582138 C.2        1 MOL1        -0.2535
       2    H1      16.262482   17.782896   20.590044 H          1 MOL1         0.0845
       3    H2      15.862217   17.357685   22.356671 H          1 MOL1         0.0845
       4    C2      17.913626   17.347127   21.843691 C.2        1 MOL1        -0.1324
       5    H3      18.242939   17.063865   22.842995 H          1 MOL1         0.0833
       6    C3      19.012002   17.526235   20.817393 C.3        1 MOL1        -0.1813
       7    H4      18.589493   17.452405   19.806160 H          1 MOL1         0.0753
       8    H5      19.742711   16.711127   20.905279 H          1 MOL1         0.0753
       9    C4      19.730001   18.887624   20.955812 C.3        1 MOL1        -0.1855
      10    H6      20.418489   19.011993   20.108820 H          1 MOL1         0.0755
      11    H7      18.991943   19.698335   20.882852 H          1 MOL1         0.0755
      12    C5      20.522324   19.017767   22.276921 C.3        1 MOL1        -0.1855
      13    H8      21.241948   18.191623   22.360493 H          1 MOL1         0.0755
      14    H9      19.839633   18.934537   23.133477 H          1 MOL1         0.0755
      15    C6      21.279200   20.365998   22.363364 C.3        1 MOL1        -0.1958
      16    H10     21.979489   20.462137   21.524979 H          1 MOL1         0.0753
      17    H11     20.572550   21.201680   22.293441 H          1 MOL1         0.0753
      18    C7      22.068060   20.519693   23.658790 C.2        1 MOL1         0.6174
      19    O1      21.511538   21.026396   24.612832 O.co2      1 MOL1        -0.6695
      20    O2      23.212737   20.112592   23.684896 O.co2      1 MOL1        -0.6695
@<TRIPOS>BOND
    1     1     2    1
    2     1     3    1
    3     1     4    2
    4     4     5    1
    5     4     6    1
    6     6     7    1
    7     6     8    1
    8     6     9    1
    9     9    10    1
   10     9    11    1
   11     9    12    1
   12    12    13    1
   13    12    14    1
   14    12    15    1
   15    15    16    1
   16    15    17    1
   17    15    18    1
   18    18    19    1
   19    18    20    2
@<TRIPOS>SUBSTRUCTURE
       1 MOL1            1 RESIDUE      1      MOL     
@<SCITEGIC>MOL_PROPERTY
VConf Rank
SciTegic.value.IntegerValue
748

@<SCITEGIC>MOL_PROPERTY
Conf_Id
SciTegic.value.IntegerValue
41

@<SCITEGIC>MOL_PROPERTY
Delta U+W
SciTegic.value.DoubleValue
-0.634

@<SCITEGIC>MOL_PROPERTY
U+W
SciTegic.value.DoubleValue
-52.379

@<SCITEGIC>MOL_PROPERTY
Grad RMS
SciTegic.value.DoubleValue
0.000000

@<SCITEGIC>MOL_PROPERTY
U
SciTegic.value.DoubleValue
7.828

@<SCITEGIC>MOL_PROPERTY
W
SciTegic.value.DoubleValue
-60.207

@<SCITEGIC>MOL_PROPERTY
W(PB)
SciTegic.value.DoubleValue
-62.449

@<SCITEGIC>MOL_PROPERTY
W(SA)
SciTegic.value.DoubleValue
2.242

@<SCITEGIC>MOL_PROPERTY
Valence
SciTegic.value.DoubleValue
9.300

@<SCITEGIC>MOL_PROPERTY
Coulomb
SciTegic.value.DoubleValue
-2.080

@<SCITEGIC>MOL_PROPERTY
VdW
SciTegic.value.DoubleValue
0.608

@<SCITEGIC>MOL_PROPERTY
VdW6
SciTegic.value.DoubleValue
-6.341

@<SCITEGIC>MOL_PROPERTY
VdW12
SciTegic.value.DoubleValue
6.949

@<SCITEGIC>MOL_PROPERTY
Bond
SciTegic.value.DoubleValue
0.103

@<SCITEGIC>MOL_PROPERTY
Angle
SciTegic.value.DoubleValue
2.334

@<SCITEGIC>MOL_PROPERTY
Pdih
SciTegic.value.DoubleValue
6.862

@<SCITEGIC>MOL_PROPERTY
Idih
SciTegic.value.DoubleValue
0.001

@<SCITEGIC>MOL_PROPERTY
Tether
SciTegic.value.DoubleValue
0.000

@<TRIPOS>MOLECULE
guest-s22_confgen4.mol2 : confsearch ligand conformer 749
          20          19           1
SMALL
USER_CHARGES
 
@<TRIPOS>ATOM
       1    C1      22.259731   16.269796   22.086151 C.2        1 MOL1        -0.2535
       2    H1      22.606758   15.371962   21.577520 H          1 MOL1         0.0845
       3    H2      22.948749   16.751836   22.777847 H          1 MOL1         0.0845
       4    C2      21.036620   16.758774   21.865662 C.2        1 MOL1        -0.1324
       5    H3      20.362107   16.261731   21.168780 H          1 MOL1         0.0833
       6    C3      20.485452   17.998250   22.534626 C.3        1 MOL1        -0.1813
       7    H4      21.112518   18.278552   23.391710 H          1 MOL1         0.0753
       8    H5      19.484841   17.778979   22.929153 H          1 MOL1         0.0753
       9    C4      20.411941   19.178910   21.540739 C.3        1 MOL1        -0.1855
      10    H6      21.400555   19.318276   21.082070 H          1 MOL1         0.0755
      11    H7      19.724685   18.926965   20.721311 H          1 MOL1         0.0755
      12    C5      19.980317   20.513791   22.196472 C.3        1 MOL1        -0.1855
      13    H8      20.029174   21.310640   21.441468 H          1 MOL1         0.0755
      14    H9      20.704748   20.784510   22.976420 H          1 MOL1         0.0755
      15    C6      18.553817   20.495970   22.810636 C.3        1 MOL1        -0.1958
      16    H10     18.490385   19.761382   23.621415 H          1 MOL1         0.0753
      17    H11     18.340144   21.472727   23.260075 H          1 MOL1         0.0753
      18    C7      17.445021   20.208101   21.802450 C.2        1 MOL1         0.6174
      19    O1      17.162426   21.075514   20.999244 O.co2      1 MOL1        -0.6695
      20    O2      16.881214   19.132911   21.857611 O.co2      1 MOL1        -0.6695
@<TRIPOS>BOND
    1     1     2    1
    2     1     3    1
    3     1     4    2
    4     4     5    1
    5     4     6    1
    6     6     7    1
    7     6     8    1
    8     6     9    1
    9     9    10    1
   10     9    11    1
   11     9    12    1
   12    12    13    1
   13    12    14    1
   14    12    15    1
   15    15    16    1
   16    15    17    1
   17    15    18    1
   18    18    19    1
   19    18    20    2
@<TRIPOS>SUBSTRUCTURE
       1 MOL1            1 RESIDUE      1      MOL     
@<SCITEGIC>MOL_PROPERTY
VConf Rank
SciTegic.value.IntegerValue
749

@<SCITEGIC>MOL_PROPERTY
Conf_Id
SciTegic.value.IntegerValue
84

@<SCITEGIC>MOL_PROPERTY
Delta U+W
SciTegic.value.DoubleValue
0.942

@<SCITEGIC>MOL_PROPERTY
U+W
SciTegic.value.DoubleValue
-50.803

@<SCITEGIC>MOL_PROPERTY
Grad RMS
SciTegic.value.DoubleValue
0.000000

@<SCITEGIC>MOL_PROPERTY
U
SciTegic.value.DoubleValue
10.196

@<SCITEGIC>MOL_PROPERTY
W
SciTegic.value.DoubleValue
-60.999

@<SCITEGIC>MOL_PROPERTY
W(PB)
SciTegic.value.DoubleValue
-63.182

@<SCITEGIC>MOL_PROPERTY
W(SA)
SciTegic.value.DoubleValue
2.182

@<SCITEGIC>MOL_PROPERTY
Valence
SciTegic.value.DoubleValue
9.837

@<SCITEGIC>MOL_PROPERTY
Coulomb
SciTegic.value.DoubleValue
0.032

@<SCITEGIC>MOL_PROPERTY
VdW
SciTegic.value.DoubleValue
0.328

@<SCITEGIC>MOL_PROPERTY
VdW6
SciTegic.value.DoubleValue
-7.642

@<SCITEGIC>MOL_PROPERTY
VdW12
SciTegic.value.DoubleValue
7.969

@<SCITEGIC>MOL_PROPERTY
Bond
SciTegic.value.DoubleValue
0.151

@<SCITEGIC>MOL_PROPERTY
Angle
SciTegic.value.DoubleValue
2.748

@<SCITEGIC>MOL_PROPERTY
Pdih
SciTegic.value.DoubleValue
6.937

@<SCITEGIC>MOL_PROPERTY
Idih
SciTegic.value.DoubleValue
0.001

@<SCITEGIC>MOL_PROPERTY
Tether
SciTegic.value.DoubleValue
0.000

@<TRIPOS>MOLECULE
guest-s22_confgen4.mol2 : confsearch ligand conformer 750
          20          19           1
SMALL
USER_CHARGES
 
@<TRIPOS>ATOM
       1    C1      19.145727   20.724610   18.977210 C.2        1 MOL1        -0.2535
       2    H1      19.036664   21.663195   18.436445 H          1 MOL1         0.0845
       3    H2      19.819625   19.979701   18.557026 H          1 MOL1         0.0845
       4    C2      18.479032   20.500791   20.112589 C.2        1 MOL1        -0.1324
       5    H3      17.809894   21.260080   20.516781 H          1 MOL1         0.0833
       6    C3      18.579078   19.223729   20.916808 C.3        1 MOL1        -0.1813
       7    H4      19.056481   18.434755   20.319820 H          1 MOL1         0.0753
       8    H5      17.570800   18.866085   21.164898 H          1 MOL1         0.0753
       9    C4      19.384444   19.443901   22.214487 C.3        1 MOL1        -0.1855
      10    H6      20.389531   19.807598   21.959134 H          1 MOL1         0.0755
      11    H7      18.905261   20.230026   22.814019 H          1 MOL1         0.0755
      12    C5      19.493112   18.148377   23.050036 C.3        1 MOL1        -0.1855
      13    H8      19.984841   17.363844   22.458070 H          1 MOL1         0.0755
      14    H9      18.484189   17.782361   23.283867 H          1 MOL1         0.0755
      15    C6      20.272297   18.356537   24.374583 C.3        1 MOL1        -0.1958
      16    H10     19.809015   19.156207   24.965134 H          1 MOL1         0.0753
      17    H11     20.218190   17.443433   24.978974 H          1 MOL1         0.0753
      18    C7      21.749193   18.687825   24.179850 C.2        1 MOL1         0.6174
      19    O1      22.110931   19.833941   24.360223 O.co2      1 MOL1        -0.6695
      20    O2      22.501269   17.786415   23.865290 O.co2      1 MOL1        -0.6695
@<TRIPOS>BOND
    1     1     2    1
    2     1     3    1
    3     1     4    2
    4     4     5    1
    5     4     6    1
    6     6     7    1
    7     6     8    1
    8     6     9    1
    9     9    10    1
   10     9    11    1
   11     9    12    1
   12    12    13    1
   13    12    14    1
   14    12    15    1
   15    15    16    1
   16    15    17    1
   17    15    18    1
   18    18    19    1
   19    18    20    2
@<TRIPOS>SUBSTRUCTURE
       1 MOL1            1 RESIDUE      1      MOL     
@<SCITEGIC>MOL_PROPERTY
VConf Rank
SciTegic.value.IntegerValue
750

@<SCITEGIC>MOL_PROPERTY
Conf_Id
SciTegic.value.IntegerValue
81

@<SCITEGIC>MOL_PROPERTY
Delta U+W
SciTegic.value.DoubleValue
-0.051

@<SCITEGIC>MOL_PROPERTY
U+W
SciTegic.value.DoubleValue
-51.796

@<SCITEGIC>MOL_PROPERTY
Grad RMS
SciTegic.value.DoubleValue
0.000000

@<SCITEGIC>MOL_PROPERTY
U
SciTegic.value.DoubleValue
9.412

@<SCITEGIC>MOL_PROPERTY
W
SciTegic.value.DoubleValue
-61.209

@<SCITEGIC>MOL_PROPERTY
W(PB)
SciTegic.value.DoubleValue
-63.452

@<SCITEGIC>MOL_PROPERTY
W(SA)
SciTegic.value.DoubleValue
2.243

@<SCITEGIC>MOL_PROPERTY
Valence
SciTegic.value.DoubleValue
9.329

@<SCITEGIC>MOL_PROPERTY
Coulomb
SciTegic.value.DoubleValue
-0.323

@<SCITEGIC>MOL_PROPERTY
VdW
SciTegic.value.DoubleValue
0.406

@<SCITEGIC>MOL_PROPERTY
VdW6
SciTegic.value.DoubleValue
-6.640

@<SCITEGIC>MOL_PROPERTY
VdW12
SciTegic.value.DoubleValue
7.046

@<SCITEGIC>MOL_PROPERTY
Bond
SciTegic.value.DoubleValue
0.105

@<SCITEGIC>MOL_PROPERTY
Angle
SciTegic.value.DoubleValue
2.401

@<SCITEGIC>MOL_PROPERTY
Pdih
SciTegic.value.DoubleValue
6.823

@<SCITEGIC>MOL_PROPERTY
Idih
SciTegic.value.DoubleValue
0.000

@<SCITEGIC>MOL_PROPERTY
Tether
SciTegic.value.DoubleValue
0.000

@<TRIPOS>MOLECULE
guest-s22_confgen4.mol2 : confsearch ligand conformer 751
          20          19           1
SMALL
USER_CHARGES
 
@<TRIPOS>ATOM
       1    C1      22.703332   19.635576   22.963230 C.2        1 MOL1        -0.2535
       2    H1      23.324180   18.860744   22.516418 H          1 MOL1         0.0845
       3    H2      23.207573   20.514798   23.360540 H          1 MOL1         0.0845
       4    C2      21.374299   19.517184   23.020972 C.2        1 MOL1        -0.1324
       5    H3      20.771358   20.303268   23.474578 H          1 MOL1         0.0833
       6    C3      20.605443   18.323828   22.495340 C.3        1 MOL1        -0.1813
       7    H4      19.845231   18.014718   23.224354 H          1 MOL1         0.0753
       8    H5      21.282371   17.465755   22.387204 H          1 MOL1         0.0753
       9    C4      19.944632   18.603578   21.124291 C.3        1 MOL1        -0.1855
      10    H6      20.731976   18.825588   20.391055 H          1 MOL1         0.0755
      11    H7      19.451734   17.686704   20.773057 H          1 MOL1         0.0755
      12    C5      18.919710   19.767032   21.123997 C.3        1 MOL1        -0.1855
      13    H8      18.534730   19.896428   20.103101 H          1 MOL1         0.0755
      14    H9      19.430683   20.705513   21.376694 H          1 MOL1         0.0755
      15    C6      17.718148   19.565355   22.087204 C.3        1 MOL1        -0.1958
      16    H10     18.061547   19.508124   23.126359 H          1 MOL1         0.0753
      17    H11     17.054858   20.436025   22.027315 H          1 MOL1         0.0753
      18    C7      16.875602   18.330281   21.781834 C.2        1 MOL1         0.6174
      19    O1      16.939372   17.386105   22.544430 O.co2      1 MOL1        -0.6695
      20    O2      16.163452   18.352436   20.797044 O.co2      1 MOL1        -0.6695
@<TRIPOS>BOND
    1     1     2    1
    2     1     3    1
    3     1     4    2
    4     4     5    1
    5     4     6    1
    6     6     7    1
    7     6     8    1
    8     6     9    1
    9     9    10    1
   10     9    11    1
   11     9    12    1
   12    12    13    1
   13    12    14    1
   14    12    15    1
   15    15    16    1
   16    15    17    1
   17    15    18    1
   18    18    19    1
   19    18    20    2
@<TRIPOS>SUBSTRUCTURE
       1 MOL1            1 RESIDUE      1      MOL     
@<SCITEGIC>MOL_PROPERTY
VConf Rank
SciTegic.value.IntegerValue
751

@<SCITEGIC>MOL_PROPERTY
Conf_Id
SciTegic.value.IntegerValue
86

@<SCITEGIC>MOL_PROPERTY
Delta U+W
SciTegic.value.DoubleValue
1.248

@<SCITEGIC>MOL_PROPERTY
U+W
SciTegic.value.DoubleValue
-50.498

@<SCITEGIC>MOL_PROPERTY
Grad RMS
SciTegic.value.DoubleValue
0.000000

@<SCITEGIC>MOL_PROPERTY
U
SciTegic.value.DoubleValue
10.404

@<SCITEGIC>MOL_PROPERTY
W
SciTegic.value.DoubleValue
-60.901

@<SCITEGIC>MOL_PROPERTY
W(PB)
SciTegic.value.DoubleValue
-63.061

@<SCITEGIC>MOL_PROPERTY
W(SA)
SciTegic.value.DoubleValue
2.159

@<SCITEGIC>MOL_PROPERTY
Valence
SciTegic.value.DoubleValue
10.021

@<SCITEGIC>MOL_PROPERTY
Coulomb
SciTegic.value.DoubleValue
0.094

@<SCITEGIC>MOL_PROPERTY
VdW
SciTegic.value.DoubleValue
0.289

@<SCITEGIC>MOL_PROPERTY
VdW6
SciTegic.value.DoubleValue
-8.409

@<SCITEGIC>MOL_PROPERTY
VdW12
SciTegic.value.DoubleValue
8.698

@<SCITEGIC>MOL_PROPERTY
Bond
SciTegic.value.DoubleValue
0.179

@<SCITEGIC>MOL_PROPERTY
Angle
SciTegic.value.DoubleValue
2.939

@<SCITEGIC>MOL_PROPERTY
Pdih
SciTegic.value.DoubleValue
6.902

@<SCITEGIC>MOL_PROPERTY
Idih
SciTegic.value.DoubleValue
0.001

@<SCITEGIC>MOL_PROPERTY
Tether
SciTegic.value.DoubleValue
0.000

@<TRIPOS>MOLECULE
guest-s22_confgen4.mol2 : confsearch ligand conformer 752
          20          19           1
SMALL
USER_CHARGES
 
@<TRIPOS>ATOM
       1    C1      22.046966   18.774423   24.179021 C.2        1 MOL1        -0.2535
       2    H1      22.150473   18.847198   25.260268 H          1 MOL1         0.0845
       3    H2      22.333631   17.834520   23.710165 H          1 MOL1         0.0845
       4    C2      21.582523   19.799411   23.459496 C.2        1 MOL1        -0.1324
       5    H3      21.298979   20.730974   23.948560 H          1 MOL1         0.0833
       6    C3      21.410620   19.772728   21.955571 C.3        1 MOL1        -0.1813
       7    H4      21.901635   18.889181   21.525559 H          1 MOL1         0.0753
       8    H5      21.912667   20.647719   21.521795 H          1 MOL1         0.0753
       9    C4      19.923837   19.792198   21.534673 C.3        1 MOL1        -0.1855
      10    H6      19.431049   20.673498   21.967562 H          1 MOL1         0.0755
      11    H7      19.867929   19.907021   20.443480 H          1 MOL1         0.0755
      12    C5      19.167600   18.509627   21.955050 C.3        1 MOL1        -0.1855
      13    H8      19.216840   18.397228   23.046385 H          1 MOL1         0.0755
      14    H9      19.662991   17.628137   21.525034 H          1 MOL1         0.0755
      15    C6      17.678697   18.525818   21.521531 C.3        1 MOL1        -0.1958
      16    H10     17.163690   17.657082   21.948154 H          1 MOL1         0.0753
      17    H11     17.178581   19.417762   21.917886 H          1 MOL1         0.0753
      18    C7      17.471828   18.481999   20.010237 C.2        1 MOL1         0.6174
      19    O1      17.627209   17.419103   19.441697 O.co2      1 MOL1        -0.6695
      20    O2      17.149962   19.507532   19.442989 O.co2      1 MOL1        -0.6695
@<TRIPOS>BOND
    1     1     2    1
    2     1     3    1
    3     1     4    2
    4     4     5    1
    5     4     6    1
    6     6     7    1
    7     6     8    1
    8     6     9    1
    9     9    10    1
   10     9    11    1
   11     9    12    1
   12    12    13    1
   13    12    14    1
   14    12    15    1
   15    15    16    1
   16    15    17    1
   17    15    18    1
   18    18    19    1
   19    18    20    2
@<TRIPOS>SUBSTRUCTURE
       1 MOL1            1 RESIDUE      1      MOL     
@<SCITEGIC>MOL_PROPERTY
VConf Rank
SciTegic.value.IntegerValue
752

@<SCITEGIC>MOL_PROPERTY
Conf_Id
SciTegic.value.IntegerValue
28

@<SCITEGIC>MOL_PROPERTY
Delta U+W
SciTegic.value.DoubleValue
0.446

@<SCITEGIC>MOL_PROPERTY
U+W
SciTegic.value.DoubleValue
-51.299

@<SCITEGIC>MOL_PROPERTY
Grad RMS
SciTegic.value.DoubleValue
0.000000

@<SCITEGIC>MOL_PROPERTY
U
SciTegic.value.DoubleValue
9.295

@<SCITEGIC>MOL_PROPERTY
W
SciTegic.value.DoubleValue
-60.594

@<SCITEGIC>MOL_PROPERTY
W(PB)
SciTegic.value.DoubleValue
-62.806

@<SCITEGIC>MOL_PROPERTY
W(SA)
SciTegic.value.DoubleValue
2.212

@<SCITEGIC>MOL_PROPERTY
Valence
SciTegic.value.DoubleValue
9.495

@<SCITEGIC>MOL_PROPERTY
Coulomb
SciTegic.value.DoubleValue
-0.610

@<SCITEGIC>MOL_PROPERTY
VdW
SciTegic.value.DoubleValue
0.409

@<SCITEGIC>MOL_PROPERTY
VdW6
SciTegic.value.DoubleValue
-7.332

@<SCITEGIC>MOL_PROPERTY
VdW12
SciTegic.value.DoubleValue
7.741

@<SCITEGIC>MOL_PROPERTY
Bond
SciTegic.value.DoubleValue
0.126

@<SCITEGIC>MOL_PROPERTY
Angle
SciTegic.value.DoubleValue
2.497

@<SCITEGIC>MOL_PROPERTY
Pdih
SciTegic.value.DoubleValue
6.872

@<SCITEGIC>MOL_PROPERTY
Idih
SciTegic.value.DoubleValue
0.000

@<SCITEGIC>MOL_PROPERTY
Tether
SciTegic.value.DoubleValue
0.000

@<TRIPOS>MOLECULE
guest-s22_confgen4.mol2 : confsearch ligand conformer 753
          20          19           1
SMALL
USER_CHARGES
 
@<TRIPOS>ATOM
       1    C1      22.055541   17.124228   21.660098 C.2        1 MOL1        -0.2535
       2    H1      21.471665   17.202750   20.745539 H          1 MOL1         0.0845
       3    H2      22.963655   16.525662   21.613326 H          1 MOL1         0.0845
       4    C2      21.694094   17.729748   22.797058 C.2        1 MOL1        -0.1324
       5    H3      22.321729   17.615816   23.680593 H          1 MOL1         0.0833
       6    C3      20.461504   18.591237   23.016177 C.3        1 MOL1        -0.1813
       7    H4      20.789919   19.601667   23.291555 H          1 MOL1         0.0753
       8    H5      19.914386   18.206256   23.886927 H          1 MOL1         0.0753
       9    C4      19.495304   18.668365   21.808241 C.3        1 MOL1        -0.1855
      10    H6      20.007180   19.134993   20.955355 H          1 MOL1         0.0755
      11    H7      19.230138   17.648921   21.496610 H          1 MOL1         0.0755
      12    C5      18.185634   19.437042   22.113139 C.3        1 MOL1        -0.1855
      13    H8      17.654475   18.935843   22.933540 H          1 MOL1         0.0755
      14    H9      17.526532   19.372954   21.236278 H          1 MOL1         0.0755
      15    C6      18.386357   20.933938   22.476003 C.3        1 MOL1        -0.1958
      16    H10     17.411680   21.389923   22.685146 H          1 MOL1         0.0753
      17    H11     18.978166   21.034497   23.392817 H          1 MOL1         0.0753
      18    C7      19.045627   21.759889   21.375062 C.2        1 MOL1         0.6174
      19    O1      18.400828   21.995437   20.371965 O.co2      1 MOL1        -0.6695
      20    O2      20.177290   22.163578   21.557357 O.co2      1 MOL1        -0.6695
@<TRIPOS>BOND
    1     1     2    1
    2     1     3    1
    3     1     4    2
    4     4     5    1
    5     4     6    1
    6     6     7    1
    7     6     8    1
    8     6     9    1
    9     9    10    1
   10     9    11    1
   11     9    12    1
   12    12    13    1
   13    12    14    1
   14    12    15    1
   15    15    16    1
   16    15    17    1
   17    15    18    1
   18    18    19    1
   19    18    20    2
@<TRIPOS>SUBSTRUCTURE
       1 MOL1            1 RESIDUE      1      MOL     
@<SCITEGIC>MOL_PROPERTY
VConf Rank
SciTegic.value.IntegerValue
753

@<SCITEGIC>MOL_PROPERTY
Conf_Id
SciTegic.value.IntegerValue
53

@<SCITEGIC>MOL_PROPERTY
Delta U+W
SciTegic.value.DoubleValue
0.549

@<SCITEGIC>MOL_PROPERTY
U+W
SciTegic.value.DoubleValue
-51.197

@<SCITEGIC>MOL_PROPERTY
Grad RMS
SciTegic.value.DoubleValue
0.000000

@<SCITEGIC>MOL_PROPERTY
U
SciTegic.value.DoubleValue
10.870

@<SCITEGIC>MOL_PROPERTY
W
SciTegic.value.DoubleValue
-62.067

@<SCITEGIC>MOL_PROPERTY
W(PB)
SciTegic.value.DoubleValue
-64.228

@<SCITEGIC>MOL_PROPERTY
W(SA)
SciTegic.value.DoubleValue
2.161

@<SCITEGIC>MOL_PROPERTY
Valence
SciTegic.value.DoubleValue
8.803

@<SCITEGIC>MOL_PROPERTY
Coulomb
SciTegic.value.DoubleValue
1.020

@<SCITEGIC>MOL_PROPERTY
VdW
SciTegic.value.DoubleValue
1.048

@<SCITEGIC>MOL_PROPERTY
VdW6
SciTegic.value.DoubleValue
-8.312

@<SCITEGIC>MOL_PROPERTY
VdW12
SciTegic.value.DoubleValue
9.360

@<SCITEGIC>MOL_PROPERTY
Bond
SciTegic.value.DoubleValue
0.212

@<SCITEGIC>MOL_PROPERTY
Angle
SciTegic.value.DoubleValue
3.379

@<SCITEGIC>MOL_PROPERTY
Pdih
SciTegic.value.DoubleValue
5.211

@<SCITEGIC>MOL_PROPERTY
Idih
SciTegic.value.DoubleValue
0.001

@<SCITEGIC>MOL_PROPERTY
Tether
SciTegic.value.DoubleValue
0.000

@<TRIPOS>MOLECULE
guest-s22_confgen4.mol2 : confsearch ligand conformer 754
          20          19           1
SMALL
USER_CHARGES
 
@<TRIPOS>ATOM
       1    C1      22.099827   17.524034   21.529522 C.2        1 MOL1        -0.2535
       2    H1      21.566781   17.339495   20.599411 H          1 MOL1         0.0845
       3    H2      22.830580   16.777997   21.836693 H          1 MOL1         0.0845
       4    C2      21.882832   18.616491   22.269863 C.2        1 MOL1        -0.1324
       5    H3      22.446209   18.754536   23.192280 H          1 MOL1         0.0833
       6    C3      20.894278   19.730209   21.966081 C.3        1 MOL1        -0.1813
       7    H4      21.436169   20.564779   21.502132 H          1 MOL1         0.0753
       8    H5      20.512533   20.136529   22.911467 H          1 MOL1         0.0753
       9    C4      19.691072   19.341383   21.067814 C.3        1 MOL1        -0.1855
      10    H6      19.099439   20.244748   20.865969 H          1 MOL1         0.0755
      11    H7      20.059335   19.005956   20.089451 H          1 MOL1         0.0755
      12    C5      18.758657   18.254605   21.664782 C.3        1 MOL1        -0.1855
      13    H8      19.320168   17.321887   21.803699 H          1 MOL1         0.0755
      14    H9      17.969458   18.028865   20.934559 H          1 MOL1         0.0755
      15    C6      18.092006   18.646615   23.011714 C.3        1 MOL1        -0.1958
      16    H10     17.459232   17.820735   23.356802 H          1 MOL1         0.0753
      17    H11     18.850854   18.799745   23.787409 H          1 MOL1         0.0753
      18    C7      17.212385   19.891066   22.934039 C.2        1 MOL1         0.6174
      19    O1      17.609103   20.911311   23.462123 O.co2      1 MOL1        -0.6695
      20    O2      16.143649   19.801803   22.361899 O.co2      1 MOL1        -0.6695
@<TRIPOS>BOND
    1     1     2    1
    2     1     3    1
    3     1     4    2
    4     4     5    1
    5     4     6    1
    6     6     7    1
    7     6     8    1
    8     6     9    1
    9     9    10    1
   10     9    11    1
   11     9    12    1
   12    12    13    1
   13    12    14    1
   14    12    15    1
   15    15    16    1
   16    15    17    1
   17    15    18    1
   18    18    19    1
   19    18    20    2
@<TRIPOS>SUBSTRUCTURE
       1 MOL1            1 RESIDUE      1      MOL     
@<SCITEGIC>MOL_PROPERTY
VConf Rank
SciTegic.value.IntegerValue
754

@<SCITEGIC>MOL_PROPERTY
Conf_Id
SciTegic.value.IntegerValue
66

@<SCITEGIC>MOL_PROPERTY
Delta U+W
SciTegic.value.DoubleValue
1.737

@<SCITEGIC>MOL_PROPERTY
U+W
SciTegic.value.DoubleValue
-50.008

@<SCITEGIC>MOL_PROPERTY
Grad RMS
SciTegic.value.DoubleValue
0.000000

@<SCITEGIC>MOL_PROPERTY
U
SciTegic.value.DoubleValue
11.091

@<SCITEGIC>MOL_PROPERTY
W
SciTegic.value.DoubleValue
-61.099

@<SCITEGIC>MOL_PROPERTY
W(PB)
SciTegic.value.DoubleValue
-63.213

@<SCITEGIC>MOL_PROPERTY
W(SA)
SciTegic.value.DoubleValue
2.114

@<SCITEGIC>MOL_PROPERTY
Valence
SciTegic.value.DoubleValue
9.664

@<SCITEGIC>MOL_PROPERTY
Coulomb
SciTegic.value.DoubleValue
0.658

@<SCITEGIC>MOL_PROPERTY
VdW
SciTegic.value.DoubleValue
0.769

@<SCITEGIC>MOL_PROPERTY
VdW6
SciTegic.value.DoubleValue
-9.171

@<SCITEGIC>MOL_PROPERTY
VdW12
SciTegic.value.DoubleValue
9.940

@<SCITEGIC>MOL_PROPERTY
Bond
SciTegic.value.DoubleValue
0.244

@<SCITEGIC>MOL_PROPERTY
Angle
SciTegic.value.DoubleValue
3.658

@<SCITEGIC>MOL_PROPERTY
Pdih
SciTegic.value.DoubleValue
5.762

@<SCITEGIC>MOL_PROPERTY
Idih
SciTegic.value.DoubleValue
0.001

@<SCITEGIC>MOL_PROPERTY
Tether
SciTegic.value.DoubleValue
0.000

@<TRIPOS>MOLECULE
guest-s22_confgen4.mol2 : confsearch ligand conformer 755
          20          19           1
SMALL
USER_CHARGES
 
@<TRIPOS>ATOM
       1    C1      19.210945   16.876756   20.393380 C.2        1 MOL1        -0.2535
       2    H1      18.764174   17.663296   19.789282 H          1 MOL1         0.0845
       3    H2      19.726028   16.078524   19.861920 H          1 MOL1         0.0845
       4    C2      19.134872   16.872812   21.728699 C.2        1 MOL1        -0.1324
       5    H3      19.598584   16.058346   22.284537 H          1 MOL1         0.0833
       6    C3      18.456860   17.918329   22.599212 C.3        1 MOL1        -0.1813
       7    H4      19.021405   18.022242   23.534167 H          1 MOL1         0.0753
       8    H5      17.474764   17.534946   22.905946 H          1 MOL1         0.0753
       9    C4      18.278185   19.320567   21.960368 C.3        1 MOL1        -0.1855
      10    H6      17.664401   19.232816   21.054243 H          1 MOL1         0.0755
      11    H7      17.699499   19.950042   22.649941 H          1 MOL1         0.0755
      12    C5      19.602299   20.049116   21.615928 C.3        1 MOL1        -0.1855
      13    H8      19.360725   20.986014   21.095309 H          1 MOL1         0.0755
      14    H9      20.193318   19.449777   20.910883 H          1 MOL1         0.0755
      15    C6      20.468685   20.380715   22.858641 C.3        1 MOL1        -0.1958
      16    H10     19.877324   20.936457   23.595929 H          1 MOL1         0.0753
      17    H11     20.814218   19.460586   23.343214 H          1 MOL1         0.0753
      18    C7      21.698055   21.214229   22.514914 C.2        1 MOL1         0.6174
      19    O1      22.733083   20.632662   22.255592 O.co2      1 MOL1        -0.6695
      20    O2      21.584673   22.424146   22.501550 O.co2      1 MOL1        -0.6695
@<TRIPOS>BOND
    1     1     2    1
    2     1     3    1
    3     1     4    2
    4     4     5    1
    5     4     6    1
    6     6     7    1
    7     6     8    1
    8     6     9    1
    9     9    10    1
   10     9    11    1
   11     9    12    1
   12    12    13    1
   13    12    14    1
   14    12    15    1
   15    15    16    1
   16    15    17    1
   17    15    18    1
   18    18    19    1
   19    18    20    2
@<TRIPOS>SUBSTRUCTURE
       1 MOL1            1 RESIDUE      1      MOL     
@<SCITEGIC>MOL_PROPERTY
VConf Rank
SciTegic.value.IntegerValue
755

@<SCITEGIC>MOL_PROPERTY
Conf_Id
SciTegic.value.IntegerValue
64

@<SCITEGIC>MOL_PROPERTY
Delta U+W
SciTegic.value.DoubleValue
0.366

@<SCITEGIC>MOL_PROPERTY
U+W
SciTegic.value.DoubleValue
-51.379

@<SCITEGIC>MOL_PROPERTY
Grad RMS
SciTegic.value.DoubleValue
0.000000

@<SCITEGIC>MOL_PROPERTY
U
SciTegic.value.DoubleValue
10.000

@<SCITEGIC>MOL_PROPERTY
W
SciTegic.value.DoubleValue
-61.379

@<SCITEGIC>MOL_PROPERTY
W(PB)
SciTegic.value.DoubleValue
-63.541

@<SCITEGIC>MOL_PROPERTY
W(SA)
SciTegic.value.DoubleValue
2.162

@<SCITEGIC>MOL_PROPERTY
Valence
SciTegic.value.DoubleValue
9.398

@<SCITEGIC>MOL_PROPERTY
Coulomb
SciTegic.value.DoubleValue
-0.504

@<SCITEGIC>MOL_PROPERTY
VdW
SciTegic.value.DoubleValue
1.105

@<SCITEGIC>MOL_PROPERTY
VdW6
SciTegic.value.DoubleValue
-7.975

@<SCITEGIC>MOL_PROPERTY
VdW12
SciTegic.value.DoubleValue
9.080

@<SCITEGIC>MOL_PROPERTY
Bond
SciTegic.value.DoubleValue
0.216

@<SCITEGIC>MOL_PROPERTY
Angle
SciTegic.value.DoubleValue
3.417

@<SCITEGIC>MOL_PROPERTY
Pdih
SciTegic.value.DoubleValue
5.765

@<SCITEGIC>MOL_PROPERTY
Idih
SciTegic.value.DoubleValue
0.001

@<SCITEGIC>MOL_PROPERTY
Tether
SciTegic.value.DoubleValue
0.000

@<TRIPOS>MOLECULE
guest-s22_confgen4.mol2 : confsearch ligand conformer 756
          20          19           1
SMALL
USER_CHARGES
 
@<TRIPOS>ATOM
       1    C1      20.155423   20.406690   24.683851 C.2        1 MOL1        -0.2535
       2    H1      19.363624   19.744588   25.030394 H          1 MOL1         0.0845
       3    H2      20.132424   21.438925   25.028909 H          1 MOL1         0.0845
       4    C2      21.117068   19.974202   23.863969 C.2        1 MOL1        -0.1324
       5    H3      21.899175   20.653906   23.526768 H          1 MOL1         0.0833
       6    C3      21.214485   18.556289   23.342423 C.3        1 MOL1        -0.1813
       7    H4      20.521318   17.897156   23.882551 H          1 MOL1         0.0753
       8    H5      22.223951   18.170761   23.537846 H          1 MOL1         0.0753
       9    C4      20.932677   18.469373   21.825528 C.3        1 MOL1        -0.1855
      10    H6      21.625561   19.129167   21.285466 H          1 MOL1         0.0755
      11    H7      21.141778   17.446378   21.484001 H          1 MOL1         0.0755
      12    C5      19.474201   18.836194   21.467934 C.3        1 MOL1        -0.1855
      13    H8      19.260471   19.867582   21.780643 H          1 MOL1         0.0755
      14    H9      18.782748   18.186519   22.022104 H          1 MOL1         0.0755
      15    C6      19.200964   18.698677   19.949892 C.3        1 MOL1        -0.1958
      16    H10     19.875915   19.351467   19.383418 H          1 MOL1         0.0753
      17    H11     19.393079   17.670095   19.621870 H          1 MOL1         0.0753
      18    C7      17.767911   19.055718   19.571771 C.2        1 MOL1         0.6174
      19    O1      16.930128   18.176053   19.604286 O.co2      1 MOL1        -0.6695
      20    O2      17.524225   20.206873   19.268207 O.co2      1 MOL1        -0.6695
@<TRIPOS>BOND
    1     1     2    1
    2     1     3    1
    3     1     4    2
    4     4     5    1
    5     4     6    1
    6     6     7    1
    7     6     8    1
    8     6     9    1
    9     9    10    1
   10     9    11    1
   11     9    12    1
   12    12    13    1
   13    12    14    1
   14    12    15    1
   15    15    16    1
   16    15    17    1
   17    15    18    1
   18    18    19    1
   19    18    20    2
@<TRIPOS>SUBSTRUCTURE
       1 MOL1            1 RESIDUE      1      MOL     
@<SCITEGIC>MOL_PROPERTY
VConf Rank
SciTegic.value.IntegerValue
756

@<SCITEGIC>MOL_PROPERTY
Conf_Id
SciTegic.value.IntegerValue
42

@<SCITEGIC>MOL_PROPERTY
Delta U+W
SciTegic.value.DoubleValue
-0.601

@<SCITEGIC>MOL_PROPERTY
U+W
SciTegic.value.DoubleValue
-52.347

@<SCITEGIC>MOL_PROPERTY
Grad RMS
SciTegic.value.DoubleValue
0.000000

@<SCITEGIC>MOL_PROPERTY
U
SciTegic.value.DoubleValue
8.428

@<SCITEGIC>MOL_PROPERTY
W
SciTegic.value.DoubleValue
-60.774

@<SCITEGIC>MOL_PROPERTY
W(PB)
SciTegic.value.DoubleValue
-62.982

@<SCITEGIC>MOL_PROPERTY
W(SA)
SciTegic.value.DoubleValue
2.208

@<SCITEGIC>MOL_PROPERTY
Valence
SciTegic.value.DoubleValue
9.231

@<SCITEGIC>MOL_PROPERTY
Coulomb
SciTegic.value.DoubleValue
-1.304

@<SCITEGIC>MOL_PROPERTY
VdW
SciTegic.value.DoubleValue
0.501

@<SCITEGIC>MOL_PROPERTY
VdW6
SciTegic.value.DoubleValue
-6.515

@<SCITEGIC>MOL_PROPERTY
VdW12
SciTegic.value.DoubleValue
7.016

@<SCITEGIC>MOL_PROPERTY
Bond
SciTegic.value.DoubleValue
0.103

@<SCITEGIC>MOL_PROPERTY
Angle
SciTegic.value.DoubleValue
2.328

@<SCITEGIC>MOL_PROPERTY
Pdih
SciTegic.value.DoubleValue
6.799

@<SCITEGIC>MOL_PROPERTY
Idih
SciTegic.value.DoubleValue
0.000

@<SCITEGIC>MOL_PROPERTY
Tether
SciTegic.value.DoubleValue
0.000

@<TRIPOS>MOLECULE
guest-s22_confgen4.mol2 : confsearch ligand conformer 757
          20          19           1
SMALL
USER_CHARGES
 
@<TRIPOS>ATOM
       1    C1      17.500128   17.167192   22.368856 C.2        1 MOL1        -0.2535
       2    H1      18.192783   16.363563   22.613405 H          1 MOL1         0.0845
       3    H2      16.637404   16.915634   21.754427 H          1 MOL1         0.0845
       4    C2      17.699674   18.415324   22.800562 C.2        1 MOL1        -0.1324
       5    H3      16.995717   19.205914   22.542070 H          1 MOL1         0.0833
       6    C3      18.874341   18.840782   23.655576 C.3        1 MOL1        -0.1813
       7    H4      19.418744   17.962953   24.029275 H          1 MOL1         0.0753
       8    H5      18.500174   19.372898   24.540259 H          1 MOL1         0.0753
       9    C4      19.848664   19.766385   22.892745 C.3        1 MOL1        -0.1855
      10    H6      19.303493   20.646963   22.525716 H          1 MOL1         0.0755
      11    H7      20.607975   20.138492   23.593976 H          1 MOL1         0.0755
      12    C5      20.551490   19.051716   21.714376 C.3        1 MOL1        -0.1855
      13    H8      19.805370   18.710651   20.983395 H          1 MOL1         0.0755
      14    H9      21.060176   18.152906   22.088021 H          1 MOL1         0.0755
      15    C6      21.587871   19.957913   21.000553 C.3        1 MOL1        -0.1958
      16    H10     22.328114   20.327498   21.720396 H          1 MOL1         0.0753
      17    H11     22.136117   19.370202   20.254890 H          1 MOL1         0.0753
      18    C7      20.972442   21.153066   20.278288 C.2        1 MOL1         0.6174
      19    O1      21.058167   22.247563   20.799721 O.co2      1 MOL1        -0.6695
      20    O2      20.439125   20.959937   19.203407 O.co2      1 MOL1        -0.6695
@<TRIPOS>BOND
    1     1     2    1
    2     1     3    1
    3     1     4    2
    4     4     5    1
    5     4     6    1
    6     6     7    1
    7     6     8    1
    8     6     9    1
    9     9    10    1
   10     9    11    1
   11     9    12    1
   12    12    13    1
   13    12    14    1
   14    12    15    1
   15    15    16    1
   16    15    17    1
   17    15    18    1
   18    18    19    1
   19    18    20    2
@<TRIPOS>SUBSTRUCTURE
       1 MOL1            1 RESIDUE      1      MOL     
@<SCITEGIC>MOL_PROPERTY
VConf Rank
SciTegic.value.IntegerValue
757

@<SCITEGIC>MOL_PROPERTY
Conf_Id
SciTegic.value.IntegerValue
68

@<SCITEGIC>MOL_PROPERTY
Delta U+W
SciTegic.value.DoubleValue
0.492

@<SCITEGIC>MOL_PROPERTY
U+W
SciTegic.value.DoubleValue
-51.253

@<SCITEGIC>MOL_PROPERTY
Grad RMS
SciTegic.value.DoubleValue
0.000000

@<SCITEGIC>MOL_PROPERTY
U
SciTegic.value.DoubleValue
10.179

@<SCITEGIC>MOL_PROPERTY
W
SciTegic.value.DoubleValue
-61.432

@<SCITEGIC>MOL_PROPERTY
W(PB)
SciTegic.value.DoubleValue
-63.627

@<SCITEGIC>MOL_PROPERTY
W(SA)
SciTegic.value.DoubleValue
2.195

@<SCITEGIC>MOL_PROPERTY
Valence
SciTegic.value.DoubleValue
9.483

@<SCITEGIC>MOL_PROPERTY
Coulomb
SciTegic.value.DoubleValue
0.361

@<SCITEGIC>MOL_PROPERTY
VdW
SciTegic.value.DoubleValue
0.335

@<SCITEGIC>MOL_PROPERTY
VdW6
SciTegic.value.DoubleValue
-7.385

@<SCITEGIC>MOL_PROPERTY
VdW12
SciTegic.value.DoubleValue
7.720

@<SCITEGIC>MOL_PROPERTY
Bond
SciTegic.value.DoubleValue
0.125

@<SCITEGIC>MOL_PROPERTY
Angle
SciTegic.value.DoubleValue
2.487

@<SCITEGIC>MOL_PROPERTY
Pdih
SciTegic.value.DoubleValue
6.870

@<SCITEGIC>MOL_PROPERTY
Idih
SciTegic.value.DoubleValue
0.001

@<SCITEGIC>MOL_PROPERTY
Tether
SciTegic.value.DoubleValue
0.000

@<TRIPOS>MOLECULE
guest-s22_confgen4.mol2 : confsearch ligand conformer 758
          20          19           1
SMALL
USER_CHARGES
 
@<TRIPOS>ATOM
       1    C1      16.985053   18.569944   20.484228 C.2        1 MOL1        -0.2535
       2    H1      16.885281   17.495153   20.626915 H          1 MOL1         0.0845
       3    H2      16.617068   18.987561   19.548621 H          1 MOL1         0.0845
       4    C2      17.539871   19.348712   21.416641 C.2        1 MOL1        -0.1324
       5    H3      17.627422   20.422629   21.254526 H          1 MOL1         0.0833
       6    C3      18.067321   18.840299   22.741440 C.3        1 MOL1        -0.1813
       7    H4      17.634794   17.854262   22.958630 H          1 MOL1         0.0753
       8    H5      17.741688   19.504229   23.553326 H          1 MOL1         0.0753
       9    C4      19.607840   18.718477   22.753259 C.3        1 MOL1        -0.1855
      10    H6      19.917055   18.225471   23.684965 H          1 MOL1         0.0755
      11    H7      19.926706   18.062284   21.931473 H          1 MOL1         0.0755
      12    C5      20.320314   20.087381   22.642742 C.3        1 MOL1        -0.1855
      13    H8      19.956908   20.750453   23.439349 H          1 MOL1         0.0755
      14    H9      20.065069   20.568630   21.688768 H          1 MOL1         0.0755
      15    C6      21.862344   19.965987   22.753471 C.3        1 MOL1        -0.1958
      16    H10     22.307200   20.967505   22.786218 H          1 MOL1         0.0753
      17    H11     22.137313   19.465783   23.689928 H          1 MOL1         0.0753
      18    C7      22.509833   19.216090   21.592760 C.2        1 MOL1         0.6174
      19    O1      22.652105   19.805071   20.539211 O.co2      1 MOL1        -0.6695
      20    O2      22.872288   18.070870   21.777750 O.co2      1 MOL1        -0.6695
@<TRIPOS>BOND
    1     1     2    1
    2     1     3    1
    3     1     4    2
    4     4     5    1
    5     4     6    1
    6     6     7    1
    7     6     8    1
    8     6     9    1
    9     9    10    1
   10     9    11    1
   11     9    12    1
   12    12    13    1
   13    12    14    1
   14    12    15    1
   15    15    16    1
   16    15    17    1
   17    15    18    1
   18    18    19    1
   19    18    20    2
@<TRIPOS>SUBSTRUCTURE
       1 MOL1            1 RESIDUE      1      MOL     
@<SCITEGIC>MOL_PROPERTY
VConf Rank
SciTegic.value.IntegerValue
758

@<SCITEGIC>MOL_PROPERTY
Conf_Id
SciTegic.value.IntegerValue
87

@<SCITEGIC>MOL_PROPERTY
Delta U+W
SciTegic.value.DoubleValue
0.339

@<SCITEGIC>MOL_PROPERTY
U+W
SciTegic.value.DoubleValue
-51.407

@<SCITEGIC>MOL_PROPERTY
Grad RMS
SciTegic.value.DoubleValue
0.000000

@<SCITEGIC>MOL_PROPERTY
U
SciTegic.value.DoubleValue
10.461

@<SCITEGIC>MOL_PROPERTY
W
SciTegic.value.DoubleValue
-61.867

@<SCITEGIC>MOL_PROPERTY
W(PB)
SciTegic.value.DoubleValue
-64.045

@<SCITEGIC>MOL_PROPERTY
W(SA)
SciTegic.value.DoubleValue
2.178

@<SCITEGIC>MOL_PROPERTY
Valence
SciTegic.value.DoubleValue
9.555

@<SCITEGIC>MOL_PROPERTY
Coulomb
SciTegic.value.DoubleValue
0.483

@<SCITEGIC>MOL_PROPERTY
VdW
SciTegic.value.DoubleValue
0.423

@<SCITEGIC>MOL_PROPERTY
VdW6
SciTegic.value.DoubleValue
-7.223

@<SCITEGIC>MOL_PROPERTY
VdW12
SciTegic.value.DoubleValue
7.646

@<SCITEGIC>MOL_PROPERTY
Bond
SciTegic.value.DoubleValue
0.126

@<SCITEGIC>MOL_PROPERTY
Angle
SciTegic.value.DoubleValue
2.492

@<SCITEGIC>MOL_PROPERTY
Pdih
SciTegic.value.DoubleValue
6.936

@<SCITEGIC>MOL_PROPERTY
Idih
SciTegic.value.DoubleValue
0.001

@<SCITEGIC>MOL_PROPERTY
Tether
SciTegic.value.DoubleValue
0.000

@<TRIPOS>MOLECULE
guest-s22_confgen4.mol2 : confsearch ligand conformer 759
          20          19           1
SMALL
USER_CHARGES
 
@<TRIPOS>ATOM
       1    C1      16.760599   18.930554   22.222809 C.2        1 MOL1        -0.2535
       2    H1      16.454655   18.073574   21.624981 H          1 MOL1         0.0845
       3    H2      16.193378   19.139577   23.128121 H          1 MOL1         0.0845
       4    C2      17.793777   19.696293   21.862390 C.2        1 MOL1        -0.1324
       5    H3      18.079094   20.555002   22.469021 H          1 MOL1         0.0833
       6    C3      18.617369   19.471896   20.612211 C.3        1 MOL1        -0.1813
       7    H4      19.159452   20.388527   20.344126 H          1 MOL1         0.0753
       8    H5      17.933248   19.275121   19.775751 H          1 MOL1         0.0753
       9    C4      19.606356   18.285313   20.726636 C.3        1 MOL1        -0.1855
      10    H6      19.101952   17.417507   21.173207 H          1 MOL1         0.0755
      11    H7      19.885845   17.980226   19.709020 H          1 MOL1         0.0755
      12    C5      20.912976   18.597094   21.499059 C.3        1 MOL1        -0.1855
      13    H8      21.407332   19.473713   21.058387 H          1 MOL1         0.0755
      14    H9      21.603732   17.753573   21.361877 H          1 MOL1         0.0755
      15    C6      20.715454   18.823236   23.019949 C.3        1 MOL1        -0.1958
      16    H10     20.153484   19.744670   23.202237 H          1 MOL1         0.0753
      17    H11     20.140368   17.997279   23.455143 H          1 MOL1         0.0753
      18    C7      22.034432   18.933200   23.776147 C.2        1 MOL1         0.6174
      19    O1      22.547681   20.029972   23.878887 O.co2      1 MOL1        -0.6695
      20    O2      22.525173   17.915983   24.224840 O.co2      1 MOL1        -0.6695
@<TRIPOS>BOND
    1     1     2    1
    2     1     3    1
    3     1     4    2
    4     4     5    1
    5     4     6    1
    6     6     7    1
    7     6     8    1
    8     6     9    1
    9     9    10    1
   10     9    11    1
   11     9    12    1
   12    12    13    1
   13    12    14    1
   14    12    15    1
   15    15    16    1
   16    15    17    1
   17    15    18    1
   18    18    19    1
   19    18    20    2
@<TRIPOS>SUBSTRUCTURE
       1 MOL1            1 RESIDUE      1      MOL     
@<SCITEGIC>MOL_PROPERTY
VConf Rank
SciTegic.value.IntegerValue
759

@<SCITEGIC>MOL_PROPERTY
Conf_Id
SciTegic.value.IntegerValue
51

@<SCITEGIC>MOL_PROPERTY
Delta U+W
SciTegic.value.DoubleValue
1.709

@<SCITEGIC>MOL_PROPERTY
U+W
SciTegic.value.DoubleValue
-50.036

@<SCITEGIC>MOL_PROPERTY
Grad RMS
SciTegic.value.DoubleValue
0.000000

@<SCITEGIC>MOL_PROPERTY
U
SciTegic.value.DoubleValue
10.643

@<SCITEGIC>MOL_PROPERTY
W
SciTegic.value.DoubleValue
-60.679

@<SCITEGIC>MOL_PROPERTY
W(PB)
SciTegic.value.DoubleValue
-62.882

@<SCITEGIC>MOL_PROPERTY
W(SA)
SciTegic.value.DoubleValue
2.203

@<SCITEGIC>MOL_PROPERTY
Valence
SciTegic.value.DoubleValue
11.231

@<SCITEGIC>MOL_PROPERTY
Coulomb
SciTegic.value.DoubleValue
-1.077

@<SCITEGIC>MOL_PROPERTY
VdW
SciTegic.value.DoubleValue
0.489

@<SCITEGIC>MOL_PROPERTY
VdW6
SciTegic.value.DoubleValue
-7.546

@<SCITEGIC>MOL_PROPERTY
VdW12
SciTegic.value.DoubleValue
8.035

@<SCITEGIC>MOL_PROPERTY
Bond
SciTegic.value.DoubleValue
0.159

@<SCITEGIC>MOL_PROPERTY
Angle
SciTegic.value.DoubleValue
3.005

@<SCITEGIC>MOL_PROPERTY
Pdih
SciTegic.value.DoubleValue
8.065

@<SCITEGIC>MOL_PROPERTY
Idih
SciTegic.value.DoubleValue
0.002

@<SCITEGIC>MOL_PROPERTY
Tether
SciTegic.value.DoubleValue
0.000

@<TRIPOS>MOLECULE
guest-s22_confgen4.mol2 : confsearch ligand conformer 760
          20          19           1
SMALL
USER_CHARGES
 
@<TRIPOS>ATOM
       1    C1      20.853920   21.627336   22.332384 C.2        1 MOL1        -0.2535
       2    H1      21.187492   21.585135   23.367935 H          1 MOL1         0.0845
       3    H2      20.505008   22.587287   21.955853 H          1 MOL1         0.0845
       4    C2      20.868816   20.543208   21.552539 C.2        1 MOL1        -0.1324
       5    H3      20.539468   20.607460   20.516105 H          1 MOL1         0.0833
       6    C3      21.351852   19.181936   22.005548 C.3        1 MOL1        -0.1813
       7    H4      22.294320   19.312261   22.554343 H          1 MOL1         0.0753
       8    H5      21.597301   18.556841   21.136672 H          1 MOL1         0.0753
       9    C4      20.347578   18.442301   22.923995 C.3        1 MOL1        -0.1855
      10    H6      20.899824   17.666144   23.471116 H          1 MOL1         0.0755
      11    H7      19.959530   19.130392   23.687460 H          1 MOL1         0.0755
      12    C5      19.174176   17.751107   22.184748 C.3        1 MOL1        -0.1855
      13    H8      18.638562   17.117664   22.905411 H          1 MOL1         0.0755
      14    H9      19.565725   17.074551   21.412738 H          1 MOL1         0.0755
      15    C6      18.156850   18.731832   21.547178 C.3        1 MOL1        -0.1958
      16    H10     17.828580   19.472148   22.286429 H          1 MOL1         0.0753
      17    H11     18.617256   19.279096   20.718557 H          1 MOL1         0.0753
      18    C7      16.920810   18.026759   21.000645 C.2        1 MOL1         0.6174
      19    O1      16.950077   17.621998   19.855132 O.co2      1 MOL1        -0.6695
      20    O2      15.968096   17.882321   21.741156 O.co2      1 MOL1        -0.6695
@<TRIPOS>BOND
    1     1     2    1
    2     1     3    1
    3     1     4    2
    4     4     5    1
    5     4     6    1
    6     6     7    1
    7     6     8    1
    8     6     9    1
    9     9    10    1
   10     9    11    1
   11     9    12    1
   12    12    13    1
   13    12    14    1
   14    12    15    1
   15    15    16    1
   16    15    17    1
   17    15    18    1
   18    18    19    1
   19    18    20    2
@<TRIPOS>SUBSTRUCTURE
       1 MOL1            1 RESIDUE      1      MOL     
@<SCITEGIC>MOL_PROPERTY
VConf Rank
SciTegic.value.IntegerValue
760

@<SCITEGIC>MOL_PROPERTY
Conf_Id
SciTegic.value.IntegerValue
91

@<SCITEGIC>MOL_PROPERTY
Delta U+W
SciTegic.value.DoubleValue
1.604

@<SCITEGIC>MOL_PROPERTY
U+W
SciTegic.value.DoubleValue
-50.141

@<SCITEGIC>MOL_PROPERTY
Grad RMS
SciTegic.value.DoubleValue
0.000000

@<SCITEGIC>MOL_PROPERTY
U
SciTegic.value.DoubleValue
10.644

@<SCITEGIC>MOL_PROPERTY
W
SciTegic.value.DoubleValue
-60.786

@<SCITEGIC>MOL_PROPERTY
W(PB)
SciTegic.value.DoubleValue
-62.965

@<SCITEGIC>MOL_PROPERTY
W(SA)
SciTegic.value.DoubleValue
2.179

@<SCITEGIC>MOL_PROPERTY
Valence
SciTegic.value.DoubleValue
11.230

@<SCITEGIC>MOL_PROPERTY
Coulomb
SciTegic.value.DoubleValue
-1.075

@<SCITEGIC>MOL_PROPERTY
VdW
SciTegic.value.DoubleValue
0.489

@<SCITEGIC>MOL_PROPERTY
VdW6
SciTegic.value.DoubleValue
-7.547

@<SCITEGIC>MOL_PROPERTY
VdW12
SciTegic.value.DoubleValue
8.036

@<SCITEGIC>MOL_PROPERTY
Bond
SciTegic.value.DoubleValue
0.159

@<SCITEGIC>MOL_PROPERTY
Angle
SciTegic.value.DoubleValue
3.006

@<SCITEGIC>MOL_PROPERTY
Pdih
SciTegic.value.DoubleValue
8.064

@<SCITEGIC>MOL_PROPERTY
Idih
SciTegic.value.DoubleValue
0.002

@<SCITEGIC>MOL_PROPERTY
Tether
SciTegic.value.DoubleValue
0.000

@<TRIPOS>MOLECULE
guest-s22_confgen4.mol2 : confsearch ligand conformer 761
          20          19           1
SMALL
USER_CHARGES
 
@<TRIPOS>ATOM
       1    C1      19.329853   22.459325   20.650553 C.2        1 MOL1        -0.2535
       2    H1      20.285369   22.717453   21.104369 H          1 MOL1         0.0845
       3    H2      18.641826   23.274688   20.433575 H          1 MOL1         0.0845
       4    C2      19.009313   21.193171   20.371703 C.2        1 MOL1        -0.1324
       5    H3      18.047211   20.956081   19.918045 H          1 MOL1         0.0833
       6    C3      19.912330   20.010601   20.643235 C.3        1 MOL1        -0.1813
       7    H4      20.935864   20.352834   20.848320 H          1 MOL1         0.0753
       8    H5      19.964933   19.375387   19.748875 H          1 MOL1         0.0753
       9    C4      19.398951   19.180433   21.838282 C.3        1 MOL1        -0.1855
      10    H6      19.344233   19.821424   22.729081 H          1 MOL1         0.0755
      11    H7      18.376965   18.834541   21.630761 H          1 MOL1         0.0755
      12    C5      20.308505   17.966325   22.127704 C.3        1 MOL1        -0.1855
      13    H8      21.330784   18.311531   22.335847 H          1 MOL1         0.0755
      14    H9      20.364629   17.325529   21.236775 H          1 MOL1         0.0755
      15    C6      19.792217   17.132071   23.330146 C.3        1 MOL1        -0.1958
      16    H10     19.739825   17.763975   24.224497 H          1 MOL1         0.0753
      17    H11     18.774532   16.778815   23.126593 H          1 MOL1         0.0753
      18    C7      20.637322   15.907843   23.685648 C.2        1 MOL1         0.6174
      19    O1      20.263586   15.228843   24.621286 O.co2      1 MOL1        -0.6695
      20    O2      21.634825   15.655071   23.037773 O.co2      1 MOL1        -0.6695
@<TRIPOS>BOND
    1     1     2    1
    2     1     3    1
    3     1     4    2
    4     4     5    1
    5     4     6    1
    6     6     7    1
    7     6     8    1
    8     6     9    1
    9     9    10    1
   10     9    11    1
   11     9    12    1
   12    12    13    1
   13    12    14    1
   14    12    15    1
   15    15    16    1
   16    15    17    1
   17    15    18    1
   18    18    19    1
   19    18    20    2
@<TRIPOS>SUBSTRUCTURE
       1 MOL1            1 RESIDUE      1      MOL     
@<SCITEGIC>MOL_PROPERTY
VConf Rank
SciTegic.value.IntegerValue
761

@<SCITEGIC>MOL_PROPERTY
Conf_Id
SciTegic.value.IntegerValue
33

@<SCITEGIC>MOL_PROPERTY
Delta U+W
SciTegic.value.DoubleValue
0.000

@<SCITEGIC>MOL_PROPERTY
U+W
SciTegic.value.DoubleValue
-51.745

@<SCITEGIC>MOL_PROPERTY
Grad RMS
SciTegic.value.DoubleValue
0.000000

@<SCITEGIC>MOL_PROPERTY
U
SciTegic.value.DoubleValue
7.593

@<SCITEGIC>MOL_PROPERTY
W
SciTegic.value.DoubleValue
-59.338

@<SCITEGIC>MOL_PROPERTY
W(PB)
SciTegic.value.DoubleValue
-61.574

@<SCITEGIC>MOL_PROPERTY
W(SA)
SciTegic.value.DoubleValue
2.236

@<SCITEGIC>MOL_PROPERTY
Valence
SciTegic.value.DoubleValue
9.570

@<SCITEGIC>MOL_PROPERTY
Coulomb
SciTegic.value.DoubleValue
-3.091

@<SCITEGIC>MOL_PROPERTY
VdW
SciTegic.value.DoubleValue
1.114

@<SCITEGIC>MOL_PROPERTY
VdW6
SciTegic.value.DoubleValue
-6.064

@<SCITEGIC>MOL_PROPERTY
VdW12
SciTegic.value.DoubleValue
7.178

@<SCITEGIC>MOL_PROPERTY
Bond
SciTegic.value.DoubleValue
0.117

@<SCITEGIC>MOL_PROPERTY
Angle
SciTegic.value.DoubleValue
2.692

@<SCITEGIC>MOL_PROPERTY
Pdih
SciTegic.value.DoubleValue
6.761

@<SCITEGIC>MOL_PROPERTY
Idih
SciTegic.value.DoubleValue
0.000

@<SCITEGIC>MOL_PROPERTY
Tether
SciTegic.value.DoubleValue
0.000

@<TRIPOS>MOLECULE
guest-s22_confgen4.mol2 : confsearch ligand conformer 762
          20          19           1
SMALL
USER_CHARGES
 
@<TRIPOS>ATOM
       1    C1      18.332064   17.975972   25.076824 C.2        1 MOL1        -0.2535
       2    H1      19.185213   18.424496   25.583323 H          1 MOL1         0.0845
       3    H2      17.666385   17.353538   25.672397 H          1 MOL1         0.0845
       4    C2      18.108639   18.176859   23.775517 C.2        1 MOL1        -0.1324
       5    H3      17.249178   17.717920   23.287324 H          1 MOL1         0.0833
       6    C3      18.987327   19.027778   22.885816 C.3        1 MOL1        -0.1813
       7    H4      19.660207   19.645574   23.495862 H          1 MOL1         0.0753
       8    H5      18.356680   19.717723   22.311090 H          1 MOL1         0.0753
       9    C4      19.822719   18.149300   21.927585 C.3        1 MOL1        -0.1855
      10    H6      20.380468   17.411249   22.520490 H          1 MOL1         0.0755
      11    H7      19.152365   17.577254   21.271549 H          1 MOL1         0.0755
      12    C5      20.827922   18.954667   21.070187 C.3        1 MOL1        -0.1855
      13    H8      21.453990   18.249402   20.506153 H          1 MOL1         0.0755
      14    H9      21.507683   19.517036   21.725213 H          1 MOL1         0.0755
      15    C6      20.149187   19.927138   20.070890 C.3        1 MOL1        -0.1958
      16    H10     19.435961   19.384130   19.439357 H          1 MOL1         0.0753
      17    H11     19.587309   20.701132   20.605651 H          1 MOL1         0.0753
      18    C7      21.149946   20.627823   19.159029 C.2        1 MOL1         0.6174
      19    O1      21.632181   21.677713   19.535712 O.co2      1 MOL1        -0.6695
      20    O2      21.435941   20.095347   18.104795 O.co2      1 MOL1        -0.6695
@<TRIPOS>BOND
    1     1     2    1
    2     1     3    1
    3     1     4    2
    4     4     5    1
    5     4     6    1
    6     6     7    1
    7     6     8    1
    8     6     9    1
    9     9    10    1
   10     9    11    1
   11     9    12    1
   12    12    13    1
   13    12    14    1
   14    12    15    1
   15    15    16    1
   16    15    17    1
   17    15    18    1
   18    18    19    1
   19    18    20    2
@<TRIPOS>SUBSTRUCTURE
       1 MOL1            1 RESIDUE      1      MOL     
@<SCITEGIC>MOL_PROPERTY
VConf Rank
SciTegic.value.IntegerValue
762

@<SCITEGIC>MOL_PROPERTY
Conf_Id
SciTegic.value.IntegerValue
37

@<SCITEGIC>MOL_PROPERTY
Delta U+W
SciTegic.value.DoubleValue
-0.384

@<SCITEGIC>MOL_PROPERTY
U+W
SciTegic.value.DoubleValue
-52.130

@<SCITEGIC>MOL_PROPERTY
Grad RMS
SciTegic.value.DoubleValue
0.000000

@<SCITEGIC>MOL_PROPERTY
U
SciTegic.value.DoubleValue
7.491

@<SCITEGIC>MOL_PROPERTY
W
SciTegic.value.DoubleValue
-59.621

@<SCITEGIC>MOL_PROPERTY
W(PB)
SciTegic.value.DoubleValue
-61.853

@<SCITEGIC>MOL_PROPERTY
W(SA)
SciTegic.value.DoubleValue
2.232

@<SCITEGIC>MOL_PROPERTY
Valence
SciTegic.value.DoubleValue
9.604

@<SCITEGIC>MOL_PROPERTY
Coulomb
SciTegic.value.DoubleValue
-2.799

@<SCITEGIC>MOL_PROPERTY
VdW
SciTegic.value.DoubleValue
0.686

@<SCITEGIC>MOL_PROPERTY
VdW6
SciTegic.value.DoubleValue
-6.435

@<SCITEGIC>MOL_PROPERTY
VdW12
SciTegic.value.DoubleValue
7.121

@<SCITEGIC>MOL_PROPERTY
Bond
SciTegic.value.DoubleValue
0.124

@<SCITEGIC>MOL_PROPERTY
Angle
SciTegic.value.DoubleValue
2.493

@<SCITEGIC>MOL_PROPERTY
Pdih
SciTegic.value.DoubleValue
6.986

@<SCITEGIC>MOL_PROPERTY
Idih
SciTegic.value.DoubleValue
0.001

@<SCITEGIC>MOL_PROPERTY
Tether
SciTegic.value.DoubleValue
0.000

@<TRIPOS>MOLECULE
guest-s22_confgen4.mol2 : confsearch ligand conformer 763
          20          19           1
SMALL
USER_CHARGES
 
@<TRIPOS>ATOM
       1    C1      22.642771   19.207156   23.639271 C.2        1 MOL1        -0.2535
       2    H1      23.561328   19.270948   24.220110 H          1 MOL1         0.0845
       3    H2      22.749301   19.130432   22.559311 H          1 MOL1         0.0845
       4    C2      21.449484   19.224061   24.243996 C.2        1 MOL1        -0.1324
       5    H3      21.406916   19.302809   25.330096 H          1 MOL1         0.0833
       6    C3      20.089112   19.143504   23.571750 C.3        1 MOL1        -0.1813
       7    H4      19.503039   20.028306   23.854201 H          1 MOL1         0.0753
       8    H5      19.543161   18.283456   23.982103 H          1 MOL1         0.0753
       9    C4      20.126854   19.031338   22.029681 C.3        1 MOL1        -0.1855
      10    H6      20.653831   19.899887   21.611346 H          1 MOL1         0.0755
      11    H7      20.694411   18.136119   21.740634 H          1 MOL1         0.0755
      12    C5      18.707218   18.954466   21.426567 C.3        1 MOL1        -0.1855
      13    H8      18.134079   19.847495   21.712256 H          1 MOL1         0.0755
      14    H9      18.174582   18.087338   21.841287 H          1 MOL1         0.0755
      15    C6      18.742320   18.842078   19.882475 C.3        1 MOL1        -0.1958
      16    H10     19.259472   19.707685   19.451335 H          1 MOL1         0.0753
      17    H11     19.300071   17.947508   19.580381 H          1 MOL1         0.0753
      18    C7      17.351588   18.764577   19.262923 C.2        1 MOL1         0.6174
      19    O1      16.799539   19.804106   18.960816 O.co2      1 MOL1        -0.6695
      20    O2      16.848983   17.667874   19.117053 O.co2      1 MOL1        -0.6695
@<TRIPOS>BOND
    1     1     2    1
    2     1     3    1
    3     1     4    2
    4     4     5    1
    5     4     6    1
    6     6     7    1
    7     6     8    1
    8     6     9    1
    9     9    10    1
   10     9    11    1
   11     9    12    1
   12    12    13    1
   13    12    14    1
   14    12    15    1
   15    15    16    1
   16    15    17    1
   17    15    18    1
   18    18    19    1
   19    18    20    2
@<TRIPOS>SUBSTRUCTURE
       1 MOL1            1 RESIDUE      1      MOL     
@<SCITEGIC>MOL_PROPERTY
VConf Rank
SciTegic.value.IntegerValue
763

@<SCITEGIC>MOL_PROPERTY
Conf_Id
SciTegic.value.IntegerValue
44

@<SCITEGIC>MOL_PROPERTY
Delta U+W
SciTegic.value.DoubleValue
-1.440

@<SCITEGIC>MOL_PROPERTY
U+W
SciTegic.value.DoubleValue
-53.185

@<SCITEGIC>MOL_PROPERTY
Grad RMS
SciTegic.value.DoubleValue
0.000000

@<SCITEGIC>MOL_PROPERTY
U
SciTegic.value.DoubleValue
6.572

@<SCITEGIC>MOL_PROPERTY
W
SciTegic.value.DoubleValue
-59.757

@<SCITEGIC>MOL_PROPERTY
W(PB)
SciTegic.value.DoubleValue
-62.007

@<SCITEGIC>MOL_PROPERTY
W(SA)
SciTegic.value.DoubleValue
2.249

@<SCITEGIC>MOL_PROPERTY
Valence
SciTegic.value.DoubleValue
7.989

@<SCITEGIC>MOL_PROPERTY
Coulomb
SciTegic.value.DoubleValue
-2.697

@<SCITEGIC>MOL_PROPERTY
VdW
SciTegic.value.DoubleValue
1.281

@<SCITEGIC>MOL_PROPERTY
VdW6
SciTegic.value.DoubleValue
-6.467

@<SCITEGIC>MOL_PROPERTY
VdW12
SciTegic.value.DoubleValue
7.748

@<SCITEGIC>MOL_PROPERTY
Bond
SciTegic.value.DoubleValue
0.136

@<SCITEGIC>MOL_PROPERTY
Angle
SciTegic.value.DoubleValue
2.854

@<SCITEGIC>MOL_PROPERTY
Pdih
SciTegic.value.DoubleValue
4.997

@<SCITEGIC>MOL_PROPERTY
Idih
SciTegic.value.DoubleValue
0.001

@<SCITEGIC>MOL_PROPERTY
Tether
SciTegic.value.DoubleValue
0.000

@<TRIPOS>MOLECULE
guest-s22_confgen4.mol2 : confsearch ligand conformer 764
          20          19           1
SMALL
USER_CHARGES
 
@<TRIPOS>ATOM
       1    C1      22.514083   20.121023   23.787625 C.2        1 MOL1        -0.2535
       2    H1      21.766152   20.818312   24.161744 H          1 MOL1         0.0845
       3    H2      23.556880   20.334905   24.015843 H          1 MOL1         0.0845
       4    C2      22.170317   19.045689   23.074044 C.2        1 MOL1        -0.1324
       5    H3      22.934790   18.360470   22.708404 H          1 MOL1         0.0833
       6    C3      20.745185   18.683540   22.719441 C.3        1 MOL1        -0.1813
       7    H4      20.048442   19.257541   23.343678 H          1 MOL1         0.0753
       8    H5      20.570351   17.622480   22.941961 H          1 MOL1         0.0753
       9    C4      20.459253   18.953717   21.225049 C.3        1 MOL1        -0.1855
      10    H6      20.581430   20.025294   21.015318 H          1 MOL1         0.0755
      11    H7      21.212326   18.431595   20.618952 H          1 MOL1         0.0755
      12    C5      19.054201   18.490704   20.771428 C.3        1 MOL1        -0.1855
      13    H8      18.934133   17.416997   20.971703 H          1 MOL1         0.0755
      14    H9      18.977900   18.613199   19.682082 H          1 MOL1         0.0755
      15    C6      17.897094   19.275397   21.442560 C.3        1 MOL1        -0.1958
      16    H10     17.888104   19.101375   22.524381 H          1 MOL1         0.0753
      17    H11     18.029997   20.352652   21.286815 H          1 MOL1         0.0753
      18    C7      16.527440   18.884555   20.899216 C.2        1 MOL1         0.6174
      19    O1      16.093095   19.497341   19.943929 O.co2      1 MOL1        -0.6695
      20    O2      15.939610   17.964561   21.432863 O.co2      1 MOL1        -0.6695
@<TRIPOS>BOND
    1     1     2    1
    2     1     3    1
    3     1     4    2
    4     4     5    1
    5     4     6    1
    6     6     7    1
    7     6     8    1
    8     6     9    1
    9     9    10    1
   10     9    11    1
   11     9    12    1
   12    12    13    1
   13    12    14    1
   14    12    15    1
   15    15    16    1
   16    15    17    1
   17    15    18    1
   18    18    19    1
   19    18    20    2
@<TRIPOS>SUBSTRUCTURE
       1 MOL1            1 RESIDUE      1      MOL     
@<SCITEGIC>MOL_PROPERTY
VConf Rank
SciTegic.value.IntegerValue
764

@<SCITEGIC>MOL_PROPERTY
Conf_Id
SciTegic.value.IntegerValue
38

@<SCITEGIC>MOL_PROPERTY
Delta U+W
SciTegic.value.DoubleValue
-0.381

@<SCITEGIC>MOL_PROPERTY
U+W
SciTegic.value.DoubleValue
-52.126

@<SCITEGIC>MOL_PROPERTY
Grad RMS
SciTegic.value.DoubleValue
0.000000

@<SCITEGIC>MOL_PROPERTY
U
SciTegic.value.DoubleValue
7.601

@<SCITEGIC>MOL_PROPERTY
W
SciTegic.value.DoubleValue
-59.727

@<SCITEGIC>MOL_PROPERTY
W(PB)
SciTegic.value.DoubleValue
-61.964

@<SCITEGIC>MOL_PROPERTY
W(SA)
SciTegic.value.DoubleValue
2.236

@<SCITEGIC>MOL_PROPERTY
Valence
SciTegic.value.DoubleValue
9.602

@<SCITEGIC>MOL_PROPERTY
Coulomb
SciTegic.value.DoubleValue
-2.686

@<SCITEGIC>MOL_PROPERTY
VdW
SciTegic.value.DoubleValue
0.685

@<SCITEGIC>MOL_PROPERTY
VdW6
SciTegic.value.DoubleValue
-6.453

@<SCITEGIC>MOL_PROPERTY
VdW12
SciTegic.value.DoubleValue
7.139

@<SCITEGIC>MOL_PROPERTY
Bond
SciTegic.value.DoubleValue
0.125

@<SCITEGIC>MOL_PROPERTY
Angle
SciTegic.value.DoubleValue
2.485

@<SCITEGIC>MOL_PROPERTY
Pdih
SciTegic.value.DoubleValue
6.991

@<SCITEGIC>MOL_PROPERTY
Idih
SciTegic.value.DoubleValue
0.001

@<SCITEGIC>MOL_PROPERTY
Tether
SciTegic.value.DoubleValue
0.000

@<TRIPOS>MOLECULE
guest-s22_confgen4.mol2 : confsearch ligand conformer 765
          20          19           1
SMALL
USER_CHARGES
 
@<TRIPOS>ATOM
       1    C1      21.655739   16.332912   22.769379 C.2        1 MOL1        -0.2535
       2    H1      22.596272   16.841145   22.562800 H          1 MOL1         0.0845
       3    H2      21.693622   15.445548   23.398996 H          1 MOL1         0.0845
       4    C2      20.498380   16.778537   22.273797 C.2        1 MOL1        -0.1324
       5    H3      19.567812   16.255603   22.493444 H          1 MOL1         0.0833
       6    C3      20.367945   18.001211   21.393057 C.3        1 MOL1        -0.1813
       7    H4      19.758081   17.756672   20.513062 H          1 MOL1         0.0753
       8    H5      21.354399   18.307395   21.019025 H          1 MOL1         0.0753
       9    C4      19.721821   19.173944   22.160023 C.3        1 MOL1        -0.1855
      10    H6      18.734444   18.865894   22.531000 H          1 MOL1         0.0755
      11    H7      20.332022   19.412450   23.042089 H          1 MOL1         0.0755
      12    C5      19.578366   20.431269   21.272957 C.3        1 MOL1        -0.1855
      13    H8      18.959633   20.198935   20.394956 H          1 MOL1         0.0755
      14    H9      20.567632   20.722281   20.894478 H          1 MOL1         0.0755
      15    C6      18.958372   21.631117   22.035103 C.3        1 MOL1        -0.1958
      16    H10     19.549745   21.857709   22.930531 H          1 MOL1         0.0753
      17    H11     18.989103   22.524189   21.399922 H          1 MOL1         0.0753
      18    C7      17.505931   21.417335   22.451734 C.2        1 MOL1         0.6174
      19    O1      17.270700   21.182014   23.620606 O.co2      1 MOL1        -0.6695
      20    O2      16.646692   21.503071   21.596483 O.co2      1 MOL1        -0.6695
@<TRIPOS>BOND
    1     1     2    1
    2     1     3    1
    3     1     4    2
    4     4     5    1
    5     4     6    1
    6     6     7    1
    7     6     8    1
    8     6     9    1
    9     9    10    1
   10     9    11    1
   11     9    12    1
   12    12    13    1
   13    12    14    1
   14    12    15    1
   15    15    16    1
   16    15    17    1
   17    15    18    1
   18    18    19    1
   19    18    20    2
@<TRIPOS>SUBSTRUCTURE
       1 MOL1            1 RESIDUE      1      MOL     
@<SCITEGIC>MOL_PROPERTY
VConf Rank
SciTegic.value.IntegerValue
765

@<SCITEGIC>MOL_PROPERTY
Conf_Id
SciTegic.value.IntegerValue
58

@<SCITEGIC>MOL_PROPERTY
Delta U+W
SciTegic.value.DoubleValue
0.019

@<SCITEGIC>MOL_PROPERTY
U+W
SciTegic.value.DoubleValue
-51.727

@<SCITEGIC>MOL_PROPERTY
Grad RMS
SciTegic.value.DoubleValue
0.000000

@<SCITEGIC>MOL_PROPERTY
U
SciTegic.value.DoubleValue
8.963

@<SCITEGIC>MOL_PROPERTY
W
SciTegic.value.DoubleValue
-60.690

@<SCITEGIC>MOL_PROPERTY
W(PB)
SciTegic.value.DoubleValue
-62.934

@<SCITEGIC>MOL_PROPERTY
W(SA)
SciTegic.value.DoubleValue
2.244

@<SCITEGIC>MOL_PROPERTY
Valence
SciTegic.value.DoubleValue
9.327

@<SCITEGIC>MOL_PROPERTY
Coulomb
SciTegic.value.DoubleValue
-0.780

@<SCITEGIC>MOL_PROPERTY
VdW
SciTegic.value.DoubleValue
0.417

@<SCITEGIC>MOL_PROPERTY
VdW6
SciTegic.value.DoubleValue
-6.635

@<SCITEGIC>MOL_PROPERTY
VdW12
SciTegic.value.DoubleValue
7.052

@<SCITEGIC>MOL_PROPERTY
Bond
SciTegic.value.DoubleValue
0.105

@<SCITEGIC>MOL_PROPERTY
Angle
SciTegic.value.DoubleValue
2.399

@<SCITEGIC>MOL_PROPERTY
Pdih
SciTegic.value.DoubleValue
6.822

@<SCITEGIC>MOL_PROPERTY
Idih
SciTegic.value.DoubleValue
0.000

@<SCITEGIC>MOL_PROPERTY
Tether
SciTegic.value.DoubleValue
0.000

@<TRIPOS>MOLECULE
guest-s22_confgen4.mol2 : confsearch ligand conformer 766
          20          19           1
SMALL
USER_CHARGES
 
@<TRIPOS>ATOM
       1    C1      16.725934   19.197398   20.152685 C.2        1 MOL1        -0.2535
       2    H1      17.168381   19.754333   19.328280 H          1 MOL1         0.0845
       3    H2      15.641101   19.213484   20.242931 H          1 MOL1         0.0845
       4    C2      17.480864   18.521787   21.022912 C.2        1 MOL1        -0.1324
       5    H3      17.018106   17.971421   21.841822 H          1 MOL1         0.0833
       6    C3      18.990534   18.453110   20.961080 C.3        1 MOL1        -0.1813
       7    H4      19.347644   18.808082   19.984757 H          1 MOL1         0.0753
       8    H5      19.314895   17.408125   21.055536 H          1 MOL1         0.0753
       9    C4      19.633006   19.297063   22.081788 C.3        1 MOL1        -0.1855
      10    H6      19.302482   20.340620   21.986845 H          1 MOL1         0.0755
      11    H7      19.276016   18.938546   23.057214 H          1 MOL1         0.0755
      12    C5      21.176477   19.235325   22.034750 C.3        1 MOL1        -0.1855
      13    H8      21.522951   19.580543   21.051204 H          1 MOL1         0.0755
      14    H9      21.510874   18.193809   22.140195 H          1 MOL1         0.0755
      15    C6      21.841704   20.102141   23.135203 C.3        1 MOL1        -0.1958
      16    H10     22.927391   20.117325   22.983450 H          1 MOL1         0.0753
      17    H11     21.495996   21.140294   23.060472 H          1 MOL1         0.0753
      18    C7      21.586418   19.604671   24.555139 C.2        1 MOL1         0.6174
      19    O1      22.200217   18.628242   24.938459 O.co2      1 MOL1        -0.6695
      20    O2      20.790097   20.211880   25.243716 O.co2      1 MOL1        -0.6695
@<TRIPOS>BOND
    1     1     2    1
    2     1     3    1
    3     1     4    2
    4     4     5    1
    5     4     6    1
    6     6     7    1
    7     6     8    1
    8     6     9    1
    9     9    10    1
   10     9    11    1
   11     9    12    1
   12    12    13    1
   13    12    14    1
   14    12    15    1
   15    15    16    1
   16    15    17    1
   17    15    18    1
   18    18    19    1
   19    18    20    2
@<TRIPOS>SUBSTRUCTURE
       1 MOL1            1 RESIDUE      1      MOL     
@<SCITEGIC>MOL_PROPERTY
VConf Rank
SciTegic.value.IntegerValue
766

@<SCITEGIC>MOL_PROPERTY
Conf_Id
SciTegic.value.IntegerValue
54

@<SCITEGIC>MOL_PROPERTY
Delta U+W
SciTegic.value.DoubleValue
-0.048

@<SCITEGIC>MOL_PROPERTY
U+W
SciTegic.value.DoubleValue
-51.793

@<SCITEGIC>MOL_PROPERTY
Grad RMS
SciTegic.value.DoubleValue
0.000000

@<SCITEGIC>MOL_PROPERTY
U
SciTegic.value.DoubleValue
8.964

@<SCITEGIC>MOL_PROPERTY
W
SciTegic.value.DoubleValue
-60.756

@<SCITEGIC>MOL_PROPERTY
W(PB)
SciTegic.value.DoubleValue
-63.007

@<SCITEGIC>MOL_PROPERTY
W(SA)
SciTegic.value.DoubleValue
2.251

@<SCITEGIC>MOL_PROPERTY
Valence
SciTegic.value.DoubleValue
9.327

@<SCITEGIC>MOL_PROPERTY
Coulomb
SciTegic.value.DoubleValue
-0.780

@<SCITEGIC>MOL_PROPERTY
VdW
SciTegic.value.DoubleValue
0.417

@<SCITEGIC>MOL_PROPERTY
VdW6
SciTegic.value.DoubleValue
-6.635

@<SCITEGIC>MOL_PROPERTY
VdW12
SciTegic.value.DoubleValue
7.052

@<SCITEGIC>MOL_PROPERTY
Bond
SciTegic.value.DoubleValue
0.105

@<SCITEGIC>MOL_PROPERTY
Angle
SciTegic.value.DoubleValue
2.399

@<SCITEGIC>MOL_PROPERTY
Pdih
SciTegic.value.DoubleValue
6.822

@<SCITEGIC>MOL_PROPERTY
Idih
SciTegic.value.DoubleValue
0.000

@<SCITEGIC>MOL_PROPERTY
Tether
SciTegic.value.DoubleValue
0.000

@<TRIPOS>MOLECULE
guest-s22_confgen4.mol2 : confsearch ligand conformer 767
          20          19           1
SMALL
USER_CHARGES
 
@<TRIPOS>ATOM
       1    C1      19.088644   20.581199   24.951061 C.2        1 MOL1        -0.2535
       2    H1      19.667663   20.743364   25.858600 H          1 MOL1         0.0845
       3    H2      18.414019   21.376468   24.638112 H          1 MOL1         0.0845
       4    C2      19.206399   19.450548   24.250038 C.2        1 MOL1        -0.1324
       5    H3      19.885039   18.665786   24.582978 H          1 MOL1         0.0833
       6    C3      18.429838   19.153020   22.985018 C.3        1 MOL1        -0.1813
       7    H4      17.543591   19.799951   22.934242 H          1 MOL1         0.0753
       8    H5      18.055544   18.120860   23.009414 H          1 MOL1         0.0753
       9    C4      19.275020   19.371108   21.709751 C.3        1 MOL1        -0.1855
      10    H6      18.619700   19.274338   20.833295 H          1 MOL1         0.0755
      11    H7      19.661592   20.399497   21.699055 H          1 MOL1         0.0755
      12    C5      20.447555   18.369113   21.586175 C.3        1 MOL1        -0.1855
      13    H8      20.062534   17.340253   21.611557 H          1 MOL1         0.0755
      14    H9      21.115734   18.478308   22.450529 H          1 MOL1         0.0755
      15    C6      21.274087   18.576482   20.290404 C.3        1 MOL1        -0.1958
      16    H10     21.637354   19.609789   20.234312 H          1 MOL1         0.0753
      17    H11     22.159004   17.929670   20.313034 H          1 MOL1         0.0753
      18    C7      20.509549   18.258225   19.008597 C.2        1 MOL1         0.6174
      19    O1      20.115947   19.184689   18.327575 O.co2      1 MOL1        -0.6695
      20    O2      20.337388   17.090293   18.719785 O.co2      1 MOL1        -0.6695
@<TRIPOS>BOND
    1     1     2    1
    2     1     3    1
    3     1     4    2
    4     4     5    1
    5     4     6    1
    6     6     7    1
    7     6     8    1
    8     6     9    1
    9     9    10    1
   10     9    11    1
   11     9    12    1
   12    12    13    1
   13    12    14    1
   14    12    15    1
   15    15    16    1
   16    15    17    1
   17    15    18    1
   18    18    19    1
   19    18    20    2
@<TRIPOS>SUBSTRUCTURE
       1 MOL1            1 RESIDUE      1      MOL     
@<SCITEGIC>MOL_PROPERTY
VConf Rank
SciTegic.value.IntegerValue
767

@<SCITEGIC>MOL_PROPERTY
Conf_Id
SciTegic.value.IntegerValue
27

@<SCITEGIC>MOL_PROPERTY
Delta U+W
SciTegic.value.DoubleValue
0.478

@<SCITEGIC>MOL_PROPERTY
U+W
SciTegic.value.DoubleValue
-51.267

@<SCITEGIC>MOL_PROPERTY
Grad RMS
SciTegic.value.DoubleValue
0.000000

@<SCITEGIC>MOL_PROPERTY
U
SciTegic.value.DoubleValue
9.192

@<SCITEGIC>MOL_PROPERTY
W
SciTegic.value.DoubleValue
-60.459

@<SCITEGIC>MOL_PROPERTY
W(PB)
SciTegic.value.DoubleValue
-62.649

@<SCITEGIC>MOL_PROPERTY
W(SA)
SciTegic.value.DoubleValue
2.190

@<SCITEGIC>MOL_PROPERTY
Valence
SciTegic.value.DoubleValue
9.572

@<SCITEGIC>MOL_PROPERTY
Coulomb
SciTegic.value.DoubleValue
-0.884

@<SCITEGIC>MOL_PROPERTY
VdW
SciTegic.value.DoubleValue
0.504

@<SCITEGIC>MOL_PROPERTY
VdW6
SciTegic.value.DoubleValue
-7.168

@<SCITEGIC>MOL_PROPERTY
VdW12
SciTegic.value.DoubleValue
7.672

@<SCITEGIC>MOL_PROPERTY
Bond
SciTegic.value.DoubleValue
0.127

@<SCITEGIC>MOL_PROPERTY
Angle
SciTegic.value.DoubleValue
2.504

@<SCITEGIC>MOL_PROPERTY
Pdih
SciTegic.value.DoubleValue
6.941

@<SCITEGIC>MOL_PROPERTY
Idih
SciTegic.value.DoubleValue
0.001

@<SCITEGIC>MOL_PROPERTY
Tether
SciTegic.value.DoubleValue
0.000

@<TRIPOS>MOLECULE
guest-s22_confgen4.mol2 : confsearch ligand conformer 768
          20          19           1
SMALL
USER_CHARGES
 
@<TRIPOS>ATOM
       1    C1      22.618415   19.056565   23.523282 C.2        1 MOL1        -0.2535
       2    H1      22.899687   18.048672   23.824188 H          1 MOL1         0.0845
       3    H2      22.970883   19.880744   24.141096 H          1 MOL1         0.0845
       4    C2      21.867669   19.277304   22.441001 C.2        1 MOL1        -0.1324
       5    H3      21.600223   20.294410   22.155938 H          1 MOL1         0.0833
       6    C3      21.347849   18.183450   21.532670 C.3        1 MOL1        -0.1813
       7    H4      21.940443   17.269852   21.676638 H          1 MOL1         0.0753
       8    H5      21.481956   18.474233   20.482183 H          1 MOL1         0.0753
       9    C4      19.861006   17.856050   21.797562 C.3        1 MOL1        -0.1855
      10    H6      19.582543   16.973164   21.206081 H          1 MOL1         0.0755
      11    H7      19.730520   17.581222   22.853379 H          1 MOL1         0.0755
      12    C5      18.915029   19.025307   21.439780 C.3        1 MOL1        -0.1855
      13    H8      19.065288   19.316018   20.390844 H          1 MOL1         0.0755
      14    H9      19.156785   19.904336   22.052598 H          1 MOL1         0.0755
      15    C6      17.428582   18.650295   21.658640 C.3        1 MOL1        -0.1958
      16    H10     17.161474   17.783551   21.042243 H          1 MOL1         0.0753
      17    H11     17.259546   18.368874   22.704985 H          1 MOL1         0.0753
      18    C7      16.474353   19.788134   21.313940 C.2        1 MOL1         0.6174
      19    O1      16.174408   20.571678   22.193003 O.co2      1 MOL1        -0.6695
      20    O2      16.070009   19.871124   20.170997 O.co2      1 MOL1        -0.6695
@<TRIPOS>BOND
    1     1     2    1
    2     1     3    1
    3     1     4    2
    4     4     5    1
    5     4     6    1
    6     6     7    1
    7     6     8    1
    8     6     9    1
    9     9    10    1
   10     9    11    1
   11     9    12    1
   12    12    13    1
   13    12    14    1
   14    12    15    1
   15    15    16    1
   16    15    17    1
   17    15    18    1
   18    18    19    1
   19    18    20    2
@<TRIPOS>SUBSTRUCTURE
       1 MOL1            1 RESIDUE      1      MOL     
@<SCITEGIC>MOL_PROPERTY
VConf Rank
SciTegic.value.IntegerValue
768

@<SCITEGIC>MOL_PROPERTY
Conf_Id
SciTegic.value.IntegerValue
41

@<SCITEGIC>MOL_PROPERTY
Delta U+W
SciTegic.value.DoubleValue
-0.634

@<SCITEGIC>MOL_PROPERTY
U+W
SciTegic.value.DoubleValue
-52.379

@<SCITEGIC>MOL_PROPERTY
Grad RMS
SciTegic.value.DoubleValue
0.000000

@<SCITEGIC>MOL_PROPERTY
U
SciTegic.value.DoubleValue
7.828

@<SCITEGIC>MOL_PROPERTY
W
SciTegic.value.DoubleValue
-60.207

@<SCITEGIC>MOL_PROPERTY
W(PB)
SciTegic.value.DoubleValue
-62.449

@<SCITEGIC>MOL_PROPERTY
W(SA)
SciTegic.value.DoubleValue
2.242

@<SCITEGIC>MOL_PROPERTY
Valence
SciTegic.value.DoubleValue
9.300

@<SCITEGIC>MOL_PROPERTY
Coulomb
SciTegic.value.DoubleValue
-2.080

@<SCITEGIC>MOL_PROPERTY
VdW
SciTegic.value.DoubleValue
0.608

@<SCITEGIC>MOL_PROPERTY
VdW6
SciTegic.value.DoubleValue
-6.341

@<SCITEGIC>MOL_PROPERTY
VdW12
SciTegic.value.DoubleValue
6.949

@<SCITEGIC>MOL_PROPERTY
Bond
SciTegic.value.DoubleValue
0.103

@<SCITEGIC>MOL_PROPERTY
Angle
SciTegic.value.DoubleValue
2.334

@<SCITEGIC>MOL_PROPERTY
Pdih
SciTegic.value.DoubleValue
6.862

@<SCITEGIC>MOL_PROPERTY
Idih
SciTegic.value.DoubleValue
0.001

@<SCITEGIC>MOL_PROPERTY
Tether
SciTegic.value.DoubleValue
0.000

@<TRIPOS>MOLECULE
guest-s22_confgen4.mol2 : confsearch ligand conformer 769
          20          19           1
SMALL
USER_CHARGES
 
@<TRIPOS>ATOM
       1    C1      21.406140   20.759240   19.585591 C.2        1 MOL1        -0.2535
       2    H1      21.711836   20.794055   18.541284 H          1 MOL1         0.0845
       3    H2      21.281383   21.709071   20.103095 H          1 MOL1         0.0845
       4    C2      21.191394   19.594782   20.203359 C.2        1 MOL1        -0.1324
       5    H3      21.321147   18.654794   19.667400 H          1 MOL1         0.0833
       6    C3      20.766885   19.467509   21.649454 C.3        1 MOL1        -0.1813
       7    H4      20.910130   20.422220   22.173269 H          1 MOL1         0.0753
       8    H5      21.408384   18.729882   22.148792 H          1 MOL1         0.0753
       9    C4      19.287113   19.036449   21.757332 C.3        1 MOL1        -0.1855
      10    H6      18.671859   19.730444   21.168271 H          1 MOL1         0.0755
      11    H7      19.158773   18.045947   21.299410 H          1 MOL1         0.0755
      12    C5      18.752866   19.016285   23.210730 C.3        1 MOL1        -0.1855
      13    H8      17.680677   18.776770   23.190011 H          1 MOL1         0.0755
      14    H9      18.834476   20.023948   23.640105 H          1 MOL1         0.0755
      15    C6      19.471453   18.004943   24.145203 C.3        1 MOL1        -0.1958
      16    H10     20.532341   18.259540   24.248654 H          1 MOL1         0.0753
      17    H11     19.038130   18.068500   25.150139 H          1 MOL1         0.0753
      18    C7      19.359390   16.551507   23.693870 C.2        1 MOL1         0.6174
      19    O1      18.283482   15.997801   23.808921 O.co2      1 MOL1        -0.6695
      20    O2      20.353340   16.005889   23.256472 O.co2      1 MOL1        -0.6695
@<TRIPOS>BOND
    1     1     2    1
    2     1     3    1
    3     1     4    2
    4     4     5    1
    5     4     6    1
    6     6     7    1
    7     6     8    1
    8     6     9    1
    9     9    10    1
   10     9    11    1
   11     9    12    1
   12    12    13    1
   13    12    14    1
   14    12    15    1
   15    15    16    1
   16    15    17    1
   17    15    18    1
   18    18    19    1
   19    18    20    2
@<TRIPOS>SUBSTRUCTURE
       1 MOL1            1 RESIDUE      1      MOL     
@<SCITEGIC>MOL_PROPERTY
VConf Rank
SciTegic.value.IntegerValue
769

@<SCITEGIC>MOL_PROPERTY
Conf_Id
SciTegic.value.IntegerValue
84

@<SCITEGIC>MOL_PROPERTY
Delta U+W
SciTegic.value.DoubleValue
0.942

@<SCITEGIC>MOL_PROPERTY
U+W
SciTegic.value.DoubleValue
-50.803

@<SCITEGIC>MOL_PROPERTY
Grad RMS
SciTegic.value.DoubleValue
0.000000

@<SCITEGIC>MOL_PROPERTY
U
SciTegic.value.DoubleValue
10.196

@<SCITEGIC>MOL_PROPERTY
W
SciTegic.value.DoubleValue
-60.999

@<SCITEGIC>MOL_PROPERTY
W(PB)
SciTegic.value.DoubleValue
-63.182

@<SCITEGIC>MOL_PROPERTY
W(SA)
SciTegic.value.DoubleValue
2.182

@<SCITEGIC>MOL_PROPERTY
Valence
SciTegic.value.DoubleValue
9.837

@<SCITEGIC>MOL_PROPERTY
Coulomb
SciTegic.value.DoubleValue
0.032

@<SCITEGIC>MOL_PROPERTY
VdW
SciTegic.value.DoubleValue
0.328

@<SCITEGIC>MOL_PROPERTY
VdW6
SciTegic.value.DoubleValue
-7.642

@<SCITEGIC>MOL_PROPERTY
VdW12
SciTegic.value.DoubleValue
7.969

@<SCITEGIC>MOL_PROPERTY
Bond
SciTegic.value.DoubleValue
0.151

@<SCITEGIC>MOL_PROPERTY
Angle
SciTegic.value.DoubleValue
2.748

@<SCITEGIC>MOL_PROPERTY
Pdih
SciTegic.value.DoubleValue
6.937

@<SCITEGIC>MOL_PROPERTY
Idih
SciTegic.value.DoubleValue
0.001

@<SCITEGIC>MOL_PROPERTY
Tether
SciTegic.value.DoubleValue
0.000

@<TRIPOS>MOLECULE
guest-s22_confgen4.mol2 : confsearch ligand conformer 770
          20          19           1
SMALL
USER_CHARGES
 
@<TRIPOS>ATOM
       1    C1      22.106210   21.279026   23.417069 C.2        1 MOL1        -0.2535
       2    H1      22.949218   21.341659   24.103128 H          1 MOL1         0.0845
       3    H2      22.235999   21.705428   22.423632 H          1 MOL1         0.0845
       4    C2      20.960317   20.698739   23.782937 C.2        1 MOL1        -0.1324
       5    H3      20.851269   20.277210   24.781966 H          1 MOL1         0.0833
       6    C3      19.748396   20.575530   22.886427 C.3        1 MOL1        -0.1813
       7    H4      19.850117   21.238235   22.016218 H          1 MOL1         0.0753
       8    H5      18.853516   20.904511   23.431444 H          1 MOL1         0.0753
       9    C4      19.556588   19.122040   22.405139 C.3        1 MOL1        -0.1855
      10    H6      20.457787   18.797459   21.866469 H          1 MOL1         0.0755
      11    H7      19.450681   18.459187   23.274886 H          1 MOL1         0.0755
      12    C5      18.319498   18.978335   21.490103 C.3        1 MOL1        -0.1855
      13    H8      18.428587   19.629679   20.611717 H          1 MOL1         0.0755
      14    H9      17.427295   19.322916   22.030295 H          1 MOL1         0.0755
      15    C6      18.090929   17.517944   21.021168 C.3        1 MOL1        -0.1958
      16    H10     18.007012   16.850512   21.887393 H          1 MOL1         0.0753
      17    H11     17.141661   17.452226   20.476606 H          1 MOL1         0.0753
      18    C7      19.183651   16.984400   20.099115 C.2        1 MOL1         0.6174
      19    O1      19.985518   16.192747   20.554381 O.co2      1 MOL1        -0.6695
      20    O2      19.195323   17.365631   18.945150 O.co2      1 MOL1        -0.6695
@<TRIPOS>BOND
    1     1     2    1
    2     1     3    1
    3     1     4    2
    4     4     5    1
    5     4     6    1
    6     6     7    1
    7     6     8    1
    8     6     9    1
    9     9    10    1
   10     9    11    1
   11     9    12    1
   12    12    13    1
   13    12    14    1
   14    12    15    1
   15    15    16    1
   16    15    17    1
   17    15    18    1
   18    18    19    1
   19    18    20    2
@<TRIPOS>SUBSTRUCTURE
       1 MOL1            1 RESIDUE      1      MOL     
@<SCITEGIC>MOL_PROPERTY
VConf Rank
SciTegic.value.IntegerValue
770

@<SCITEGIC>MOL_PROPERTY
Conf_Id
SciTegic.value.IntegerValue
81

@<SCITEGIC>MOL_PROPERTY
Delta U+W
SciTegic.value.DoubleValue
-0.051

@<SCITEGIC>MOL_PROPERTY
U+W
SciTegic.value.DoubleValue
-51.796

@<SCITEGIC>MOL_PROPERTY
Grad RMS
SciTegic.value.DoubleValue
0.000000

@<SCITEGIC>MOL_PROPERTY
U
SciTegic.value.DoubleValue
9.412

@<SCITEGIC>MOL_PROPERTY
W
SciTegic.value.DoubleValue
-61.209

@<SCITEGIC>MOL_PROPERTY
W(PB)
SciTegic.value.DoubleValue
-63.452

@<SCITEGIC>MOL_PROPERTY
W(SA)
SciTegic.value.DoubleValue
2.243

@<SCITEGIC>MOL_PROPERTY
Valence
SciTegic.value.DoubleValue
9.329

@<SCITEGIC>MOL_PROPERTY
Coulomb
SciTegic.value.DoubleValue
-0.323

@<SCITEGIC>MOL_PROPERTY
VdW
SciTegic.value.DoubleValue
0.406

@<SCITEGIC>MOL_PROPERTY
VdW6
SciTegic.value.DoubleValue
-6.640

@<SCITEGIC>MOL_PROPERTY
VdW12
SciTegic.value.DoubleValue
7.046

@<SCITEGIC>MOL_PROPERTY
Bond
SciTegic.value.DoubleValue
0.105

@<SCITEGIC>MOL_PROPERTY
Angle
SciTegic.value.DoubleValue
2.401

@<SCITEGIC>MOL_PROPERTY
Pdih
SciTegic.value.DoubleValue
6.823

@<SCITEGIC>MOL_PROPERTY
Idih
SciTegic.value.DoubleValue
0.000

@<SCITEGIC>MOL_PROPERTY
Tether
SciTegic.value.DoubleValue
0.000

@<TRIPOS>MOLECULE
guest-s22_confgen4.mol2 : confsearch ligand conformer 771
          20          19           1
SMALL
USER_CHARGES
 
@<TRIPOS>ATOM
       1    C1      19.086375   15.966186   22.716838 C.2        1 MOL1        -0.2535
       2    H1      20.020874   15.538062   23.075839 H          1 MOL1         0.0845
       3    H2      18.173227   15.403285   22.902435 H          1 MOL1         0.0845
       4    C2      19.056820   17.137496   22.075871 C.2        1 MOL1        -0.1324
       5    H3      18.111075   17.547328   21.722559 H          1 MOL1         0.0833
       6    C3      20.283862   17.972292   21.777526 C.3        1 MOL1        -0.1813
       7    H4      20.250329   18.334457   20.741840 H          1 MOL1         0.0753
       8    H5      21.183393   17.345926   21.846264 H          1 MOL1         0.0753
       9    C4      20.439674   19.163755   22.752639 C.3        1 MOL1        -0.1855
      10    H6      20.558414   18.772838   23.772403 H          1 MOL1         0.0755
      11    H7      21.372972   19.694525   22.519810 H          1 MOL1         0.0755
      12    C5      19.261407   20.171511   22.738326 C.3        1 MOL1        -0.1855
      13    H8      19.460736   20.956337   23.480955 H          1 MOL1         0.0755
      14    H9      18.343825   19.667096   23.068939 H          1 MOL1         0.0755
      15    C6      19.006362   20.842664   21.361120 C.3        1 MOL1        -0.1958
      16    H10     18.729582   20.092780   20.611382 H          1 MOL1         0.0753
      17    H11     18.154709   21.527876   21.443452 H          1 MOL1         0.0753
      18    C7      20.189127   21.649140   20.832722 C.2        1 MOL1         0.6174
      19    O1      20.811009   21.207676   19.886436 O.co2      1 MOL1        -0.6695
      20    O2      20.446457   22.707812   21.371662 O.co2      1 MOL1        -0.6695
@<TRIPOS>BOND
    1     1     2    1
    2     1     3    1
    3     1     4    2
    4     4     5    1
    5     4     6    1
    6     6     7    1
    7     6     8    1
    8     6     9    1
    9     9    10    1
   10     9    11    1
   11     9    12    1
   12    12    13    1
   13    12    14    1
   14    12    15    1
   15    15    16    1
   16    15    17    1
   17    15    18    1
   18    18    19    1
   19    18    20    2
@<TRIPOS>SUBSTRUCTURE
       1 MOL1            1 RESIDUE      1      MOL     
@<SCITEGIC>MOL_PROPERTY
VConf Rank
SciTegic.value.IntegerValue
771

@<SCITEGIC>MOL_PROPERTY
Conf_Id
SciTegic.value.IntegerValue
86

@<SCITEGIC>MOL_PROPERTY
Delta U+W
SciTegic.value.DoubleValue
1.248

@<SCITEGIC>MOL_PROPERTY
U+W
SciTegic.value.DoubleValue
-50.498

@<SCITEGIC>MOL_PROPERTY
Grad RMS
SciTegic.value.DoubleValue
0.000000

@<SCITEGIC>MOL_PROPERTY
U
SciTegic.value.DoubleValue
10.404

@<SCITEGIC>MOL_PROPERTY
W
SciTegic.value.DoubleValue
-60.901

@<SCITEGIC>MOL_PROPERTY
W(PB)
SciTegic.value.DoubleValue
-63.061

@<SCITEGIC>MOL_PROPERTY
W(SA)
SciTegic.value.DoubleValue
2.159

@<SCITEGIC>MOL_PROPERTY
Valence
SciTegic.value.DoubleValue
10.021

@<SCITEGIC>MOL_PROPERTY
Coulomb
SciTegic.value.DoubleValue
0.094

@<SCITEGIC>MOL_PROPERTY
VdW
SciTegic.value.DoubleValue
0.289

@<SCITEGIC>MOL_PROPERTY
VdW6
SciTegic.value.DoubleValue
-8.409

@<SCITEGIC>MOL_PROPERTY
VdW12
SciTegic.value.DoubleValue
8.698

@<SCITEGIC>MOL_PROPERTY
Bond
SciTegic.value.DoubleValue
0.179

@<SCITEGIC>MOL_PROPERTY
Angle
SciTegic.value.DoubleValue
2.939

@<SCITEGIC>MOL_PROPERTY
Pdih
SciTegic.value.DoubleValue
6.902

@<SCITEGIC>MOL_PROPERTY
Idih
SciTegic.value.DoubleValue
0.001

@<SCITEGIC>MOL_PROPERTY
Tether
SciTegic.value.DoubleValue
0.000

@<TRIPOS>MOLECULE
guest-s22_confgen4.mol2 : confsearch ligand conformer 772
          20          19           1
SMALL
USER_CHARGES
 
@<TRIPOS>ATOM
       1    C1      21.721694   19.526339   19.587802 C.2        1 MOL1        -0.2535
       2    H1      21.740586   19.336377   18.516046 H          1 MOL1         0.0845
       3    H2      21.832747   20.558524   19.915956 H          1 MOL1         0.0845
       4    C2      21.564552   18.529543   20.462861 C.2        1 MOL1        -0.1324
       5    H3      21.452841   17.503457   20.113494 H          1 MOL1         0.0833
       6    C3      21.527785   18.715669   21.964879 C.3        1 MOL1        -0.1813
       7    H4      21.846236   19.731178   22.236893 H          1 MOL1         0.0753
       8    H5      22.249435   18.030240   22.428806 H          1 MOL1         0.0753
       9    C4      20.127106   18.438937   22.556130 C.3        1 MOL1        -0.1855
      10    H6      19.806172   17.424857   22.281239 H          1 MOL1         0.0755
      11    H7      20.197148   18.458461   23.652361 H          1 MOL1         0.0755
      12    C5      19.069057   19.467512   22.091194 C.3        1 MOL1        -0.1855
      13    H8      18.993072   19.444218   20.995862 H          1 MOL1         0.0755
      14    H9      19.392216   20.481950   22.362924 H          1 MOL1         0.0755
      15    C6      17.666732   19.195159   22.694799 C.3        1 MOL1        -0.1958
      16    H10     16.934543   19.872736   22.240123 H          1 MOL1         0.0753
      17    H11     17.344363   18.173996   22.457982 H          1 MOL1         0.0753
      18    C7      17.592870   19.391493   24.206329 C.2        1 MOL1         0.6174
      19    O1      17.558087   20.528234   24.634977 O.co2      1 MOL1        -0.6695
      20    O2      17.560464   18.404278   24.914456 O.co2      1 MOL1        -0.6695
@<TRIPOS>BOND
    1     1     2    1
    2     1     3    1
    3     1     4    2
    4     4     5    1
    5     4     6    1
    6     6     7    1
    7     6     8    1
    8     6     9    1
    9     9    10    1
   10     9    11    1
   11     9    12    1
   12    12    13    1
   13    12    14    1
   14    12    15    1
   15    15    16    1
   16    15    17    1
   17    15    18    1
   18    18    19    1
   19    18    20    2
@<TRIPOS>SUBSTRUCTURE
       1 MOL1            1 RESIDUE      1      MOL     
@<SCITEGIC>MOL_PROPERTY
VConf Rank
SciTegic.value.IntegerValue
772

@<SCITEGIC>MOL_PROPERTY
Conf_Id
SciTegic.value.IntegerValue
28

@<SCITEGIC>MOL_PROPERTY
Delta U+W
SciTegic.value.DoubleValue
0.446

@<SCITEGIC>MOL_PROPERTY
U+W
SciTegic.value.DoubleValue
-51.299

@<SCITEGIC>MOL_PROPERTY
Grad RMS
SciTegic.value.DoubleValue
0.000000

@<SCITEGIC>MOL_PROPERTY
U
SciTegic.value.DoubleValue
9.295

@<SCITEGIC>MOL_PROPERTY
W
SciTegic.value.DoubleValue
-60.594

@<SCITEGIC>MOL_PROPERTY
W(PB)
SciTegic.value.DoubleValue
-62.806

@<SCITEGIC>MOL_PROPERTY
W(SA)
SciTegic.value.DoubleValue
2.212

@<SCITEGIC>MOL_PROPERTY
Valence
SciTegic.value.DoubleValue
9.495

@<SCITEGIC>MOL_PROPERTY
Coulomb
SciTegic.value.DoubleValue
-0.610

@<SCITEGIC>MOL_PROPERTY
VdW
SciTegic.value.DoubleValue
0.409

@<SCITEGIC>MOL_PROPERTY
VdW6
SciTegic.value.DoubleValue
-7.332

@<SCITEGIC>MOL_PROPERTY
VdW12
SciTegic.value.DoubleValue
7.741

@<SCITEGIC>MOL_PROPERTY
Bond
SciTegic.value.DoubleValue
0.126

@<SCITEGIC>MOL_PROPERTY
Angle
SciTegic.value.DoubleValue
2.497

@<SCITEGIC>MOL_PROPERTY
Pdih
SciTegic.value.DoubleValue
6.872

@<SCITEGIC>MOL_PROPERTY
Idih
SciTegic.value.DoubleValue
0.000

@<SCITEGIC>MOL_PROPERTY
Tether
SciTegic.value.DoubleValue
0.000

@<TRIPOS>MOLECULE
guest-s22_confgen4.mol2 : confsearch ligand conformer 773
          20          19           1
SMALL
USER_CHARGES
 
@<TRIPOS>ATOM
       1    C1      20.889866   19.119326   25.094122 C.2        1 MOL1        -0.2535
       2    H1      21.474465   19.868102   24.563958 H          1 MOL1         0.0845
       3    H2      21.046028   19.044635   26.168912 H          1 MOL1         0.0845
       4    C2      20.013045   18.321464   24.473978 C.2        1 MOL1        -0.1324
       5    H3      19.454624   17.591645   25.059700 H          1 MOL1         0.0833
       6    C3      19.689360   18.306767   22.989233 C.3        1 MOL1        -0.1813
       7    H4      18.628690   18.559506   22.863686 H          1 MOL1         0.0753
       8    H5      19.798897   17.279833   22.616189 H          1 MOL1         0.0753
       9    C4      20.556667   19.252615   22.122198 C.3        1 MOL1        -0.1855
      10    H6      20.386885   20.293883   22.428968 H          1 MOL1         0.0755
      11    H7      21.617459   19.038178   22.310427 H          1 MOL1         0.0755
      12    C5      20.296445   19.108938   20.602098 C.3        1 MOL1        -0.1855
      13    H8      20.516312   18.078114   20.293151 H          1 MOL1         0.0755
      14    H9      21.006021   19.749697   20.060490 H          1 MOL1         0.0755
      15    C6      18.854463   19.477111   20.157359 C.3        1 MOL1        -0.1958
      16    H10     18.761889   19.334977   19.074360 H          1 MOL1         0.0753
      17    H11     18.122621   18.806173   20.621198 H          1 MOL1         0.0753
      18    C7      18.457076   20.919067   20.460263 C.2        1 MOL1         0.6174
      19    O1      18.980463   21.805163   19.813464 O.co2      1 MOL1        -0.6695
      20    O2      17.620428   21.117550   21.319031 O.co2      1 MOL1        -0.6695
@<TRIPOS>BOND
    1     1     2    1
    2     1     3    1
    3     1     4    2
    4     4     5    1
    5     4     6    1
    6     6     7    1
    7     6     8    1
    8     6     9    1
    9     9    10    1
   10     9    11    1
   11     9    12    1
   12    12    13    1
   13    12    14    1
   14    12    15    1
   15    15    16    1
   16    15    17    1
   17    15    18    1
   18    18    19    1
   19    18    20    2
@<TRIPOS>SUBSTRUCTURE
       1 MOL1            1 RESIDUE      1      MOL     
@<SCITEGIC>MOL_PROPERTY
VConf Rank
SciTegic.value.IntegerValue
773

@<SCITEGIC>MOL_PROPERTY
Conf_Id
SciTegic.value.IntegerValue
53

@<SCITEGIC>MOL_PROPERTY
Delta U+W
SciTegic.value.DoubleValue
0.549

@<SCITEGIC>MOL_PROPERTY
U+W
SciTegic.value.DoubleValue
-51.197

@<SCITEGIC>MOL_PROPERTY
Grad RMS
SciTegic.value.DoubleValue
0.000000

@<SCITEGIC>MOL_PROPERTY
U
SciTegic.value.DoubleValue
10.870

@<SCITEGIC>MOL_PROPERTY
W
SciTegic.value.DoubleValue
-62.067

@<SCITEGIC>MOL_PROPERTY
W(PB)
SciTegic.value.DoubleValue
-64.228

@<SCITEGIC>MOL_PROPERTY
W(SA)
SciTegic.value.DoubleValue
2.161

@<SCITEGIC>MOL_PROPERTY
Valence
SciTegic.value.DoubleValue
8.803

@<SCITEGIC>MOL_PROPERTY
Coulomb
SciTegic.value.DoubleValue
1.020

@<SCITEGIC>MOL_PROPERTY
VdW
SciTegic.value.DoubleValue
1.048

@<SCITEGIC>MOL_PROPERTY
VdW6
SciTegic.value.DoubleValue
-8.312

@<SCITEGIC>MOL_PROPERTY
VdW12
SciTegic.value.DoubleValue
9.360

@<SCITEGIC>MOL_PROPERTY
Bond
SciTegic.value.DoubleValue
0.212

@<SCITEGIC>MOL_PROPERTY
Angle
SciTegic.value.DoubleValue
3.379

@<SCITEGIC>MOL_PROPERTY
Pdih
SciTegic.value.DoubleValue
5.211

@<SCITEGIC>MOL_PROPERTY
Idih
SciTegic.value.DoubleValue
0.001

@<SCITEGIC>MOL_PROPERTY
Tether
SciTegic.value.DoubleValue
0.000

@<TRIPOS>MOLECULE
guest-s22_confgen4.mol2 : confsearch ligand conformer 774
          20          19           1
SMALL
USER_CHARGES
 
@<TRIPOS>ATOM
       1    C1      20.331593   18.418579   19.361387 C.2        1 MOL1        -0.2535
       2    H1      19.980139   19.446482   19.304870 H          1 MOL1         0.0845
       3    H2      20.208042   17.804426   18.471176 H          1 MOL1         0.0845
       4    C2      20.897775   17.919362   20.465414 C.2        1 MOL1        -0.1324
       5    H3      21.235466   16.883379   20.468209 H          1 MOL1         0.0833
       6    C3      21.126718   18.657183   21.774266 C.3        1 MOL1        -0.1813
       7    H4      22.167989   19.003879   21.805236 H          1 MOL1         0.0753
       8    H5      21.045070   17.944512   22.604937 H          1 MOL1         0.0753
       9    C4      20.181834   19.855854   22.050225 C.3        1 MOL1        -0.1855
      10    H6      20.498126   20.342550   22.982923 H          1 MOL1         0.0755
      11    H7      20.312231   20.611784   21.264801 H          1 MOL1         0.0755
      12    C5      18.679153   19.486682   22.162111 C.3        1 MOL1        -0.1855
      13    H8      18.330392   19.065673   21.210443 H          1 MOL1         0.0755
      14    H9      18.101434   20.408214   22.317149 H          1 MOL1         0.0755
      15    C6      18.343620   18.491415   23.306305 C.3        1 MOL1        -0.1958
      16    H10     17.266642   18.287255   23.304855 H          1 MOL1         0.0753
      17    H11     18.840959   17.529341   23.138766 H          1 MOL1         0.0753
      18    C7      18.708509   18.995796   24.699461 C.2        1 MOL1         0.6174
      19    O1      19.651251   18.482751   25.269705 O.co2      1 MOL1        -0.6695
      20    O2      18.027625   19.877669   25.185470 O.co2      1 MOL1        -0.6695
@<TRIPOS>BOND
    1     1     2    1
    2     1     3    1
    3     1     4    2
    4     4     5    1
    5     4     6    1
    6     6     7    1
    7     6     8    1
    8     6     9    1
    9     9    10    1
   10     9    11    1
   11     9    12    1
   12    12    13    1
   13    12    14    1
   14    12    15    1
   15    15    16    1
   16    15    17    1
   17    15    18    1
   18    18    19    1
   19    18    20    2
@<TRIPOS>SUBSTRUCTURE
       1 MOL1            1 RESIDUE      1      MOL     
@<SCITEGIC>MOL_PROPERTY
VConf Rank
SciTegic.value.IntegerValue
774

@<SCITEGIC>MOL_PROPERTY
Conf_Id
SciTegic.value.IntegerValue
66

@<SCITEGIC>MOL_PROPERTY
Delta U+W
SciTegic.value.DoubleValue
1.737

@<SCITEGIC>MOL_PROPERTY
U+W
SciTegic.value.DoubleValue
-50.008

@<SCITEGIC>MOL_PROPERTY
Grad RMS
SciTegic.value.DoubleValue
0.000000

@<SCITEGIC>MOL_PROPERTY
U
SciTegic.value.DoubleValue
11.091

@<SCITEGIC>MOL_PROPERTY
W
SciTegic.value.DoubleValue
-61.099

@<SCITEGIC>MOL_PROPERTY
W(PB)
SciTegic.value.DoubleValue
-63.213

@<SCITEGIC>MOL_PROPERTY
W(SA)
SciTegic.value.DoubleValue
2.114

@<SCITEGIC>MOL_PROPERTY
Valence
SciTegic.value.DoubleValue
9.664

@<SCITEGIC>MOL_PROPERTY
Coulomb
SciTegic.value.DoubleValue
0.658

@<SCITEGIC>MOL_PROPERTY
VdW
SciTegic.value.DoubleValue
0.769

@<SCITEGIC>MOL_PROPERTY
VdW6
SciTegic.value.DoubleValue
-9.171

@<SCITEGIC>MOL_PROPERTY
VdW12
SciTegic.value.DoubleValue
9.940

@<SCITEGIC>MOL_PROPERTY
Bond
SciTegic.value.DoubleValue
0.244

@<SCITEGIC>MOL_PROPERTY
Angle
SciTegic.value.DoubleValue
3.658

@<SCITEGIC>MOL_PROPERTY
Pdih
SciTegic.value.DoubleValue
5.762

@<SCITEGIC>MOL_PROPERTY
Idih
SciTegic.value.DoubleValue
0.001

@<SCITEGIC>MOL_PROPERTY
Tether
SciTegic.value.DoubleValue
0.000

@<TRIPOS>MOLECULE
guest-s22_confgen4.mol2 : confsearch ligand conformer 775
          20          19           1
SMALL
USER_CHARGES
 
@<TRIPOS>ATOM
       1    C1      22.239649   19.360821   21.617039 C.2        1 MOL1        -0.2535
       2    H1      22.106726   19.739440   22.628059 H          1 MOL1         0.0845
       3    H2      23.167902   18.832980   21.405693 H          1 MOL1         0.0845
       4    C2      21.317007   19.532579   20.664090 C.2        1 MOL1        -0.1324
       5    H3      21.503047   19.134441   19.666986 H          1 MOL1         0.0833
       6    C3      19.980124   20.239804   20.816322 C.3        1 MOL1        -0.1813
       7    H4      19.239846   19.740940   20.178534 H          1 MOL1         0.0753
       8    H5      20.070562   21.252374   20.401466 H          1 MOL1         0.0753
       9    C4      19.421177   20.330278   22.260521 C.3        1 MOL1        -0.1855
      10    H6      20.131213   20.879818   22.892461 H          1 MOL1         0.0755
      11    H7      18.506187   20.937908   22.246074 H          1 MOL1         0.0755
      12    C5      19.099108   18.963723   22.917407 C.3        1 MOL1        -0.1855
      13    H8      18.794278   19.139269   23.958293 H          1 MOL1         0.0755
      14    H9      20.002834   18.341789   22.962969 H          1 MOL1         0.0755
      15    C6      17.972787   18.179217   22.195694 C.3        1 MOL1        -0.1958
      16    H10     17.078006   18.805106   22.096794 H          1 MOL1         0.0753
      17    H11     18.287644   17.896941   21.184740 H          1 MOL1         0.0753
      18    C7      17.577479   16.904040   22.931831 C.2        1 MOL1         0.6174
      19    O1      18.146142   15.870885   22.638632 O.co2      1 MOL1        -0.6695
      20    O2      16.720380   16.980028   23.790050 O.co2      1 MOL1        -0.6695
@<TRIPOS>BOND
    1     1     2    1
    2     1     3    1
    3     1     4    2
    4     4     5    1
    5     4     6    1
    6     6     7    1
    7     6     8    1
    8     6     9    1
    9     9    10    1
   10     9    11    1
   11     9    12    1
   12    12    13    1
   13    12    14    1
   14    12    15    1
   15    15    16    1
   16    15    17    1
   17    15    18    1
   18    18    19    1
   19    18    20    2
@<TRIPOS>SUBSTRUCTURE
       1 MOL1            1 RESIDUE      1      MOL     
@<SCITEGIC>MOL_PROPERTY
VConf Rank
SciTegic.value.IntegerValue
775

@<SCITEGIC>MOL_PROPERTY
Conf_Id
SciTegic.value.IntegerValue
64

@<SCITEGIC>MOL_PROPERTY
Delta U+W
SciTegic.value.DoubleValue
0.366

@<SCITEGIC>MOL_PROPERTY
U+W
SciTegic.value.DoubleValue
-51.379

@<SCITEGIC>MOL_PROPERTY
Grad RMS
SciTegic.value.DoubleValue
0.000000

@<SCITEGIC>MOL_PROPERTY
U
SciTegic.value.DoubleValue
10.000

@<SCITEGIC>MOL_PROPERTY
W
SciTegic.value.DoubleValue
-61.379

@<SCITEGIC>MOL_PROPERTY
W(PB)
SciTegic.value.DoubleValue
-63.541

@<SCITEGIC>MOL_PROPERTY
W(SA)
SciTegic.value.DoubleValue
2.162

@<SCITEGIC>MOL_PROPERTY
Valence
SciTegic.value.DoubleValue
9.398

@<SCITEGIC>MOL_PROPERTY
Coulomb
SciTegic.value.DoubleValue
-0.504

@<SCITEGIC>MOL_PROPERTY
VdW
SciTegic.value.DoubleValue
1.105

@<SCITEGIC>MOL_PROPERTY
VdW6
SciTegic.value.DoubleValue
-7.975

@<SCITEGIC>MOL_PROPERTY
VdW12
SciTegic.value.DoubleValue
9.080

@<SCITEGIC>MOL_PROPERTY
Bond
SciTegic.value.DoubleValue
0.216

@<SCITEGIC>MOL_PROPERTY
Angle
SciTegic.value.DoubleValue
3.417

@<SCITEGIC>MOL_PROPERTY
Pdih
SciTegic.value.DoubleValue
5.765

@<SCITEGIC>MOL_PROPERTY
Idih
SciTegic.value.DoubleValue
0.001

@<SCITEGIC>MOL_PROPERTY
Tether
SciTegic.value.DoubleValue
0.000

@<TRIPOS>MOLECULE
guest-s22_confgen4.mol2 : confsearch ligand conformer 776
          20          19           1
SMALL
USER_CHARGES
 
@<TRIPOS>ATOM
       1    C1      22.782276   19.123832   21.128596 C.2        1 MOL1        -0.2535
       2    H1      22.551291   20.012499   20.543502 H          1 MOL1         0.0845
       3    H2      23.446037   18.386866   20.679814 H          1 MOL1         0.0845
       4    C2      22.269968   18.939360   22.348236 C.2        1 MOL1        -0.1324
       5    H3      22.511866   18.041525   22.916364 H          1 MOL1         0.0833
       6    C3      21.341264   19.917185   23.036238 C.3        1 MOL1        -0.1813
       7    H4      21.313174   20.871461   22.492875 H          1 MOL1         0.0753
       8    H5      21.734346   20.142021   24.036627 H          1 MOL1         0.0753
       9    C4      19.906225   19.361687   23.177763 C.3        1 MOL1        -0.1855
      10    H6      19.934510   18.406922   23.720633 H          1 MOL1         0.0755
      11    H7      19.316319   20.055549   23.792133 H          1 MOL1         0.0755
      12    C5      19.204455   19.168184   21.814071 C.3        1 MOL1        -0.1855
      13    H8      19.771021   18.454890   21.199706 H          1 MOL1         0.0755
      14    H9      19.192479   20.120252   21.265700 H          1 MOL1         0.0755
      15    C6      17.753103   18.654484   21.980538 C.3        1 MOL1        -0.1958
      16    H10     17.749679   17.697388   22.515835 H          1 MOL1         0.0753
      17    H11     17.166589   19.362663   22.578008 H          1 MOL1         0.0753
      18    C7      17.039377   18.455184   20.648259 C.2        1 MOL1         0.6174
      19    O1      16.443075   19.399974   20.170195 O.co2      1 MOL1        -0.6695
      20    O2      17.110072   17.364688   20.116740 O.co2      1 MOL1        -0.6695
@<TRIPOS>BOND
    1     1     2    1
    2     1     3    1
    3     1     4    2
    4     4     5    1
    5     4     6    1
    6     6     7    1
    7     6     8    1
    8     6     9    1
    9     9    10    1
   10     9    11    1
   11     9    12    1
   12    12    13    1
   13    12    14    1
   14    12    15    1
   15    15    16    1
   16    15    17    1
   17    15    18    1
   18    18    19    1
   19    18    20    2
@<TRIPOS>SUBSTRUCTURE
       1 MOL1            1 RESIDUE      1      MOL     
@<SCITEGIC>MOL_PROPERTY
VConf Rank
SciTegic.value.IntegerValue
776

@<SCITEGIC>MOL_PROPERTY
Conf_Id
SciTegic.value.IntegerValue
42

@<SCITEGIC>MOL_PROPERTY
Delta U+W
SciTegic.value.DoubleValue
-0.601

@<SCITEGIC>MOL_PROPERTY
U+W
SciTegic.value.DoubleValue
-52.347

@<SCITEGIC>MOL_PROPERTY
Grad RMS
SciTegic.value.DoubleValue
0.000000

@<SCITEGIC>MOL_PROPERTY
U
SciTegic.value.DoubleValue
8.428

@<SCITEGIC>MOL_PROPERTY
W
SciTegic.value.DoubleValue
-60.774

@<SCITEGIC>MOL_PROPERTY
W(PB)
SciTegic.value.DoubleValue
-62.982

@<SCITEGIC>MOL_PROPERTY
W(SA)
SciTegic.value.DoubleValue
2.208

@<SCITEGIC>MOL_PROPERTY
Valence
SciTegic.value.DoubleValue
9.231

@<SCITEGIC>MOL_PROPERTY
Coulomb
SciTegic.value.DoubleValue
-1.304

@<SCITEGIC>MOL_PROPERTY
VdW
SciTegic.value.DoubleValue
0.501

@<SCITEGIC>MOL_PROPERTY
VdW6
SciTegic.value.DoubleValue
-6.515

@<SCITEGIC>MOL_PROPERTY
VdW12
SciTegic.value.DoubleValue
7.016

@<SCITEGIC>MOL_PROPERTY
Bond
SciTegic.value.DoubleValue
0.103

@<SCITEGIC>MOL_PROPERTY
Angle
SciTegic.value.DoubleValue
2.328

@<SCITEGIC>MOL_PROPERTY
Pdih
SciTegic.value.DoubleValue
6.799

@<SCITEGIC>MOL_PROPERTY
Idih
SciTegic.value.DoubleValue
0.000

@<SCITEGIC>MOL_PROPERTY
Tether
SciTegic.value.DoubleValue
0.000

@<TRIPOS>MOLECULE
guest-s22_confgen4.mol2 : confsearch ligand conformer 777
          20          19           1
SMALL
USER_CHARGES
 
@<TRIPOS>ATOM
       1    C1      19.591352   18.703252   19.099047 C.2        1 MOL1        -0.2535
       2    H1      20.478660   18.072408   19.109801 H          1 MOL1         0.0845
       3    H2      19.451967   19.357544   18.240229 H          1 MOL1         0.0845
       4    C2      18.707857   18.681190   20.100534 C.2        1 MOL1        -0.1324
       5    H3      17.827562   19.322794   20.071691 H          1 MOL1         0.0833
       6    C3      18.834483   17.800956   21.325710 C.3        1 MOL1        -0.1813
       7    H4      19.629467   17.055881   21.186160 H          1 MOL1         0.0753
       8    H5      17.901844   17.237195   21.460501 H          1 MOL1         0.0753
       9    C4      19.112067   18.618284   22.607460 C.3        1 MOL1        -0.1855
      10    H6      18.312201   19.358279   22.748739 H          1 MOL1         0.0755
      11    H7      19.071660   17.944707   23.474295 H          1 MOL1         0.0755
      12    C5      20.487115   19.326531   22.577512 C.3        1 MOL1        -0.1855
      13    H8      20.526141   20.035237   21.738724 H          1 MOL1         0.0755
      14    H9      21.273820   18.581631   22.397373 H          1 MOL1         0.0755
      15    C6      20.798280   20.079875   23.896782 C.3        1 MOL1        -0.1958
      16    H10     20.740485   19.392100   24.749045 H          1 MOL1         0.0753
      17    H11     21.825315   20.462339   23.866596 H          1 MOL1         0.0753
      18    C7      19.876403   21.266011   24.165175 C.2        1 MOL1         0.6174
      19    O1      18.991052   21.132754   24.987100 O.co2      1 MOL1        -0.6695
      20    O2      20.080239   22.298583   23.557440 O.co2      1 MOL1        -0.6695
@<TRIPOS>BOND
    1     1     2    1
    2     1     3    1
    3     1     4    2
    4     4     5    1
    5     4     6    1
    6     6     7    1
    7     6     8    1
    8     6     9    1
    9     9    10    1
   10     9    11    1
   11     9    12    1
   12    12    13    1
   13    12    14    1
   14    12    15    1
   15    15    16    1
   16    15    17    1
   17    15    18    1
   18    18    19    1
   19    18    20    2
@<TRIPOS>SUBSTRUCTURE
       1 MOL1            1 RESIDUE      1      MOL     
@<SCITEGIC>MOL_PROPERTY
VConf Rank
SciTegic.value.IntegerValue
777

@<SCITEGIC>MOL_PROPERTY
Conf_Id
SciTegic.value.IntegerValue
68

@<SCITEGIC>MOL_PROPERTY
Delta U+W
SciTegic.value.DoubleValue
0.492

@<SCITEGIC>MOL_PROPERTY
U+W
SciTegic.value.DoubleValue
-51.253

@<SCITEGIC>MOL_PROPERTY
Grad RMS
SciTegic.value.DoubleValue
0.000000

@<SCITEGIC>MOL_PROPERTY
U
SciTegic.value.DoubleValue
10.179

@<SCITEGIC>MOL_PROPERTY
W
SciTegic.value.DoubleValue
-61.432

@<SCITEGIC>MOL_PROPERTY
W(PB)
SciTegic.value.DoubleValue
-63.627

@<SCITEGIC>MOL_PROPERTY
W(SA)
SciTegic.value.DoubleValue
2.195

@<SCITEGIC>MOL_PROPERTY
Valence
SciTegic.value.DoubleValue
9.483

@<SCITEGIC>MOL_PROPERTY
Coulomb
SciTegic.value.DoubleValue
0.361

@<SCITEGIC>MOL_PROPERTY
VdW
SciTegic.value.DoubleValue
0.335

@<SCITEGIC>MOL_PROPERTY
VdW6
SciTegic.value.DoubleValue
-7.385

@<SCITEGIC>MOL_PROPERTY
VdW12
SciTegic.value.DoubleValue
7.720

@<SCITEGIC>MOL_PROPERTY
Bond
SciTegic.value.DoubleValue
0.125

@<SCITEGIC>MOL_PROPERTY
Angle
SciTegic.value.DoubleValue
2.487

@<SCITEGIC>MOL_PROPERTY
Pdih
SciTegic.value.DoubleValue
6.870

@<SCITEGIC>MOL_PROPERTY
Idih
SciTegic.value.DoubleValue
0.001

@<SCITEGIC>MOL_PROPERTY
Tether
SciTegic.value.DoubleValue
0.000

@<TRIPOS>MOLECULE
guest-s22_confgen4.mol2 : confsearch ligand conformer 778
          20          19           1
SMALL
USER_CHARGES
 
@<TRIPOS>ATOM
       1    C1      22.720287   20.164884   22.201830 C.2        1 MOL1        -0.2535
       2    H1      22.904438   20.257507   23.270942 H          1 MOL1         0.0845
       3    H2      23.263949   20.836527   21.539633 H          1 MOL1         0.0845
       4    C2      21.859159   19.266074   21.717788 C.2        1 MOL1        -0.1324
       5    H3      21.691801   19.188380   20.643916 H          1 MOL1         0.0833
       6    C3      21.073580   18.297277   22.575738 C.3        1 MOL1        -0.1813
       7    H4      21.547784   18.207597   23.562454 H          1 MOL1         0.0753
       8    H5      21.101659   17.294432   22.129073 H          1 MOL1         0.0753
       9    C4      19.606071   18.740805   22.770369 C.3        1 MOL1        -0.1855
      10    H6      19.128571   18.074307   23.501478 H          1 MOL1         0.0755
      11    H7      19.586118   19.749183   23.206688 H          1 MOL1         0.0755
      12    C5      18.791453   18.718303   21.455218 C.3        1 MOL1        -0.1855
      13    H8      18.859788   17.719453   21.003622 H          1 MOL1         0.0755
      14    H9      19.224203   19.423236   20.732299 H          1 MOL1         0.0755
      15    C6      17.297182   19.069989   21.675045 C.3        1 MOL1        -0.1958
      16    H10     16.745510   18.926560   20.738513 H          1 MOL1         0.0753
      17    H11     16.852174   18.391295   22.412680 H          1 MOL1         0.0753
      18    C7      17.059253   20.507063   22.130068 C.2        1 MOL1         0.6174
      19    O1      17.123374   21.389285   21.296594 O.co2      1 MOL1        -0.6695
      20    O2      16.797120   20.704635   23.300272 O.co2      1 MOL1        -0.6695
@<TRIPOS>BOND
    1     1     2    1
    2     1     3    1
    3     1     4    2
    4     4     5    1
    5     4     6    1
    6     6     7    1
    7     6     8    1
    8     6     9    1
    9     9    10    1
   10     9    11    1
   11     9    12    1
   12    12    13    1
   13    12    14    1
   14    12    15    1
   15    15    16    1
   16    15    17    1
   17    15    18    1
   18    18    19    1
   19    18    20    2
@<TRIPOS>SUBSTRUCTURE
       1 MOL1            1 RESIDUE      1      MOL     
@<SCITEGIC>MOL_PROPERTY
VConf Rank
SciTegic.value.IntegerValue
778

@<SCITEGIC>MOL_PROPERTY
Conf_Id
SciTegic.value.IntegerValue
87

@<SCITEGIC>MOL_PROPERTY
Delta U+W
SciTegic.value.DoubleValue
0.339

@<SCITEGIC>MOL_PROPERTY
U+W
SciTegic.value.DoubleValue
-51.407

@<SCITEGIC>MOL_PROPERTY
Grad RMS
SciTegic.value.DoubleValue
0.000000

@<SCITEGIC>MOL_PROPERTY
U
SciTegic.value.DoubleValue
10.461

@<SCITEGIC>MOL_PROPERTY
W
SciTegic.value.DoubleValue
-61.867

@<SCITEGIC>MOL_PROPERTY
W(PB)
SciTegic.value.DoubleValue
-64.045

@<SCITEGIC>MOL_PROPERTY
W(SA)
SciTegic.value.DoubleValue
2.178

@<SCITEGIC>MOL_PROPERTY
Valence
SciTegic.value.DoubleValue
9.555

@<SCITEGIC>MOL_PROPERTY
Coulomb
SciTegic.value.DoubleValue
0.483

@<SCITEGIC>MOL_PROPERTY
VdW
SciTegic.value.DoubleValue
0.423

@<SCITEGIC>MOL_PROPERTY
VdW6
SciTegic.value.DoubleValue
-7.223

@<SCITEGIC>MOL_PROPERTY
VdW12
SciTegic.value.DoubleValue
7.646

@<SCITEGIC>MOL_PROPERTY
Bond
SciTegic.value.DoubleValue
0.126

@<SCITEGIC>MOL_PROPERTY
Angle
SciTegic.value.DoubleValue
2.492

@<SCITEGIC>MOL_PROPERTY
Pdih
SciTegic.value.DoubleValue
6.936

@<SCITEGIC>MOL_PROPERTY
Idih
SciTegic.value.DoubleValue
0.001

@<SCITEGIC>MOL_PROPERTY
Tether
SciTegic.value.DoubleValue
0.000

@<TRIPOS>MOLECULE
guest-s22_confgen4.mol2 : confsearch ligand conformer 779
          20          19           1
SMALL
USER_CHARGES
 
@<TRIPOS>ATOM
       1    C1      21.560334   17.597827   23.489865 C.2        1 MOL1        -0.2535
       2    H1      21.501611   16.570954   23.132794 H          1 MOL1         0.0845
       3    H2      22.543877   17.982070   23.754477 H          1 MOL1         0.0845
       4    C2      20.468783   18.359801   23.597680 C.2        1 MOL1        -0.1324
       5    H3      20.546687   19.382219   23.965621 H          1 MOL1         0.0833
       6    C3      19.070744   17.887391   23.260154 C.3        1 MOL1        -0.1813
       7    H4      18.324348   18.532985   23.741857 H          1 MOL1         0.0753
       8    H5      18.926383   16.889303   23.695340 H          1 MOL1         0.0753
       9    C4      18.795844   17.803364   21.738137 C.3        1 MOL1        -0.1855
      10    H6      19.639961   17.317209   21.230145 H          1 MOL1         0.0755
      11    H7      17.932279   17.141276   21.587709 H          1 MOL1         0.0755
      12    C5      18.473573   19.157633   21.057551 C.3        1 MOL1        -0.1855
      13    H8      17.638213   19.647193   21.576729 H          1 MOL1         0.0755
      14    H9      18.123766   18.954910   20.035774 H          1 MOL1         0.0755
      15    C6      19.676437   20.132241   20.976799 C.3        1 MOL1        -0.1958
      16    H10     19.960909   20.476115   21.976252 H          1 MOL1         0.0753
      17    H11     20.547428   19.625471   20.544501 H          1 MOL1         0.0753
      18    C7      19.379424   21.367250   20.134085 C.2        1 MOL1         0.6174
      19    O1      18.886157   22.332379   20.683724 O.co2      1 MOL1        -0.6695
      20    O2      19.629595   21.324721   18.945604 O.co2      1 MOL1        -0.6695
@<TRIPOS>BOND
    1     1     2    1
    2     1     3    1
    3     1     4    2
    4     4     5    1
    5     4     6    1
    6     6     7    1
    7     6     8    1
    8     6     9    1
    9     9    10    1
   10     9    11    1
   11     9    12    1
   12    12    13    1
   13    12    14    1
   14    12    15    1
   15    15    16    1
   16    15    17    1
   17    15    18    1
   18    18    19    1
   19    18    20    2
@<TRIPOS>SUBSTRUCTURE
       1 MOL1            1 RESIDUE      1      MOL     
@<SCITEGIC>MOL_PROPERTY
VConf Rank
SciTegic.value.IntegerValue
779

@<SCITEGIC>MOL_PROPERTY
Conf_Id
SciTegic.value.IntegerValue
51

@<SCITEGIC>MOL_PROPERTY
Delta U+W
SciTegic.value.DoubleValue
1.709

@<SCITEGIC>MOL_PROPERTY
U+W
SciTegic.value.DoubleValue
-50.036

@<SCITEGIC>MOL_PROPERTY
Grad RMS
SciTegic.value.DoubleValue
0.000000

@<SCITEGIC>MOL_PROPERTY
U
SciTegic.value.DoubleValue
10.643

@<SCITEGIC>MOL_PROPERTY
W
SciTegic.value.DoubleValue
-60.679

@<SCITEGIC>MOL_PROPERTY
W(PB)
SciTegic.value.DoubleValue
-62.882

@<SCITEGIC>MOL_PROPERTY
W(SA)
SciTegic.value.DoubleValue
2.203

@<SCITEGIC>MOL_PROPERTY
Valence
SciTegic.value.DoubleValue
11.231

@<SCITEGIC>MOL_PROPERTY
Coulomb
SciTegic.value.DoubleValue
-1.077

@<SCITEGIC>MOL_PROPERTY
VdW
SciTegic.value.DoubleValue
0.489

@<SCITEGIC>MOL_PROPERTY
VdW6
SciTegic.value.DoubleValue
-7.546

@<SCITEGIC>MOL_PROPERTY
VdW12
SciTegic.value.DoubleValue
8.035

@<SCITEGIC>MOL_PROPERTY
Bond
SciTegic.value.DoubleValue
0.159

@<SCITEGIC>MOL_PROPERTY
Angle
SciTegic.value.DoubleValue
3.005

@<SCITEGIC>MOL_PROPERTY
Pdih
SciTegic.value.DoubleValue
8.065

@<SCITEGIC>MOL_PROPERTY
Idih
SciTegic.value.DoubleValue
0.002

@<SCITEGIC>MOL_PROPERTY
Tether
SciTegic.value.DoubleValue
0.000

@<TRIPOS>MOLECULE
guest-s22_confgen4.mol2 : confsearch ligand conformer 780
          20          19           1
SMALL
USER_CHARGES
 
@<TRIPOS>ATOM
       1    C1      19.074625   16.763191   20.465455 C.2        1 MOL1        -0.2535
       2    H1      18.901019   16.015304   21.237428 H          1 MOL1         0.0845
       3    H2      19.580914   16.439780   19.557657 H          1 MOL1         0.0845
       4    C2      18.684523   18.030493   20.625079 C.2        1 MOL1        -0.1324
       5    H3      18.859190   18.762424   19.837321 H          1 MOL1         0.0833
       6    C3      17.965611   18.545895   21.853545 C.3        1 MOL1        -0.1813
       7    H4      17.175298   17.831003   22.119519 H          1 MOL1         0.0753
       8    H5      17.450078   19.488257   21.625259 H          1 MOL1         0.0753
       9    C4      18.891951   18.732204   23.080882 C.3        1 MOL1        -0.1855
      10    H6      18.260086   18.758354   23.979101 H          1 MOL1         0.0755
      11    H7      19.543363   17.855153   23.196535 H          1 MOL1         0.0755
      12    C5      19.741595   20.027966   23.066393 C.3        1 MOL1        -0.1855
      13    H8      20.213661   20.141235   24.052199 H          1 MOL1         0.0755
      14    H9      19.088279   20.901658   22.936477 H          1 MOL1         0.0755
      15    C6      20.854691   20.047891   21.987556 C.3        1 MOL1        -0.1958
      16    H10     21.457517   19.133893   22.046983 H          1 MOL1         0.0753
      17    H11     20.417965   20.086927   20.984645 H          1 MOL1         0.0753
      18    C7      21.790252   21.243223   22.127298 C.2        1 MOL1         0.6174
      19    O1      21.492761   22.274860   21.557988 O.co2      1 MOL1        -0.6695
      20    O2      22.781863   21.118069   22.818621 O.co2      1 MOL1        -0.6695
@<TRIPOS>BOND
    1     1     2    1
    2     1     3    1
    3     1     4    2
    4     4     5    1
    5     4     6    1
    6     6     7    1
    7     6     8    1
    8     6     9    1
    9     9    10    1
   10     9    11    1
   11     9    12    1
   12    12    13    1
   13    12    14    1
   14    12    15    1
   15    15    16    1
   16    15    17    1
   17    15    18    1
   18    18    19    1
   19    18    20    2
@<TRIPOS>SUBSTRUCTURE
       1 MOL1            1 RESIDUE      1      MOL     
@<SCITEGIC>MOL_PROPERTY
VConf Rank
SciTegic.value.IntegerValue
780

@<SCITEGIC>MOL_PROPERTY
Conf_Id
SciTegic.value.IntegerValue
91

@<SCITEGIC>MOL_PROPERTY
Delta U+W
SciTegic.value.DoubleValue
1.604

@<SCITEGIC>MOL_PROPERTY
U+W
SciTegic.value.DoubleValue
-50.141

@<SCITEGIC>MOL_PROPERTY
Grad RMS
SciTegic.value.DoubleValue
0.000000

@<SCITEGIC>MOL_PROPERTY
U
SciTegic.value.DoubleValue
10.644

@<SCITEGIC>MOL_PROPERTY
W
SciTegic.value.DoubleValue
-60.786

@<SCITEGIC>MOL_PROPERTY
W(PB)
SciTegic.value.DoubleValue
-62.965

@<SCITEGIC>MOL_PROPERTY
W(SA)
SciTegic.value.DoubleValue
2.179

@<SCITEGIC>MOL_PROPERTY
Valence
SciTegic.value.DoubleValue
11.230

@<SCITEGIC>MOL_PROPERTY
Coulomb
SciTegic.value.DoubleValue
-1.075

@<SCITEGIC>MOL_PROPERTY
VdW
SciTegic.value.DoubleValue
0.489

@<SCITEGIC>MOL_PROPERTY
VdW6
SciTegic.value.DoubleValue
-7.547

@<SCITEGIC>MOL_PROPERTY
VdW12
SciTegic.value.DoubleValue
8.036

@<SCITEGIC>MOL_PROPERTY
Bond
SciTegic.value.DoubleValue
0.159

@<SCITEGIC>MOL_PROPERTY
Angle
SciTegic.value.DoubleValue
3.006

@<SCITEGIC>MOL_PROPERTY
Pdih
SciTegic.value.DoubleValue
8.064

@<SCITEGIC>MOL_PROPERTY
Idih
SciTegic.value.DoubleValue
0.002

@<SCITEGIC>MOL_PROPERTY
Tether
SciTegic.value.DoubleValue
0.000

@<TRIPOS>MOLECULE
guest-s22_confgen4.mol2 : confsearch ligand conformer 781
          20          19           1
SMALL
USER_CHARGES
 
@<TRIPOS>ATOM
       1    C1      19.403215   21.389887   19.087482 C.2        1 MOL1        -0.2535
       2    H1      19.320496   20.536037   18.416893 H          1 MOL1         0.0845
       3    H2      19.670365   22.348894   18.646784 H          1 MOL1         0.0845
       4    C2      19.188725   21.269413   20.400162 C.2        1 MOL1        -0.1324
       5    H3      19.277409   22.136586   21.054229 H          1 MOL1         0.0833
       6    C3      18.814013   19.972567   21.082382 C.3        1 MOL1        -0.1813
       7    H4      18.494979   19.229844   20.338484 H          1 MOL1         0.0753
       8    H5      17.956713   20.141646   21.747659 H          1 MOL1         0.0753
       9    C4      19.997571   19.408999   21.896294 C.3        1 MOL1        -0.1855
      10    H6      20.853615   19.245678   21.227041 H          1 MOL1         0.0755
      11    H7      20.313318   20.150349   22.643198 H          1 MOL1         0.0755
      12    C5      19.630998   18.085312   22.602405 C.3        1 MOL1        -0.1855
      13    H8      19.315547   17.343144   21.855933 H          1 MOL1         0.0755
      14    H9      18.774136   18.247716   23.270937 H          1 MOL1         0.0755
      15    C6      20.821861   17.518474   23.420292 C.3        1 MOL1        -0.1958
      16    H10     21.678665   17.347916   22.757940 H          1 MOL1         0.0753
      17    H11     21.137891   18.251569   24.171694 H          1 MOL1         0.0753
      18    C7      20.543569   16.205216   24.153246 C.2        1 MOL1         0.6174
      19    O1      21.452233   15.731033   24.805641 O.co2      1 MOL1        -0.6695
      20    O2      19.447754   15.685662   24.064369 O.co2      1 MOL1        -0.6695
@<TRIPOS>BOND
    1     1     2    1
    2     1     3    1
    3     1     4    2
    4     4     5    1
    5     4     6    1
    6     6     7    1
    7     6     8    1
    8     6     9    1
    9     9    10    1
   10     9    11    1
   11     9    12    1
   12    12    13    1
   13    12    14    1
   14    12    15    1
   15    15    16    1
   16    15    17    1
   17    15    18    1
   18    18    19    1
   19    18    20    2
@<TRIPOS>SUBSTRUCTURE
       1 MOL1            1 RESIDUE      1      MOL     
@<SCITEGIC>MOL_PROPERTY
VConf Rank
SciTegic.value.IntegerValue
781

@<SCITEGIC>MOL_PROPERTY
Conf_Id
SciTegic.value.IntegerValue
33

@<SCITEGIC>MOL_PROPERTY
Delta U+W
SciTegic.value.DoubleValue
0.000

@<SCITEGIC>MOL_PROPERTY
U+W
SciTegic.value.DoubleValue
-51.745

@<SCITEGIC>MOL_PROPERTY
Grad RMS
SciTegic.value.DoubleValue
0.000000

@<SCITEGIC>MOL_PROPERTY
U
SciTegic.value.DoubleValue
7.593

@<SCITEGIC>MOL_PROPERTY
W
SciTegic.value.DoubleValue
-59.338

@<SCITEGIC>MOL_PROPERTY
W(PB)
SciTegic.value.DoubleValue
-61.574

@<SCITEGIC>MOL_PROPERTY
W(SA)
SciTegic.value.DoubleValue
2.236

@<SCITEGIC>MOL_PROPERTY
Valence
SciTegic.value.DoubleValue
9.570

@<SCITEGIC>MOL_PROPERTY
Coulomb
SciTegic.value.DoubleValue
-3.091

@<SCITEGIC>MOL_PROPERTY
VdW
SciTegic.value.DoubleValue
1.114

@<SCITEGIC>MOL_PROPERTY
VdW6
SciTegic.value.DoubleValue
-6.064

@<SCITEGIC>MOL_PROPERTY
VdW12
SciTegic.value.DoubleValue
7.178

@<SCITEGIC>MOL_PROPERTY
Bond
SciTegic.value.DoubleValue
0.117

@<SCITEGIC>MOL_PROPERTY
Angle
SciTegic.value.DoubleValue
2.692

@<SCITEGIC>MOL_PROPERTY
Pdih
SciTegic.value.DoubleValue
6.761

@<SCITEGIC>MOL_PROPERTY
Idih
SciTegic.value.DoubleValue
0.000

@<SCITEGIC>MOL_PROPERTY
Tether
SciTegic.value.DoubleValue
0.000

@<TRIPOS>MOLECULE
guest-s22_confgen4.mol2 : confsearch ligand conformer 782
          20          19           1
SMALL
USER_CHARGES
 
@<TRIPOS>ATOM
       1    C1      16.886987   18.604045   19.678122 C.2        1 MOL1        -0.2535
       2    H1      16.366279   19.403577   20.202707 H          1 MOL1         0.0845
       3    H2      16.314316   18.020601   18.959164 H          1 MOL1         0.0845
       4    C2      18.176954   18.344231   19.906498 C.2        1 MOL1        -0.1324
       5    H3      18.679343   17.538740   19.371315 H          1 MOL1         0.0833
       6    C3      19.035500   19.110912   20.887734 C.3        1 MOL1        -0.1813
       7    H4      18.535820   20.044165   21.180913 H          1 MOL1         0.0753
       8    H5      19.975726   19.394453   20.398214 H          1 MOL1         0.0753
       9    C4      19.327300   18.265656   22.147974 C.3        1 MOL1        -0.1855
      10    H6      18.373474   17.922807   22.572251 H          1 MOL1         0.0755
      11    H7      19.883960   17.361481   21.865855 H          1 MOL1         0.0755
      12    C5      20.105129   19.036042   23.241440 C.3        1 MOL1        -0.1855
      13    H8      20.169882   18.404727   24.138514 H          1 MOL1         0.0755
      14    H9      19.543166   19.933752   23.534199 H          1 MOL1         0.0755
      15    C6      21.539559   19.440046   22.812294 C.3        1 MOL1        -0.1958
      16    H10     22.097180   18.557389   22.477094 H          1 MOL1         0.0753
      17    H11     21.508292   20.143798   21.972949 H          1 MOL1         0.0753
      18    C7      22.328188   20.097653   23.939052 C.2        1 MOL1         0.6174
      19    O1      22.248249   21.303381   24.067659 O.co2      1 MOL1        -0.6695
      20    O2      22.986061   19.384593   24.670819 O.co2      1 MOL1        -0.6695
@<TRIPOS>BOND
    1     1     2    1
    2     1     3    1
    3     1     4    2
    4     4     5    1
    5     4     6    1
    6     6     7    1
    7     6     8    1
    8     6     9    1
    9     9    10    1
   10     9    11    1
   11     9    12    1
   12    12    13    1
   13    12    14    1
   14    12    15    1
   15    15    16    1
   16    15    17    1
   17    15    18    1
   18    18    19    1
   19    18    20    2
@<TRIPOS>SUBSTRUCTURE
       1 MOL1            1 RESIDUE      1      MOL     
@<SCITEGIC>MOL_PROPERTY
VConf Rank
SciTegic.value.IntegerValue
782

@<SCITEGIC>MOL_PROPERTY
Conf_Id
SciTegic.value.IntegerValue
37

@<SCITEGIC>MOL_PROPERTY
Delta U+W
SciTegic.value.DoubleValue
-0.384

@<SCITEGIC>MOL_PROPERTY
U+W
SciTegic.value.DoubleValue
-52.130

@<SCITEGIC>MOL_PROPERTY
Grad RMS
SciTegic.value.DoubleValue
0.000000

@<SCITEGIC>MOL_PROPERTY
U
SciTegic.value.DoubleValue
7.491

@<SCITEGIC>MOL_PROPERTY
W
SciTegic.value.DoubleValue
-59.621

@<SCITEGIC>MOL_PROPERTY
W(PB)
SciTegic.value.DoubleValue
-61.853

@<SCITEGIC>MOL_PROPERTY
W(SA)
SciTegic.value.DoubleValue
2.232

@<SCITEGIC>MOL_PROPERTY
Valence
SciTegic.value.DoubleValue
9.604

@<SCITEGIC>MOL_PROPERTY
Coulomb
SciTegic.value.DoubleValue
-2.799

@<SCITEGIC>MOL_PROPERTY
VdW
SciTegic.value.DoubleValue
0.686

@<SCITEGIC>MOL_PROPERTY
VdW6
SciTegic.value.DoubleValue
-6.435

@<SCITEGIC>MOL_PROPERTY
VdW12
SciTegic.value.DoubleValue
7.121

@<SCITEGIC>MOL_PROPERTY
Bond
SciTegic.value.DoubleValue
0.124

@<SCITEGIC>MOL_PROPERTY
Angle
SciTegic.value.DoubleValue
2.493

@<SCITEGIC>MOL_PROPERTY
Pdih
SciTegic.value.DoubleValue
6.986

@<SCITEGIC>MOL_PROPERTY
Idih
SciTegic.value.DoubleValue
0.001

@<SCITEGIC>MOL_PROPERTY
Tether
SciTegic.value.DoubleValue
0.000

@<TRIPOS>MOLECULE
guest-s22_confgen4.mol2 : confsearch ligand conformer 783
          20          19           1
SMALL
USER_CHARGES
 
@<TRIPOS>ATOM
       1    C1      19.458822   16.120902   23.555356 C.2        1 MOL1        -0.2535
       2    H1      19.355587   15.189305   24.109125 H          1 MOL1         0.0845
       3    H2      19.330726   16.067260   22.476347 H          1 MOL1         0.0845
       4    C2      19.730623   17.266658   24.190399 C.2        1 MOL1        -0.1324
       5    H3      19.848155   17.257039   25.273784 H          1 MOL1         0.0833
       6    C3      19.902673   18.637403   23.557571 C.3        1 MOL1        -0.1813
       7    H4      20.894320   19.027034   23.823952 H          1 MOL1         0.0753
       8    H5      19.180912   19.329060   24.012331 H          1 MOL1         0.0753
       9    C4      19.739965   18.673368   22.019970 C.3        1 MOL1        -0.1855
      10    H6      20.473594   17.998877   21.557435 H          1 MOL1         0.0755
      11    H7      18.741605   18.304155   21.747856 H          1 MOL1         0.0755
      12    C5      19.929450   20.099167   21.457640 C.3        1 MOL1        -0.1855
      13    H8      20.926677   20.474391   21.726623 H          1 MOL1         0.0755
      14    H9      19.198232   20.779038   21.916662 H          1 MOL1         0.0755
      15    C6      19.766991   20.137827   19.918096 C.3        1 MOL1        -0.1958
      16    H10     20.499316   19.473966   19.443132 H          1 MOL1         0.0753
      17    H11     18.770835   19.778522   19.633184 H          1 MOL1         0.0753
      18    C7      19.949624   21.535976   19.338603 C.2        1 MOL1         0.6174
      19    O1      21.068883   21.880863   19.014629 O.co2      1 MOL1        -0.6695
      20    O2      18.971072   22.250331   19.244900 O.co2      1 MOL1        -0.6695
@<TRIPOS>BOND
    1     1     2    1
    2     1     3    1
    3     1     4    2
    4     4     5    1
    5     4     6    1
    6     6     7    1
    7     6     8    1
    8     6     9    1
    9     9    10    1
   10     9    11    1
   11     9    12    1
   12    12    13    1
   13    12    14    1
   14    12    15    1
   15    15    16    1
   16    15    17    1
   17    15    18    1
   18    18    19    1
   19    18    20    2
@<TRIPOS>SUBSTRUCTURE
       1 MOL1            1 RESIDUE      1      MOL     
@<SCITEGIC>MOL_PROPERTY
VConf Rank
SciTegic.value.IntegerValue
783

@<SCITEGIC>MOL_PROPERTY
Conf_Id
SciTegic.value.IntegerValue
44

@<SCITEGIC>MOL_PROPERTY
Delta U+W
SciTegic.value.DoubleValue
-1.440

@<SCITEGIC>MOL_PROPERTY
U+W
SciTegic.value.DoubleValue
-53.185

@<SCITEGIC>MOL_PROPERTY
Grad RMS
SciTegic.value.DoubleValue
0.000000

@<SCITEGIC>MOL_PROPERTY
U
SciTegic.value.DoubleValue
6.572

@<SCITEGIC>MOL_PROPERTY
W
SciTegic.value.DoubleValue
-59.757

@<SCITEGIC>MOL_PROPERTY
W(PB)
SciTegic.value.DoubleValue
-62.007

@<SCITEGIC>MOL_PROPERTY
W(SA)
SciTegic.value.DoubleValue
2.249

@<SCITEGIC>MOL_PROPERTY
Valence
SciTegic.value.DoubleValue
7.989

@<SCITEGIC>MOL_PROPERTY
Coulomb
SciTegic.value.DoubleValue
-2.697

@<SCITEGIC>MOL_PROPERTY
VdW
SciTegic.value.DoubleValue
1.281

@<SCITEGIC>MOL_PROPERTY
VdW6
SciTegic.value.DoubleValue
-6.467

@<SCITEGIC>MOL_PROPERTY
VdW12
SciTegic.value.DoubleValue
7.748

@<SCITEGIC>MOL_PROPERTY
Bond
SciTegic.value.DoubleValue
0.136

@<SCITEGIC>MOL_PROPERTY
Angle
SciTegic.value.DoubleValue
2.854

@<SCITEGIC>MOL_PROPERTY
Pdih
SciTegic.value.DoubleValue
4.997

@<SCITEGIC>MOL_PROPERTY
Idih
SciTegic.value.DoubleValue
0.001

@<SCITEGIC>MOL_PROPERTY
Tether
SciTegic.value.DoubleValue
0.000

@<TRIPOS>MOLECULE
guest-s22_confgen4.mol2 : confsearch ligand conformer 784
          20          19           1
SMALL
USER_CHARGES
 
@<TRIPOS>ATOM
       1    C1      21.557677   20.972105   24.212471 C.2        1 MOL1        -0.2535
       2    H1      22.181818   20.079903   24.214019 H          1 MOL1         0.0845
       3    H2      21.718407   21.697247   25.008455 H          1 MOL1         0.0845
       4    C2      20.628324   21.171801   23.274313 C.2        1 MOL1        -0.1324
       5    H3      20.013673   22.071552   23.291316 H          1 MOL1         0.0833
       6    C3      20.349339   20.211705   22.139288 C.3        1 MOL1        -0.1813
       7    H4      21.175146   19.494800   22.046064 H          1 MOL1         0.0753
       8    H5      20.302456   20.766655   21.192840 H          1 MOL1         0.0753
       9    C4      19.019469   19.457562   22.364395 C.3        1 MOL1        -0.1855
      10    H6      19.087150   18.859391   23.283526 H          1 MOL1         0.0755
      11    H7      18.218531   20.191059   22.530418 H          1 MOL1         0.0755
      12    C5      18.616823   18.548055   21.179069 C.3        1 MOL1        -0.1855
      13    H8      18.539286   19.146730   20.260947 H          1 MOL1         0.0755
      14    H9      17.613322   18.143473   21.370902 H          1 MOL1         0.0755
      15    C6      19.593511   17.366206   20.945890 C.3        1 MOL1        -0.1958
      16    H10     20.585586   17.734559   20.661628 H          1 MOL1         0.0753
      17    H11     19.713256   16.786379   21.868853 H          1 MOL1         0.0753
      18    C7      19.119986   16.418163   19.850025 C.2        1 MOL1         0.6174
      19    O1      18.413300   15.481894   20.167406 O.co2      1 MOL1        -0.6695
      20    O2      19.453723   16.652107   18.705210 O.co2      1 MOL1        -0.6695
@<TRIPOS>BOND
    1     1     2    1
    2     1     3    1
    3     1     4    2
    4     4     5    1
    5     4     6    1
    6     6     7    1
    7     6     8    1
    8     6     9    1
    9     9    10    1
   10     9    11    1
   11     9    12    1
   12    12    13    1
   13    12    14    1
   14    12    15    1
   15    15    16    1
   16    15    17    1
   17    15    18    1
   18    18    19    1
   19    18    20    2
@<TRIPOS>SUBSTRUCTURE
       1 MOL1            1 RESIDUE      1      MOL     
@<SCITEGIC>MOL_PROPERTY
VConf Rank
SciTegic.value.IntegerValue
784

@<SCITEGIC>MOL_PROPERTY
Conf_Id
SciTegic.value.IntegerValue
38

@<SCITEGIC>MOL_PROPERTY
Delta U+W
SciTegic.value.DoubleValue
-0.381

@<SCITEGIC>MOL_PROPERTY
U+W
SciTegic.value.DoubleValue
-52.126

@<SCITEGIC>MOL_PROPERTY
Grad RMS
SciTegic.value.DoubleValue
0.000000

@<SCITEGIC>MOL_PROPERTY
U
SciTegic.value.DoubleValue
7.601

@<SCITEGIC>MOL_PROPERTY
W
SciTegic.value.DoubleValue
-59.727

@<SCITEGIC>MOL_PROPERTY
W(PB)
SciTegic.value.DoubleValue
-61.964

@<SCITEGIC>MOL_PROPERTY
W(SA)
SciTegic.value.DoubleValue
2.236

@<SCITEGIC>MOL_PROPERTY
Valence
SciTegic.value.DoubleValue
9.602

@<SCITEGIC>MOL_PROPERTY
Coulomb
SciTegic.value.DoubleValue
-2.686

@<SCITEGIC>MOL_PROPERTY
VdW
SciTegic.value.DoubleValue
0.685

@<SCITEGIC>MOL_PROPERTY
VdW6
SciTegic.value.DoubleValue
-6.453

@<SCITEGIC>MOL_PROPERTY
VdW12
SciTegic.value.DoubleValue
7.139

@<SCITEGIC>MOL_PROPERTY
Bond
SciTegic.value.DoubleValue
0.125

@<SCITEGIC>MOL_PROPERTY
Angle
SciTegic.value.DoubleValue
2.485

@<SCITEGIC>MOL_PROPERTY
Pdih
SciTegic.value.DoubleValue
6.991

@<SCITEGIC>MOL_PROPERTY
Idih
SciTegic.value.DoubleValue
0.001

@<SCITEGIC>MOL_PROPERTY
Tether
SciTegic.value.DoubleValue
0.000

@<TRIPOS>MOLECULE
guest-s22_confgen4.mol2 : confsearch ligand conformer 785
          20          19           1
SMALL
USER_CHARGES
 
@<TRIPOS>ATOM
       1    C1      20.050992   19.790496   18.533329 C.2        1 MOL1        -0.2535
       2    H1      21.126787   19.943200   18.603506 H          1 MOL1         0.0845
       3    H2      19.647644   19.506287   17.562863 H          1 MOL1         0.0845
       4    C2      19.254058   19.942511   19.594202 C.2        1 MOL1        -0.1324
       5    H3      18.179738   19.783937   19.502822 H          1 MOL1         0.0833
       6    C3      19.741158   20.335573   20.971113 C.3        1 MOL1        -0.1813
       7    H4      19.119962   21.153011   21.361032 H          1 MOL1         0.0753
       8    H5      20.769325   20.718396   20.915792 H          1 MOL1         0.0753
       9    C4      19.689567   19.138276   21.943137 C.3        1 MOL1        -0.1855
      10    H6      18.659825   18.758798   21.998446 H          1 MOL1         0.0755
      11    H7      20.308171   18.320976   21.547382 H          1 MOL1         0.0755
      12    C5      20.181557   19.523818   23.356514 C.3        1 MOL1        -0.1855
      13    H8      19.558146   20.334077   23.759669 H          1 MOL1         0.0755
      14    H9      21.205291   19.916258   23.289122 H          1 MOL1         0.0755
      15    C6      20.165884   18.325552   24.340795 C.3        1 MOL1        -0.1958
      16    H10     20.761806   17.497180   23.938882 H          1 MOL1         0.0753
      17    H11     20.632733   18.622552   25.287272 H          1 MOL1         0.0753
      18    C7      18.767480   17.807435   24.664660 C.2        1 MOL1         0.6174
      19    O1      18.407481   16.764331   24.155440 O.co2      1 MOL1        -0.6695
      20    O2      18.079108   18.456568   25.427463 O.co2      1 MOL1        -0.6695
@<TRIPOS>BOND
    1     1     2    1
    2     1     3    1
    3     1     4    2
    4     4     5    1
    5     4     6    1
    6     6     7    1
    7     6     8    1
    8     6     9    1
    9     9    10    1
   10     9    11    1
   11     9    12    1
   12    12    13    1
   13    12    14    1
   14    12    15    1
   15    15    16    1
   16    15    17    1
   17    15    18    1
   18    18    19    1
   19    18    20    2
@<TRIPOS>SUBSTRUCTURE
       1 MOL1            1 RESIDUE      1      MOL     
@<SCITEGIC>MOL_PROPERTY
VConf Rank
SciTegic.value.IntegerValue
785

@<SCITEGIC>MOL_PROPERTY
Conf_Id
SciTegic.value.IntegerValue
58

@<SCITEGIC>MOL_PROPERTY
Delta U+W
SciTegic.value.DoubleValue
0.019

@<SCITEGIC>MOL_PROPERTY
U+W
SciTegic.value.DoubleValue
-51.727

@<SCITEGIC>MOL_PROPERTY
Grad RMS
SciTegic.value.DoubleValue
0.000000

@<SCITEGIC>MOL_PROPERTY
U
SciTegic.value.DoubleValue
8.963

@<SCITEGIC>MOL_PROPERTY
W
SciTegic.value.DoubleValue
-60.690

@<SCITEGIC>MOL_PROPERTY
W(PB)
SciTegic.value.DoubleValue
-62.934

@<SCITEGIC>MOL_PROPERTY
W(SA)
SciTegic.value.DoubleValue
2.244

@<SCITEGIC>MOL_PROPERTY
Valence
SciTegic.value.DoubleValue
9.327

@<SCITEGIC>MOL_PROPERTY
Coulomb
SciTegic.value.DoubleValue
-0.780

@<SCITEGIC>MOL_PROPERTY
VdW
SciTegic.value.DoubleValue
0.417

@<SCITEGIC>MOL_PROPERTY
VdW6
SciTegic.value.DoubleValue
-6.635

@<SCITEGIC>MOL_PROPERTY
VdW12
SciTegic.value.DoubleValue
7.052

@<SCITEGIC>MOL_PROPERTY
Bond
SciTegic.value.DoubleValue
0.105

@<SCITEGIC>MOL_PROPERTY
Angle
SciTegic.value.DoubleValue
2.399

@<SCITEGIC>MOL_PROPERTY
Pdih
SciTegic.value.DoubleValue
6.822

@<SCITEGIC>MOL_PROPERTY
Idih
SciTegic.value.DoubleValue
0.000

@<SCITEGIC>MOL_PROPERTY
Tether
SciTegic.value.DoubleValue
0.000

@<TRIPOS>MOLECULE
guest-s22_confgen4.mol2 : confsearch ligand conformer 786
          20          19           1
SMALL
USER_CHARGES
 
@<TRIPOS>ATOM
       1    C1      22.853732   19.658945   23.739204 C.2        1 MOL1        -0.2535
       2    H1      22.746369   20.741567   23.783693 H          1 MOL1         0.0845
       3    H2      23.858853   19.251017   23.831894 H          1 MOL1         0.0845
       4    C2      21.796828   18.859187   23.574860 C.2        1 MOL1        -0.1324
       5    H3      21.926130   17.777936   23.532009 H          1 MOL1         0.0833
       6    C3      20.373377   19.352306   23.439717 C.3        1 MOL1        -0.1813
       7    H4      20.304889   20.404923   23.746388 H          1 MOL1         0.0753
       8    H5      19.721621   18.782946   24.115860 H          1 MOL1         0.0753
       9    C4      19.868117   19.205124   21.989178 C.3        1 MOL1        -0.1855
      10    H6      20.525253   19.772040   21.315345 H          1 MOL1         0.0755
      11    H7      19.935499   18.151174   21.685730 H          1 MOL1         0.0755
      12    C5      18.412986   19.702032   21.834246 C.3        1 MOL1        -0.1855
      13    H8      18.352448   20.751015   22.154483 H          1 MOL1         0.0755
      14    H9      17.751249   19.129659   22.499219 H          1 MOL1         0.0755
      15    C6      17.896913   19.590574   20.376117 C.3        1 MOL1        -0.1958
      16    H10     16.910553   20.062982   20.299298 H          1 MOL1         0.0753
      17    H11     18.563370   20.134311   19.695643 H          1 MOL1         0.0753
      18    C7      17.755675   18.155595   19.876363 C.2        1 MOL1         0.6174
      19    O1      16.810335   17.502236   20.272027 O.co2      1 MOL1        -0.6695
      20    O2      18.586888   17.732630   19.097162 O.co2      1 MOL1        -0.6695
@<TRIPOS>BOND
    1     1     2    1
    2     1     3    1
    3     1     4    2
    4     4     5    1
    5     4     6    1
    6     6     7    1
    7     6     8    1
    8     6     9    1
    9     9    10    1
   10     9    11    1
   11     9    12    1
   12    12    13    1
   13    12    14    1
   14    12    15    1
   15    15    16    1
   16    15    17    1
   17    15    18    1
   18    18    19    1
   19    18    20    2
@<TRIPOS>SUBSTRUCTURE
       1 MOL1            1 RESIDUE      1      MOL     
@<SCITEGIC>MOL_PROPERTY
VConf Rank
SciTegic.value.IntegerValue
786

@<SCITEGIC>MOL_PROPERTY
Conf_Id
SciTegic.value.IntegerValue
54

@<SCITEGIC>MOL_PROPERTY
Delta U+W
SciTegic.value.DoubleValue
-0.048

@<SCITEGIC>MOL_PROPERTY
U+W
SciTegic.value.DoubleValue
-51.793

@<SCITEGIC>MOL_PROPERTY
Grad RMS
SciTegic.value.DoubleValue
0.000000

@<SCITEGIC>MOL_PROPERTY
U
SciTegic.value.DoubleValue
8.964

@<SCITEGIC>MOL_PROPERTY
W
SciTegic.value.DoubleValue
-60.756

@<SCITEGIC>MOL_PROPERTY
W(PB)
SciTegic.value.DoubleValue
-63.007

@<SCITEGIC>MOL_PROPERTY
W(SA)
SciTegic.value.DoubleValue
2.251

@<SCITEGIC>MOL_PROPERTY
Valence
SciTegic.value.DoubleValue
9.327

@<SCITEGIC>MOL_PROPERTY
Coulomb
SciTegic.value.DoubleValue
-0.780

@<SCITEGIC>MOL_PROPERTY
VdW
SciTegic.value.DoubleValue
0.417

@<SCITEGIC>MOL_PROPERTY
VdW6
SciTegic.value.DoubleValue
-6.635

@<SCITEGIC>MOL_PROPERTY
VdW12
SciTegic.value.DoubleValue
7.052

@<SCITEGIC>MOL_PROPERTY
Bond
SciTegic.value.DoubleValue
0.105

@<SCITEGIC>MOL_PROPERTY
Angle
SciTegic.value.DoubleValue
2.399

@<SCITEGIC>MOL_PROPERTY
Pdih
SciTegic.value.DoubleValue
6.822

@<SCITEGIC>MOL_PROPERTY
Idih
SciTegic.value.DoubleValue
0.000

@<SCITEGIC>MOL_PROPERTY
Tether
SciTegic.value.DoubleValue
0.000

@<TRIPOS>MOLECULE
guest-s22_confgen4.mol2 : confsearch ligand conformer 787
          20          19           1
SMALL
USER_CHARGES
 
@<TRIPOS>ATOM
       1    C1      22.367015   19.033292   24.165292 C.2        1 MOL1        -0.2535
       2    H1      22.790467   19.773124   24.842436 H          1 MOL1         0.0845
       3    H2      22.341094   17.999286   24.505393 H          1 MOL1         0.0845
       4    C2      21.895935   19.384919   22.966079 C.2        1 MOL1        -0.1324
       5    H3      21.934747   20.425092   22.643919 H          1 MOL1         0.0833
       6    C3      21.300564   18.411811   21.970869 C.3        1 MOL1        -0.1813
       7    H4      21.628431   17.391119   22.210079 H          1 MOL1         0.0753
       8    H5      21.679782   18.627870   20.963121 H          1 MOL1         0.0753
       9    C4      19.755581   18.446353   21.965051 C.3        1 MOL1        -0.1855
      10    H6      19.388386   17.628354   21.330206 H          1 MOL1         0.0755
      11    H7      19.381841   18.247207   22.978854 H          1 MOL1         0.0755
      12    C5      19.185555   19.789749   21.450792 C.3        1 MOL1        -0.1855
      13    H8      19.570778   19.996283   20.442633 H          1 MOL1         0.0755
      14    H9      19.533912   20.606850   22.096151 H          1 MOL1         0.0755
      15    C6      17.635056   19.806647   21.421706 C.3        1 MOL1        -0.1958
      16    H10     17.235110   19.568616   22.414790 H          1 MOL1         0.0753
      17    H11     17.284428   20.814835   21.171561 H          1 MOL1         0.0753
      18    C7      17.022533   18.846055   20.406367 C.2        1 MOL1         0.6174
      19    O1      16.520413   17.817970   20.816203 O.co2      1 MOL1        -0.6695
      20    O2      17.054571   19.157531   19.232028 O.co2      1 MOL1        -0.6695
@<TRIPOS>BOND
    1     1     2    1
    2     1     3    1
    3     1     4    2
    4     4     5    1
    5     4     6    1
    6     6     7    1
    7     6     8    1
    8     6     9    1
    9     9    10    1
   10     9    11    1
   11     9    12    1
   12    12    13    1
   13    12    14    1
   14    12    15    1
   15    15    16    1
   16    15    17    1
   17    15    18    1
   18    18    19    1
   19    18    20    2
@<TRIPOS>SUBSTRUCTURE
       1 MOL1            1 RESIDUE      1      MOL     
@<SCITEGIC>MOL_PROPERTY
VConf Rank
SciTegic.value.IntegerValue
787

@<SCITEGIC>MOL_PROPERTY
Conf_Id
SciTegic.value.IntegerValue
27

@<SCITEGIC>MOL_PROPERTY
Delta U+W
SciTegic.value.DoubleValue
0.478

@<SCITEGIC>MOL_PROPERTY
U+W
SciTegic.value.DoubleValue
-51.267

@<SCITEGIC>MOL_PROPERTY
Grad RMS
SciTegic.value.DoubleValue
0.000000

@<SCITEGIC>MOL_PROPERTY
U
SciTegic.value.DoubleValue
9.192

@<SCITEGIC>MOL_PROPERTY
W
SciTegic.value.DoubleValue
-60.459

@<SCITEGIC>MOL_PROPERTY
W(PB)
SciTegic.value.DoubleValue
-62.649

@<SCITEGIC>MOL_PROPERTY
W(SA)
SciTegic.value.DoubleValue
2.190

@<SCITEGIC>MOL_PROPERTY
Valence
SciTegic.value.DoubleValue
9.572

@<SCITEGIC>MOL_PROPERTY
Coulomb
SciTegic.value.DoubleValue
-0.884

@<SCITEGIC>MOL_PROPERTY
VdW
SciTegic.value.DoubleValue
0.504

@<SCITEGIC>MOL_PROPERTY
VdW6
SciTegic.value.DoubleValue
-7.168

@<SCITEGIC>MOL_PROPERTY
VdW12
SciTegic.value.DoubleValue
7.672

@<SCITEGIC>MOL_PROPERTY
Bond
SciTegic.value.DoubleValue
0.127

@<SCITEGIC>MOL_PROPERTY
Angle
SciTegic.value.DoubleValue
2.504

@<SCITEGIC>MOL_PROPERTY
Pdih
SciTegic.value.DoubleValue
6.941

@<SCITEGIC>MOL_PROPERTY
Idih
SciTegic.value.DoubleValue
0.001

@<SCITEGIC>MOL_PROPERTY
Tether
SciTegic.value.DoubleValue
0.000

@<TRIPOS>MOLECULE
guest-s22_confgen4.mol2 : confsearch ligand conformer 788
          20          19           1
SMALL
USER_CHARGES
 
@<TRIPOS>ATOM
       1    C1      16.805026   19.544431   23.486812 C.2        1 MOL1        -0.2535
       2    H1      16.577746   18.705074   24.142046 H          1 MOL1         0.0845
       3    H2      15.965369   20.115756   23.094687 H          1 MOL1         0.0845
       4    C2      18.063299   19.862072   23.171327 C.2        1 MOL1        -0.1324
       5    H3      18.268632   20.708165   22.516149 H          1 MOL1         0.0833
       6    C3      19.278777   19.118590   23.682842 C.3        1 MOL1        -0.1813
       7    H4      19.011047   18.544266   24.580076 H          1 MOL1         0.0753
       8    H5      20.051014   19.834202   23.995267 H          1 MOL1         0.0753
       9    C4      19.861381   18.149041   22.629938 C.3        1 MOL1        -0.1855
      10    H6      20.651218   17.548276   23.101231 H          1 MOL1         0.0755
      11    H7      19.080117   17.445879   22.309788 H          1 MOL1         0.0755
      12    C5      20.445693   18.879042   21.398792 C.3        1 MOL1        -0.1855
      13    H8      21.208466   19.600415   21.723070 H          1 MOL1         0.0755
      14    H9      19.657008   19.453403   20.894047 H          1 MOL1         0.0755
      15    C6      21.075063   17.888930   20.388034 C.3        1 MOL1        -0.1958
      16    H10     21.877528   17.316017   20.867989 H          1 MOL1         0.0753
      17    H11     20.322412   17.168763   20.045271 H          1 MOL1         0.0753
      18    C7      21.657761   18.584487   19.162999 C.2        1 MOL1         0.6174
      19    O1      20.933696   18.756958   18.202456 O.co2      1 MOL1        -0.6695
      20    O2      22.815414   18.951219   19.208228 O.co2      1 MOL1        -0.6695
@<TRIPOS>BOND
    1     1     2    1
    2     1     3    1
    3     1     4    2
    4     4     5    1
    5     4     6    1
    6     6     7    1
    7     6     8    1
    8     6     9    1
    9     9    10    1
   10     9    11    1
   11     9    12    1
   12    12    13    1
   13    12    14    1
   14    12    15    1
   15    15    16    1
   16    15    17    1
   17    15    18    1
   18    18    19    1
   19    18    20    2
@<TRIPOS>SUBSTRUCTURE
       1 MOL1            1 RESIDUE      1      MOL     
@<SCITEGIC>MOL_PROPERTY
VConf Rank
SciTegic.value.IntegerValue
788

@<SCITEGIC>MOL_PROPERTY
Conf_Id
SciTegic.value.IntegerValue
41

@<SCITEGIC>MOL_PROPERTY
Delta U+W
SciTegic.value.DoubleValue
-0.634

@<SCITEGIC>MOL_PROPERTY
U+W
SciTegic.value.DoubleValue
-52.379

@<SCITEGIC>MOL_PROPERTY
Grad RMS
SciTegic.value.DoubleValue
0.000000

@<SCITEGIC>MOL_PROPERTY
U
SciTegic.value.DoubleValue
7.828

@<SCITEGIC>MOL_PROPERTY
W
SciTegic.value.DoubleValue
-60.207

@<SCITEGIC>MOL_PROPERTY
W(PB)
SciTegic.value.DoubleValue
-62.449

@<SCITEGIC>MOL_PROPERTY
W(SA)
SciTegic.value.DoubleValue
2.242

@<SCITEGIC>MOL_PROPERTY
Valence
SciTegic.value.DoubleValue
9.300

@<SCITEGIC>MOL_PROPERTY
Coulomb
SciTegic.value.DoubleValue
-2.080

@<SCITEGIC>MOL_PROPERTY
VdW
SciTegic.value.DoubleValue
0.608

@<SCITEGIC>MOL_PROPERTY
VdW6
SciTegic.value.DoubleValue
-6.341

@<SCITEGIC>MOL_PROPERTY
VdW12
SciTegic.value.DoubleValue
6.949

@<SCITEGIC>MOL_PROPERTY
Bond
SciTegic.value.DoubleValue
0.103

@<SCITEGIC>MOL_PROPERTY
Angle
SciTegic.value.DoubleValue
2.334

@<SCITEGIC>MOL_PROPERTY
Pdih
SciTegic.value.DoubleValue
6.862

@<SCITEGIC>MOL_PROPERTY
Idih
SciTegic.value.DoubleValue
0.001

@<SCITEGIC>MOL_PROPERTY
Tether
SciTegic.value.DoubleValue
0.000

@<TRIPOS>MOLECULE
guest-s22_confgen4.mol2 : confsearch ligand conformer 789
          20          19           1
SMALL
USER_CHARGES
 
@<TRIPOS>ATOM
       1    C1      17.495773   16.603609   21.268391 C.2        1 MOL1        -0.2535
       2    H1      16.557522   16.128168   21.549246 H          1 MOL1         0.0845
       3    H2      17.783309   16.563618   20.218974 H          1 MOL1         0.0845
       4    C2      18.260138   17.213014   22.178383 C.2        1 MOL1        -0.1324
       5    H3      17.954183   17.242603   23.223936 H          1 MOL1         0.0833
       6    C3      19.574095   17.892971   21.864099 C.3        1 MOL1        -0.1813
       7    H4      19.925901   17.597854   20.866346 H          1 MOL1         0.0753
       8    H5      20.333248   17.557577   22.582537 H          1 MOL1         0.0753
       9    C4      19.432382   19.430191   21.927727 C.3        1 MOL1        -0.1855
      10    H6      18.601452   19.736815   21.277577 H          1 MOL1         0.0755
      11    H7      19.153692   19.731472   22.946953 H          1 MOL1         0.0755
      12    C5      20.708801   20.188051   21.486598 C.3        1 MOL1        -0.1855
      13    H8      20.497712   21.266396   21.487206 H          1 MOL1         0.0755
      14    H9      20.946610   19.921979   20.447820 H          1 MOL1         0.0755
      15    C6      21.953162   19.923328   22.377612 C.3        1 MOL1        -0.1958
      16    H10     22.238050   18.865747   22.340641 H          1 MOL1         0.0753
      17    H11     22.806928   20.488099   21.985409 H          1 MOL1         0.0753
      18    C7      21.772119   20.329989   23.837265 C.2        1 MOL1         0.6174
      19    O1      21.749662   21.515985   24.102435 O.co2      1 MOL1        -0.6695
      20    O2      21.676462   19.452111   24.672209 O.co2      1 MOL1        -0.6695
@<TRIPOS>BOND
    1     1     2    1
    2     1     3    1
    3     1     4    2
    4     4     5    1
    5     4     6    1
    6     6     7    1
    7     6     8    1
    8     6     9    1
    9     9    10    1
   10     9    11    1
   11     9    12    1
   12    12    13    1
   13    12    14    1
   14    12    15    1
   15    15    16    1
   16    15    17    1
   17    15    18    1
   18    18    19    1
   19    18    20    2
@<TRIPOS>SUBSTRUCTURE
       1 MOL1            1 RESIDUE      1      MOL     
@<SCITEGIC>MOL_PROPERTY
VConf Rank
SciTegic.value.IntegerValue
789

@<SCITEGIC>MOL_PROPERTY
Conf_Id
SciTegic.value.IntegerValue
84

@<SCITEGIC>MOL_PROPERTY
Delta U+W
SciTegic.value.DoubleValue
0.942

@<SCITEGIC>MOL_PROPERTY
U+W
SciTegic.value.DoubleValue
-50.803

@<SCITEGIC>MOL_PROPERTY
Grad RMS
SciTegic.value.DoubleValue
0.000000

@<SCITEGIC>MOL_PROPERTY
U
SciTegic.value.DoubleValue
10.196

@<SCITEGIC>MOL_PROPERTY
W
SciTegic.value.DoubleValue
-60.999

@<SCITEGIC>MOL_PROPERTY
W(PB)
SciTegic.value.DoubleValue
-63.182

@<SCITEGIC>MOL_PROPERTY
W(SA)
SciTegic.value.DoubleValue
2.182

@<SCITEGIC>MOL_PROPERTY
Valence
SciTegic.value.DoubleValue
9.837

@<SCITEGIC>MOL_PROPERTY
Coulomb
SciTegic.value.DoubleValue
0.032

@<SCITEGIC>MOL_PROPERTY
VdW
SciTegic.value.DoubleValue
0.328

@<SCITEGIC>MOL_PROPERTY
VdW6
SciTegic.value.DoubleValue
-7.642

@<SCITEGIC>MOL_PROPERTY
VdW12
SciTegic.value.DoubleValue
7.969

@<SCITEGIC>MOL_PROPERTY
Bond
SciTegic.value.DoubleValue
0.151

@<SCITEGIC>MOL_PROPERTY
Angle
SciTegic.value.DoubleValue
2.748

@<SCITEGIC>MOL_PROPERTY
Pdih
SciTegic.value.DoubleValue
6.937

@<SCITEGIC>MOL_PROPERTY
Idih
SciTegic.value.DoubleValue
0.001

@<SCITEGIC>MOL_PROPERTY
Tether
SciTegic.value.DoubleValue
0.000

@<TRIPOS>MOLECULE
guest-s22_confgen4.mol2 : confsearch ligand conformer 790
          20          19           1
SMALL
USER_CHARGES
 
@<TRIPOS>ATOM
       1    C1      22.785726   20.577001   21.471477 C.2        1 MOL1        -0.2535
       2    H1      23.838329   20.361337   21.296042 H          1 MOL1         0.0845
       3    H2      22.306054   21.300043   20.813672 H          1 MOL1         0.0845
       4    C2      22.112276   19.974099   22.454654 C.2        1 MOL1        -0.1324
       5    H3      22.610987   19.252625   23.101492 H          1 MOL1         0.0833
       6    C3      20.651706   20.223192   22.758549 C.3        1 MOL1        -0.1813
       7    H4      20.305320   21.129636   22.243608 H          1 MOL1         0.0753
       8    H5      20.526066   20.403329   23.834582 H          1 MOL1         0.0753
       9    C4      19.780639   19.024136   22.328932 C.3        1 MOL1        -0.1855
      10    H6      19.916112   18.845687   21.253069 H          1 MOL1         0.0755
      11    H7      20.123879   18.117942   22.846666 H          1 MOL1         0.0755
      12    C5      18.284730   19.261476   22.635950 C.3        1 MOL1        -0.1855
      13    H8      17.934384   20.159508   22.108212 H          1 MOL1         0.0755
      14    H9      18.161946   19.457753   23.709714 H          1 MOL1         0.0755
      15    C6      17.395796   18.053910   22.240391 C.3        1 MOL1        -0.1958
      16    H10     17.749935   17.143325   22.738661 H          1 MOL1         0.0753
      17    H11     16.369420   18.225855   22.585304 H          1 MOL1         0.0753
      18    C7      17.334655   17.794654   20.737746 C.2        1 MOL1         0.6174
      19    O1      17.958909   16.852966   20.289971 O.co2      1 MOL1        -0.6695
      20    O2      16.652705   18.534939   20.056550 O.co2      1 MOL1        -0.6695
@<TRIPOS>BOND
    1     1     2    1
    2     1     3    1
    3     1     4    2
    4     4     5    1
    5     4     6    1
    6     6     7    1
    7     6     8    1
    8     6     9    1
    9     9    10    1
   10     9    11    1
   11     9    12    1
   12    12    13    1
   13    12    14    1
   14    12    15    1
   15    15    16    1
   16    15    17    1
   17    15    18    1
   18    18    19    1
   19    18    20    2
@<TRIPOS>SUBSTRUCTURE
       1 MOL1            1 RESIDUE      1      MOL     
@<SCITEGIC>MOL_PROPERTY
VConf Rank
SciTegic.value.IntegerValue
790

@<SCITEGIC>MOL_PROPERTY
Conf_Id
SciTegic.value.IntegerValue
81

@<SCITEGIC>MOL_PROPERTY
Delta U+W
SciTegic.value.DoubleValue
-0.051

@<SCITEGIC>MOL_PROPERTY
U+W
SciTegic.value.DoubleValue
-51.796

@<SCITEGIC>MOL_PROPERTY
Grad RMS
SciTegic.value.DoubleValue
0.000000

@<SCITEGIC>MOL_PROPERTY
U
SciTegic.value.DoubleValue
9.412

@<SCITEGIC>MOL_PROPERTY
W
SciTegic.value.DoubleValue
-61.209

@<SCITEGIC>MOL_PROPERTY
W(PB)
SciTegic.value.DoubleValue
-63.452

@<SCITEGIC>MOL_PROPERTY
W(SA)
SciTegic.value.DoubleValue
2.243

@<SCITEGIC>MOL_PROPERTY
Valence
SciTegic.value.DoubleValue
9.329

@<SCITEGIC>MOL_PROPERTY
Coulomb
SciTegic.value.DoubleValue
-0.323

@<SCITEGIC>MOL_PROPERTY
VdW
SciTegic.value.DoubleValue
0.406

@<SCITEGIC>MOL_PROPERTY
VdW6
SciTegic.value.DoubleValue
-6.640

@<SCITEGIC>MOL_PROPERTY
VdW12
SciTegic.value.DoubleValue
7.046

@<SCITEGIC>MOL_PROPERTY
Bond
SciTegic.value.DoubleValue
0.105

@<SCITEGIC>MOL_PROPERTY
Angle
SciTegic.value.DoubleValue
2.401

@<SCITEGIC>MOL_PROPERTY
Pdih
SciTegic.value.DoubleValue
6.823

@<SCITEGIC>MOL_PROPERTY
Idih
SciTegic.value.DoubleValue
0.000

@<SCITEGIC>MOL_PROPERTY
Tether
SciTegic.value.DoubleValue
0.000

@<TRIPOS>MOLECULE
guest-s22_confgen4.mol2 : confsearch ligand conformer 791
          20          19           1
SMALL
USER_CHARGES
 
@<TRIPOS>ATOM
       1    C1      20.630678   18.705077   18.969975 C.2        1 MOL1        -0.2535
       2    H1      20.099069   19.437015   18.364073 H          1 MOL1         0.0845
       3    H2      21.503840   18.228006   18.528232 H          1 MOL1         0.0845
       4    C2      20.232074   18.403571   20.208477 C.2        1 MOL1        -0.1324
       5    H3      20.776897   17.666264   20.797350 H          1 MOL1         0.0833
       6    C3      19.026958   19.020722   20.885487 C.3        1 MOL1        -0.1813
       7    H4      18.435836   18.242301   21.385056 H          1 MOL1         0.0753
       8    H5      18.363071   19.461442   20.129686 H          1 MOL1         0.0753
       9    C4      19.418058   20.123459   21.898265 C.3        1 MOL1        -0.1855
      10    H6      19.931942   20.931623   21.360094 H          1 MOL1         0.0755
      11    H7      18.502388   20.567763   22.311925 H          1 MOL1         0.0755
      12    C5      20.323863   19.643507   23.061560 C.3        1 MOL1        -0.1855
      13    H8      20.561392   20.504928   23.700869 H          1 MOL1         0.0755
      14    H9      21.282602   19.291627   22.658205 H          1 MOL1         0.0755
      15    C6      19.700692   18.526594   23.942668 C.3        1 MOL1        -0.1958
      16    H10     19.520431   17.622559   23.349990 H          1 MOL1         0.0753
      17    H11     20.411196   18.245536   24.728669 H          1 MOL1         0.0753
      18    C7      18.398755   18.928767   24.629516 C.2        1 MOL1         0.6174
      19    O1      17.361441   18.435079   24.232858 O.co2      1 MOL1        -0.6695
      20    O2      18.459046   19.713203   25.556061 O.co2      1 MOL1        -0.6695
@<TRIPOS>BOND
    1     1     2    1
    2     1     3    1
    3     1     4    2
    4     4     5    1
    5     4     6    1
    6     6     7    1
    7     6     8    1
    8     6     9    1
    9     9    10    1
   10     9    11    1
   11     9    12    1
   12    12    13    1
   13    12    14    1
   14    12    15    1
   15    15    16    1
   16    15    17    1
   17    15    18    1
   18    18    19    1
   19    18    20    2
@<TRIPOS>SUBSTRUCTURE
       1 MOL1            1 RESIDUE      1      MOL     
@<SCITEGIC>MOL_PROPERTY
VConf Rank
SciTegic.value.IntegerValue
791

@<SCITEGIC>MOL_PROPERTY
Conf_Id
SciTegic.value.IntegerValue
86

@<SCITEGIC>MOL_PROPERTY
Delta U+W
SciTegic.value.DoubleValue
1.248

@<SCITEGIC>MOL_PROPERTY
U+W
SciTegic.value.DoubleValue
-50.498

@<SCITEGIC>MOL_PROPERTY
Grad RMS
SciTegic.value.DoubleValue
0.000000

@<SCITEGIC>MOL_PROPERTY
U
SciTegic.value.DoubleValue
10.404

@<SCITEGIC>MOL_PROPERTY
W
SciTegic.value.DoubleValue
-60.901

@<SCITEGIC>MOL_PROPERTY
W(PB)
SciTegic.value.DoubleValue
-63.061

@<SCITEGIC>MOL_PROPERTY
W(SA)
SciTegic.value.DoubleValue
2.159

@<SCITEGIC>MOL_PROPERTY
Valence
SciTegic.value.DoubleValue
10.021

@<SCITEGIC>MOL_PROPERTY
Coulomb
SciTegic.value.DoubleValue
0.094

@<SCITEGIC>MOL_PROPERTY
VdW
SciTegic.value.DoubleValue
0.289

@<SCITEGIC>MOL_PROPERTY
VdW6
SciTegic.value.DoubleValue
-8.409

@<SCITEGIC>MOL_PROPERTY
VdW12
SciTegic.value.DoubleValue
8.698

@<SCITEGIC>MOL_PROPERTY
Bond
SciTegic.value.DoubleValue
0.179

@<SCITEGIC>MOL_PROPERTY
Angle
SciTegic.value.DoubleValue
2.939

@<SCITEGIC>MOL_PROPERTY
Pdih
SciTegic.value.DoubleValue
6.902

@<SCITEGIC>MOL_PROPERTY
Idih
SciTegic.value.DoubleValue
0.001

@<SCITEGIC>MOL_PROPERTY
Tether
SciTegic.value.DoubleValue
0.000

@<TRIPOS>MOLECULE
guest-s22_confgen4.mol2 : confsearch ligand conformer 792
          20          19           1
SMALL
USER_CHARGES
 
@<TRIPOS>ATOM
       1    C1      17.685328   19.032441   24.309304 C.2        1 MOL1        -0.2535
       2    H1      17.205818   18.310619   24.968202 H          1 MOL1         0.0845
       3    H2      18.226505   19.854272   24.775290 H          1 MOL1         0.0845
       4    C2      17.613272   18.909126   22.981288 C.2        1 MOL1        -0.1324
       5    H3      17.068355   18.077764   22.534868 H          1 MOL1         0.0833
       6    C3      18.253397   19.870911   22.002890 C.3        1 MOL1        -0.1813
       7    H4      18.602133   20.774734   22.520719 H          1 MOL1         0.0753
       8    H5      17.497272   20.201477   21.278443 H          1 MOL1         0.0753
       9    C4      19.431443   19.229540   21.235485 C.3        1 MOL1        -0.1855
      10    H6      19.084401   18.323320   20.720460 H          1 MOL1         0.0755
      11    H7      19.763500   19.926031   20.453406 H          1 MOL1         0.0755
      12    C5      20.626065   18.884205   22.155932 C.3        1 MOL1        -0.1855
      13    H8      20.297153   18.182631   22.934187 H          1 MOL1         0.0755
      14    H9      20.970428   19.790092   22.673748 H          1 MOL1         0.0755
      15    C6      21.811868   18.251493   21.382255 C.3        1 MOL1        -0.1958
      16    H10     22.575625   17.915776   22.093528 H          1 MOL1         0.0753
      17    H11     21.475550   17.362920   20.834436 H          1 MOL1         0.0753
      18    C7      22.489843   19.202240   20.399832 C.2        1 MOL1         0.6174
      19    O1      23.233805   20.052863   20.847147 O.co2      1 MOL1        -0.6695
      20    O2      22.265946   19.060701   19.213694 O.co2      1 MOL1        -0.6695
@<TRIPOS>BOND
    1     1     2    1
    2     1     3    1
    3     1     4    2
    4     4     5    1
    5     4     6    1
    6     6     7    1
    7     6     8    1
    8     6     9    1
    9     9    10    1
   10     9    11    1
   11     9    12    1
   12    12    13    1
   13    12    14    1
   14    12    15    1
   15    15    16    1
   16    15    17    1
   17    15    18    1
   18    18    19    1
   19    18    20    2
@<TRIPOS>SUBSTRUCTURE
       1 MOL1            1 RESIDUE      1      MOL     
@<SCITEGIC>MOL_PROPERTY
VConf Rank
SciTegic.value.IntegerValue
792

@<SCITEGIC>MOL_PROPERTY
Conf_Id
SciTegic.value.IntegerValue
28

@<SCITEGIC>MOL_PROPERTY
Delta U+W
SciTegic.value.DoubleValue
0.446

@<SCITEGIC>MOL_PROPERTY
U+W
SciTegic.value.DoubleValue
-51.299

@<SCITEGIC>MOL_PROPERTY
Grad RMS
SciTegic.value.DoubleValue
0.000000

@<SCITEGIC>MOL_PROPERTY
U
SciTegic.value.DoubleValue
9.295

@<SCITEGIC>MOL_PROPERTY
W
SciTegic.value.DoubleValue
-60.594

@<SCITEGIC>MOL_PROPERTY
W(PB)
SciTegic.value.DoubleValue
-62.806

@<SCITEGIC>MOL_PROPERTY
W(SA)
SciTegic.value.DoubleValue
2.212

@<SCITEGIC>MOL_PROPERTY
Valence
SciTegic.value.DoubleValue
9.495

@<SCITEGIC>MOL_PROPERTY
Coulomb
SciTegic.value.DoubleValue
-0.610

@<SCITEGIC>MOL_PROPERTY
VdW
SciTegic.value.DoubleValue
0.409

@<SCITEGIC>MOL_PROPERTY
VdW6
SciTegic.value.DoubleValue
-7.332

@<SCITEGIC>MOL_PROPERTY
VdW12
SciTegic.value.DoubleValue
7.741

@<SCITEGIC>MOL_PROPERTY
Bond
SciTegic.value.DoubleValue
0.126

@<SCITEGIC>MOL_PROPERTY
Angle
SciTegic.value.DoubleValue
2.497

@<SCITEGIC>MOL_PROPERTY
Pdih
SciTegic.value.DoubleValue
6.872

@<SCITEGIC>MOL_PROPERTY
Idih
SciTegic.value.DoubleValue
0.000

@<SCITEGIC>MOL_PROPERTY
Tether
SciTegic.value.DoubleValue
0.000

@<TRIPOS>MOLECULE
guest-s22_confgen4.mol2 : confsearch ligand conformer 793
          20          19           1
SMALL
USER_CHARGES
 
@<TRIPOS>ATOM
       1    C1      21.526540   19.150272   24.774889 C.2        1 MOL1        -0.2535
       2    H1      20.647605   19.756557   24.983182 H          1 MOL1         0.0845
       3    H2      22.162109   18.899020   25.622276 H          1 MOL1         0.0845
       4    C2      21.827414   18.720761   23.544048 C.2        1 MOL1        -0.1324
       5    H3      22.720896   18.114126   23.398361 H          1 MOL1         0.0833
       6    C3      21.043138   18.989432   22.270399 C.3        1 MOL1        -0.1813
       7    H4      20.699090   18.028592   21.866571 H          1 MOL1         0.0753
       8    H5      21.727138   19.403197   21.517608 H          1 MOL1         0.0753
       9    C4      19.837268   19.947138   22.435556 C.3        1 MOL1        -0.1855
      10    H6      19.102778   19.501143   23.120235 H          1 MOL1         0.0755
      11    H7      20.181591   20.877954   22.906425 H          1 MOL1         0.0755
      12    C5      19.147897   20.308686   21.096485 C.3        1 MOL1        -0.1855
      13    H8      19.875370   20.799341   20.435858 H          1 MOL1         0.0755
      14    H9      18.362254   21.051285   21.293259 H          1 MOL1         0.0755
      15    C6      18.515787   19.101809   20.350467 C.3        1 MOL1        -0.1958
      16    H10     18.064002   19.450606   19.414577 H          1 MOL1         0.0753
      17    H11     19.285026   18.373403   20.070121 H          1 MOL1         0.0753
      18    C7      17.425110   18.382510   21.139096 C.2        1 MOL1         0.6174
      19    O1      16.364736   18.953978   21.301831 O.co2      1 MOL1        -0.6695
      20    O2      17.655955   17.262932   21.551545 O.co2      1 MOL1        -0.6695
@<TRIPOS>BOND
    1     1     2    1
    2     1     3    1
    3     1     4    2
    4     4     5    1
    5     4     6    1
    6     6     7    1
    7     6     8    1
    8     6     9    1
    9     9    10    1
   10     9    11    1
   11     9    12    1
   12    12    13    1
   13    12    14    1
   14    12    15    1
   15    15    16    1
   16    15    17    1
   17    15    18    1
   18    18    19    1
   19    18    20    2
@<TRIPOS>SUBSTRUCTURE
       1 MOL1            1 RESIDUE      1      MOL     
@<SCITEGIC>MOL_PROPERTY
VConf Rank
SciTegic.value.IntegerValue
793

@<SCITEGIC>MOL_PROPERTY
Conf_Id
SciTegic.value.IntegerValue
53

@<SCITEGIC>MOL_PROPERTY
Delta U+W
SciTegic.value.DoubleValue
0.549

@<SCITEGIC>MOL_PROPERTY
U+W
SciTegic.value.DoubleValue
-51.197

@<SCITEGIC>MOL_PROPERTY
Grad RMS
SciTegic.value.DoubleValue
0.000000

@<SCITEGIC>MOL_PROPERTY
U
SciTegic.value.DoubleValue
10.870

@<SCITEGIC>MOL_PROPERTY
W
SciTegic.value.DoubleValue
-62.067

@<SCITEGIC>MOL_PROPERTY
W(PB)
SciTegic.value.DoubleValue
-64.228

@<SCITEGIC>MOL_PROPERTY
W(SA)
SciTegic.value.DoubleValue
2.161

@<SCITEGIC>MOL_PROPERTY
Valence
SciTegic.value.DoubleValue
8.803

@<SCITEGIC>MOL_PROPERTY
Coulomb
SciTegic.value.DoubleValue
1.020

@<SCITEGIC>MOL_PROPERTY
VdW
SciTegic.value.DoubleValue
1.048

@<SCITEGIC>MOL_PROPERTY
VdW6
SciTegic.value.DoubleValue
-8.312

@<SCITEGIC>MOL_PROPERTY
VdW12
SciTegic.value.DoubleValue
9.360

@<SCITEGIC>MOL_PROPERTY
Bond
SciTegic.value.DoubleValue
0.212

@<SCITEGIC>MOL_PROPERTY
Angle
SciTegic.value.DoubleValue
3.379

@<SCITEGIC>MOL_PROPERTY
Pdih
SciTegic.value.DoubleValue
5.211

@<SCITEGIC>MOL_PROPERTY
Idih
SciTegic.value.DoubleValue
0.001

@<SCITEGIC>MOL_PROPERTY
Tether
SciTegic.value.DoubleValue
0.000

@<TRIPOS>MOLECULE
guest-s22_confgen4.mol2 : confsearch ligand conformer 794
          20          19           1
SMALL
USER_CHARGES
 
@<TRIPOS>ATOM
       1    C1      19.843987   20.642202   19.880706 C.2        1 MOL1        -0.2535
       2    H1      20.452274   19.822421   19.504881 H          1 MOL1         0.0845
       3    H2      20.074986   21.639275   19.510020 H          1 MOL1         0.0845
       4    C2      18.849681   20.448863   20.753993 C.2        1 MOL1        -0.1324
       5    H3      18.268698   21.304635   21.096653 H          1 MOL1         0.0833
       6    C3      18.423541   19.119962   21.355921 C.3        1 MOL1        -0.1813
       7    H4      17.554782   18.744193   20.799633 H          1 MOL1         0.0753
       8    H5      18.050107   19.292233   22.373492 H          1 MOL1         0.0753
       9    C4      19.513717   18.017711   21.404189 C.3        1 MOL1        -0.1855
      10    H6      19.060057   17.094235   21.789186 H          1 MOL1         0.0755
      11    H7      19.839824   17.781879   20.382739 H          1 MOL1         0.0755
      12    C5      20.752713   18.366370   22.270320 C.3        1 MOL1        -0.1855
      13    H8      21.259201   19.246172   21.853220 H          1 MOL1         0.0755
      14    H9      21.473092   17.539674   22.202155 H          1 MOL1         0.0755
      15    C6      20.438286   18.629231   23.768439 C.3        1 MOL1        -0.1958
      16    H10     21.367778   18.870842   24.296864 H          1 MOL1         0.0753
      17    H11     19.784527   19.501939   23.877903 H          1 MOL1         0.0753
      18    C7      19.800350   17.445362   24.489492 C.2        1 MOL1         0.6174
      19    O1      18.626440   17.520999   24.795059 O.co2      1 MOL1        -0.6695
      20    O2      20.500524   16.484592   24.742844 O.co2      1 MOL1        -0.6695
@<TRIPOS>BOND
    1     1     2    1
    2     1     3    1
    3     1     4    2
    4     4     5    1
    5     4     6    1
    6     6     7    1
    7     6     8    1
    8     6     9    1
    9     9    10    1
   10     9    11    1
   11     9    12    1
   12    12    13    1
   13    12    14    1
   14    12    15    1
   15    15    16    1
   16    15    17    1
   17    15    18    1
   18    18    19    1
   19    18    20    2
@<TRIPOS>SUBSTRUCTURE
       1 MOL1            1 RESIDUE      1      MOL     
@<SCITEGIC>MOL_PROPERTY
VConf Rank
SciTegic.value.IntegerValue
794

@<SCITEGIC>MOL_PROPERTY
Conf_Id
SciTegic.value.IntegerValue
66

@<SCITEGIC>MOL_PROPERTY
Delta U+W
SciTegic.value.DoubleValue
1.737

@<SCITEGIC>MOL_PROPERTY
U+W
SciTegic.value.DoubleValue
-50.008

@<SCITEGIC>MOL_PROPERTY
Grad RMS
SciTegic.value.DoubleValue
0.000000

@<SCITEGIC>MOL_PROPERTY
U
SciTegic.value.DoubleValue
11.091

@<SCITEGIC>MOL_PROPERTY
W
SciTegic.value.DoubleValue
-61.099

@<SCITEGIC>MOL_PROPERTY
W(PB)
SciTegic.value.DoubleValue
-63.213

@<SCITEGIC>MOL_PROPERTY
W(SA)
SciTegic.value.DoubleValue
2.114

@<SCITEGIC>MOL_PROPERTY
Valence
SciTegic.value.DoubleValue
9.664

@<SCITEGIC>MOL_PROPERTY
Coulomb
SciTegic.value.DoubleValue
0.658

@<SCITEGIC>MOL_PROPERTY
VdW
SciTegic.value.DoubleValue
0.769

@<SCITEGIC>MOL_PROPERTY
VdW6
SciTegic.value.DoubleValue
-9.171

@<SCITEGIC>MOL_PROPERTY
VdW12
SciTegic.value.DoubleValue
9.940

@<SCITEGIC>MOL_PROPERTY
Bond
SciTegic.value.DoubleValue
0.244

@<SCITEGIC>MOL_PROPERTY
Angle
SciTegic.value.DoubleValue
3.658

@<SCITEGIC>MOL_PROPERTY
Pdih
SciTegic.value.DoubleValue
5.762

@<SCITEGIC>MOL_PROPERTY
Idih
SciTegic.value.DoubleValue
0.001

@<SCITEGIC>MOL_PROPERTY
Tether
SciTegic.value.DoubleValue
0.000

@<TRIPOS>MOLECULE
guest-s22_confgen4.mol2 : confsearch ligand conformer 795
          20          19           1
SMALL
USER_CHARGES
 
@<TRIPOS>ATOM
       1    C1      22.038578   18.573544   22.985147 C.2        1 MOL1        -0.2535
       2    H1      21.697137   19.391920   23.615116 H          1 MOL1         0.0845
       3    H2      22.668680   17.819660   23.453727 H          1 MOL1         0.0845
       4    C2      21.712845   18.485989   21.690885 C.2        1 MOL1        -0.1324
       5    H3      22.084772   17.645598   21.105434 H          1 MOL1         0.0833
       6    C3      20.841872   19.456388   20.909648 C.3        1 MOL1        -0.1813
       7    H4      20.269118   18.895530   20.160621 H          1 MOL1         0.0753
       8    H5      21.493633   20.119306   20.325413 H          1 MOL1         0.0753
       9    C4      19.863373   20.317650   21.750531 C.3        1 MOL1        -0.1855
      10    H6      20.434300   20.926090   22.464209 H          1 MOL1         0.0755
      11    H7      19.363783   21.033978   21.084263 H          1 MOL1         0.0755
      12    C5      18.781310   19.510977   22.512843 C.3        1 MOL1        -0.1855
      13    H8      18.202587   20.205462   23.137304 H          1 MOL1         0.0755
      14    H9      19.253754   18.799028   23.202426 H          1 MOL1         0.0755
      15    C6      17.803950   18.749581   21.580126 C.3        1 MOL1        -0.1958
      16    H10     17.360992   19.438558   20.851257 H          1 MOL1         0.0753
      17    H11     18.335426   17.974641   21.016350 H          1 MOL1         0.0753
      18    C7      16.668689   18.073914   22.340981 C.2        1 MOL1         0.6174
      19    O1      16.824585   16.925363   22.706055 O.co2      1 MOL1        -0.6695
      20    O2      15.662713   18.719203   22.561317 O.co2      1 MOL1        -0.6695
@<TRIPOS>BOND
    1     1     2    1
    2     1     3    1
    3     1     4    2
    4     4     5    1
    5     4     6    1
    6     6     7    1
    7     6     8    1
    8     6     9    1
    9     9    10    1
   10     9    11    1
   11     9    12    1
   12    12    13    1
   13    12    14    1
   14    12    15    1
   15    15    16    1
   16    15    17    1
   17    15    18    1
   18    18    19    1
   19    18    20    2
@<TRIPOS>SUBSTRUCTURE
       1 MOL1            1 RESIDUE      1      MOL     
@<SCITEGIC>MOL_PROPERTY
VConf Rank
SciTegic.value.IntegerValue
795

@<SCITEGIC>MOL_PROPERTY
Conf_Id
SciTegic.value.IntegerValue
64

@<SCITEGIC>MOL_PROPERTY
Delta U+W
SciTegic.value.DoubleValue
0.366

@<SCITEGIC>MOL_PROPERTY
U+W
SciTegic.value.DoubleValue
-51.379

@<SCITEGIC>MOL_PROPERTY
Grad RMS
SciTegic.value.DoubleValue
0.000000

@<SCITEGIC>MOL_PROPERTY
U
SciTegic.value.DoubleValue
10.000

@<SCITEGIC>MOL_PROPERTY
W
SciTegic.value.DoubleValue
-61.379

@<SCITEGIC>MOL_PROPERTY
W(PB)
SciTegic.value.DoubleValue
-63.541

@<SCITEGIC>MOL_PROPERTY
W(SA)
SciTegic.value.DoubleValue
2.162

@<SCITEGIC>MOL_PROPERTY
Valence
SciTegic.value.DoubleValue
9.398

@<SCITEGIC>MOL_PROPERTY
Coulomb
SciTegic.value.DoubleValue
-0.504

@<SCITEGIC>MOL_PROPERTY
VdW
SciTegic.value.DoubleValue
1.105

@<SCITEGIC>MOL_PROPERTY
VdW6
SciTegic.value.DoubleValue
-7.975

@<SCITEGIC>MOL_PROPERTY
VdW12
SciTegic.value.DoubleValue
9.080

@<SCITEGIC>MOL_PROPERTY
Bond
SciTegic.value.DoubleValue
0.216

@<SCITEGIC>MOL_PROPERTY
Angle
SciTegic.value.DoubleValue
3.417

@<SCITEGIC>MOL_PROPERTY
Pdih
SciTegic.value.DoubleValue
5.765

@<SCITEGIC>MOL_PROPERTY
Idih
SciTegic.value.DoubleValue
0.001

@<SCITEGIC>MOL_PROPERTY
Tether
SciTegic.value.DoubleValue
0.000

@<TRIPOS>MOLECULE
guest-s22_confgen4.mol2 : confsearch ligand conformer 796
          20          19           1
SMALL
USER_CHARGES
 
@<TRIPOS>ATOM
       1    C1      20.392702   22.021802   21.614150 C.2        1 MOL1        -0.2535
       2    H1      20.972556   21.768752   20.728062 H          1 MOL1         0.0845
       3    H2      20.769172   22.823253   22.247436 H          1 MOL1         0.0845
       4    C2      19.264994   21.373779   21.918047 C.2        1 MOL1        -0.1324
       5    H3      18.700710   21.640962   22.811125 H          1 MOL1         0.0833
       6    C3      18.680705   20.250576   21.087986 C.3        1 MOL1        -0.1813
       7    H4      19.188282   20.183611   20.116103 H          1 MOL1         0.0753
       8    H5      17.627464   20.474294   20.872404 H          1 MOL1         0.0753
       9    C4      18.763148   18.885843   21.808159 C.3        1 MOL1        -0.1855
      10    H6      18.256050   18.953125   22.780480 H          1 MOL1         0.0755
      11    H7      18.213959   18.139607   21.217900 H          1 MOL1         0.0755
      12    C5      20.218303   18.404258   22.008610 C.3        1 MOL1        -0.1855
      13    H8      20.771476   19.129845   22.620780 H          1 MOL1         0.0755
      14    H9      20.728636   18.354085   21.036843 H          1 MOL1         0.0755
      15    C6      20.276886   17.015121   22.690436 C.3        1 MOL1        -0.1958
      16    H10     19.781842   17.052524   23.668250 H          1 MOL1         0.0753
      17    H11     19.743428   16.272821   22.084713 H          1 MOL1         0.0753
      18    C7      21.702859   16.518188   22.899612 C.2        1 MOL1         0.6174
      19    O1      22.226426   15.884595   22.004521 O.co2      1 MOL1        -0.6695
      20    O2      22.257530   16.789574   23.946216 O.co2      1 MOL1        -0.6695
@<TRIPOS>BOND
    1     1     2    1
    2     1     3    1
    3     1     4    2
    4     4     5    1
    5     4     6    1
    6     6     7    1
    7     6     8    1
    8     6     9    1
    9     9    10    1
   10     9    11    1
   11     9    12    1
   12    12    13    1
   13    12    14    1
   14    12    15    1
   15    15    16    1
   16    15    17    1
   17    15    18    1
   18    18    19    1
   19    18    20    2
@<TRIPOS>SUBSTRUCTURE
       1 MOL1            1 RESIDUE      1      MOL     
@<SCITEGIC>MOL_PROPERTY
VConf Rank
SciTegic.value.IntegerValue
796

@<SCITEGIC>MOL_PROPERTY
Conf_Id
SciTegic.value.IntegerValue
42

@<SCITEGIC>MOL_PROPERTY
Delta U+W
SciTegic.value.DoubleValue
-0.601

@<SCITEGIC>MOL_PROPERTY
U+W
SciTegic.value.DoubleValue
-52.347

@<SCITEGIC>MOL_PROPERTY
Grad RMS
SciTegic.value.DoubleValue
0.000000

@<SCITEGIC>MOL_PROPERTY
U
SciTegic.value.DoubleValue
8.428

@<SCITEGIC>MOL_PROPERTY
W
SciTegic.value.DoubleValue
-60.774

@<SCITEGIC>MOL_PROPERTY
W(PB)
SciTegic.value.DoubleValue
-62.982

@<SCITEGIC>MOL_PROPERTY
W(SA)
SciTegic.value.DoubleValue
2.208

@<SCITEGIC>MOL_PROPERTY
Valence
SciTegic.value.DoubleValue
9.231

@<SCITEGIC>MOL_PROPERTY
Coulomb
SciTegic.value.DoubleValue
-1.304

@<SCITEGIC>MOL_PROPERTY
VdW
SciTegic.value.DoubleValue
0.501

@<SCITEGIC>MOL_PROPERTY
VdW6
SciTegic.value.DoubleValue
-6.515

@<SCITEGIC>MOL_PROPERTY
VdW12
SciTegic.value.DoubleValue
7.016

@<SCITEGIC>MOL_PROPERTY
Bond
SciTegic.value.DoubleValue
0.103

@<SCITEGIC>MOL_PROPERTY
Angle
SciTegic.value.DoubleValue
2.328

@<SCITEGIC>MOL_PROPERTY
Pdih
SciTegic.value.DoubleValue
6.799

@<SCITEGIC>MOL_PROPERTY
Idih
SciTegic.value.DoubleValue
0.000

@<SCITEGIC>MOL_PROPERTY
Tether
SciTegic.value.DoubleValue
0.000

@<TRIPOS>MOLECULE
guest-s22_confgen4.mol2 : confsearch ligand conformer 797
          20          19           1
SMALL
USER_CHARGES
 
@<TRIPOS>ATOM
       1    C1      18.716727   21.334617   24.013093 C.2        1 MOL1        -0.2535
       2    H1      19.631004   21.922205   23.948019 H          1 MOL1         0.0845
       3    H2      18.233098   21.266225   24.985986 H          1 MOL1         0.0845
       4    C2      18.207240   20.716840   22.944077 C.2        1 MOL1        -0.1324
       5    H3      17.292498   20.131132   23.031252 H          1 MOL1         0.0833
       6    C3      18.822822   20.764590   21.561802 C.3        1 MOL1        -0.1813
       7    H4      19.616342   21.522876   21.517784 H          1 MOL1         0.0753
       8    H5      18.057180   21.075179   20.838521 H          1 MOL1         0.0753
       9    C4      19.392345   19.395414   21.127107 C.3        1 MOL1        -0.1855
      10    H6      18.595400   18.639932   21.165378 H          1 MOL1         0.0755
      11    H7      19.711813   19.460155   20.078065 H          1 MOL1         0.0755
      12    C5      20.589785   18.943994   21.996374 C.3        1 MOL1        -0.1855
      13    H8      20.273677   18.834469   23.043003 H          1 MOL1         0.0755
      14    H9      21.362590   19.724224   21.980732 H          1 MOL1         0.0755
      15    C6      21.210582   17.609252   21.508624 C.3        1 MOL1        -0.1958
      16    H10     21.510788   17.692410   20.457107 H          1 MOL1         0.0753
      17    H11     22.120254   17.397126   22.082636 H          1 MOL1         0.0753
      18    C7      20.285209   16.404869   21.656808 C.2        1 MOL1         0.6174
      19    O1      19.730354   15.979275   20.662740 O.co2      1 MOL1        -0.6695
      20    O2      20.158260   15.912768   22.760807 O.co2      1 MOL1        -0.6695
@<TRIPOS>BOND
    1     1     2    1
    2     1     3    1
    3     1     4    2
    4     4     5    1
    5     4     6    1
    6     6     7    1
    7     6     8    1
    8     6     9    1
    9     9    10    1
   10     9    11    1
   11     9    12    1
   12    12    13    1
   13    12    14    1
   14    12    15    1
   15    15    16    1
   16    15    17    1
   17    15    18    1
   18    18    19    1
   19    18    20    2
@<TRIPOS>SUBSTRUCTURE
       1 MOL1            1 RESIDUE      1      MOL     
@<SCITEGIC>MOL_PROPERTY
VConf Rank
SciTegic.value.IntegerValue
797

@<SCITEGIC>MOL_PROPERTY
Conf_Id
SciTegic.value.IntegerValue
68

@<SCITEGIC>MOL_PROPERTY
Delta U+W
SciTegic.value.DoubleValue
0.492

@<SCITEGIC>MOL_PROPERTY
U+W
SciTegic.value.DoubleValue
-51.253

@<SCITEGIC>MOL_PROPERTY
Grad RMS
SciTegic.value.DoubleValue
0.000000

@<SCITEGIC>MOL_PROPERTY
U
SciTegic.value.DoubleValue
10.179

@<SCITEGIC>MOL_PROPERTY
W
SciTegic.value.DoubleValue
-61.432

@<SCITEGIC>MOL_PROPERTY
W(PB)
SciTegic.value.DoubleValue
-63.627

@<SCITEGIC>MOL_PROPERTY
W(SA)
SciTegic.value.DoubleValue
2.195

@<SCITEGIC>MOL_PROPERTY
Valence
SciTegic.value.DoubleValue
9.483

@<SCITEGIC>MOL_PROPERTY
Coulomb
SciTegic.value.DoubleValue
0.361

@<SCITEGIC>MOL_PROPERTY
VdW
SciTegic.value.DoubleValue
0.335

@<SCITEGIC>MOL_PROPERTY
VdW6
SciTegic.value.DoubleValue
-7.385

@<SCITEGIC>MOL_PROPERTY
VdW12
SciTegic.value.DoubleValue
7.720

@<SCITEGIC>MOL_PROPERTY
Bond
SciTegic.value.DoubleValue
0.125

@<SCITEGIC>MOL_PROPERTY
Angle
SciTegic.value.DoubleValue
2.487

@<SCITEGIC>MOL_PROPERTY
Pdih
SciTegic.value.DoubleValue
6.870

@<SCITEGIC>MOL_PROPERTY
Idih
SciTegic.value.DoubleValue
0.001

@<SCITEGIC>MOL_PROPERTY
Tether
SciTegic.value.DoubleValue
0.000

@<TRIPOS>MOLECULE
guest-s22_confgen4.mol2 : confsearch ligand conformer 798
          20          19           1
SMALL
USER_CHARGES
 
@<TRIPOS>ATOM
       1    C1      20.412116   16.936105   24.169334 C.2        1 MOL1        -0.2535
       2    H1      20.025435   17.324914   25.109970 H          1 MOL1         0.0845
       3    H2      21.300998   16.309138   24.213823 H          1 MOL1         0.0845
       4    C2      19.823959   17.217869   23.003840 C.2        1 MOL1        -0.1324
       5    H3      20.225992   16.816027   22.074250 H          1 MOL1         0.0833
       6    C3      18.584406   18.075872   22.865566 C.3        1 MOL1        -0.1813
       7    H4      18.067312   18.138419   23.832634 H          1 MOL1         0.0753
       8    H5      17.878308   17.603610   22.169584 H          1 MOL1         0.0753
       9    C4      18.911140   19.507992   22.385506 C.3        1 MOL1        -0.1855
      10    H6      17.996100   20.114136   22.430655 H          1 MOL1         0.0755
      11    H7      19.626669   19.969630   23.080133 H          1 MOL1         0.0755
      12    C5      19.474328   19.545669   20.944975 C.3        1 MOL1        -0.1855
      13    H8      18.773617   19.038032   20.268500 H          1 MOL1         0.0755
      14    H9      20.420736   18.990019   20.896182 H          1 MOL1         0.0755
      15    C6      19.707709   20.991535   20.435213 C.3        1 MOL1        -0.1958
      16    H10     19.993976   20.965179   19.377213 H          1 MOL1         0.0753
      17    H11     18.778553   21.570720   20.498280 H          1 MOL1         0.0753
      18    C7      20.802386   21.744232   21.186192 C.2        1 MOL1         0.6174
      19    O1      21.959924   21.485523   20.921086 O.co2      1 MOL1        -0.6695
      20    O2      20.469807   22.582169   22.001285 O.co2      1 MOL1        -0.6695
@<TRIPOS>BOND
    1     1     2    1
    2     1     3    1
    3     1     4    2
    4     4     5    1
    5     4     6    1
    6     6     7    1
    7     6     8    1
    8     6     9    1
    9     9    10    1
   10     9    11    1
   11     9    12    1
   12    12    13    1
   13    12    14    1
   14    12    15    1
   15    15    16    1
   16    15    17    1
   17    15    18    1
   18    18    19    1
   19    18    20    2
@<TRIPOS>SUBSTRUCTURE
       1 MOL1            1 RESIDUE      1      MOL     
@<SCITEGIC>MOL_PROPERTY
VConf Rank
SciTegic.value.IntegerValue
798

@<SCITEGIC>MOL_PROPERTY
Conf_Id
SciTegic.value.IntegerValue
87

@<SCITEGIC>MOL_PROPERTY
Delta U+W
SciTegic.value.DoubleValue
0.339

@<SCITEGIC>MOL_PROPERTY
U+W
SciTegic.value.DoubleValue
-51.407

@<SCITEGIC>MOL_PROPERTY
Grad RMS
SciTegic.value.DoubleValue
0.000000

@<SCITEGIC>MOL_PROPERTY
U
SciTegic.value.DoubleValue
10.461

@<SCITEGIC>MOL_PROPERTY
W
SciTegic.value.DoubleValue
-61.867

@<SCITEGIC>MOL_PROPERTY
W(PB)
SciTegic.value.DoubleValue
-64.045

@<SCITEGIC>MOL_PROPERTY
W(SA)
SciTegic.value.DoubleValue
2.178

@<SCITEGIC>MOL_PROPERTY
Valence
SciTegic.value.DoubleValue
9.555

@<SCITEGIC>MOL_PROPERTY
Coulomb
SciTegic.value.DoubleValue
0.483

@<SCITEGIC>MOL_PROPERTY
VdW
SciTegic.value.DoubleValue
0.423

@<SCITEGIC>MOL_PROPERTY
VdW6
SciTegic.value.DoubleValue
-7.223

@<SCITEGIC>MOL_PROPERTY
VdW12
SciTegic.value.DoubleValue
7.646

@<SCITEGIC>MOL_PROPERTY
Bond
SciTegic.value.DoubleValue
0.126

@<SCITEGIC>MOL_PROPERTY
Angle
SciTegic.value.DoubleValue
2.492

@<SCITEGIC>MOL_PROPERTY
Pdih
SciTegic.value.DoubleValue
6.936

@<SCITEGIC>MOL_PROPERTY
Idih
SciTegic.value.DoubleValue
0.001

@<SCITEGIC>MOL_PROPERTY
Tether
SciTegic.value.DoubleValue
0.000

@<TRIPOS>MOLECULE
guest-s22_confgen4.mol2 : confsearch ligand conformer 799
          20          19           1
SMALL
USER_CHARGES
 
@<TRIPOS>ATOM
       1    C1      21.319056   20.751543   20.664603 C.2        1 MOL1        -0.2535
       2    H1      21.611734   20.217382   19.762146 H          1 MOL1         0.0845
       3    H2      21.190257   21.829936   20.590449 H          1 MOL1         0.0845
       4    C2      21.122602   20.109894   21.819335 C.2        1 MOL1        -0.1324
       5    H3      20.838787   20.663142   22.713848 H          1 MOL1         0.0833
       6    C3      21.295791   18.616598   21.997322 C.3        1 MOL1        -0.1813
       7    H4      21.424799   18.372578   23.060218 H          1 MOL1         0.0753
       8    H5      22.230773   18.314026   21.506745 H          1 MOL1         0.0753
       9    C4      20.135701   17.782765   21.398924 C.3        1 MOL1        -0.1855
      10    H6      19.882845   18.155667   20.396955 H          1 MOL1         0.0755
      11    H7      20.498053   16.755733   21.255258 H          1 MOL1         0.0755
      12    C5      18.861513   17.712639   22.277916 C.3        1 MOL1        -0.1855
      13    H8      19.120445   17.352628   23.283096 H          1 MOL1         0.0755
      14    H9      18.186580   16.960375   21.846575 H          1 MOL1         0.0755
      15    C6      18.090232   19.052733   22.389875 C.3        1 MOL1        -0.1958
      16    H10     18.676241   19.788440   22.949704 H          1 MOL1         0.0753
      17    H11     17.907259   19.470039   21.392528 H          1 MOL1         0.0753
      18    C7      16.747252   18.903220   23.095340 C.2        1 MOL1         0.6174
      19    O1      16.719068   19.011935   24.305413 O.co2      1 MOL1        -0.6695
      20    O2      15.767366   18.661036   22.418545 O.co2      1 MOL1        -0.6695
@<TRIPOS>BOND
    1     1     2    1
    2     1     3    1
    3     1     4    2
    4     4     5    1
    5     4     6    1
    6     6     7    1
    7     6     8    1
    8     6     9    1
    9     9    10    1
   10     9    11    1
   11     9    12    1
   12    12    13    1
   13    12    14    1
   14    12    15    1
   15    15    16    1
   16    15    17    1
   17    15    18    1
   18    18    19    1
   19    18    20    2
@<TRIPOS>SUBSTRUCTURE
       1 MOL1            1 RESIDUE      1      MOL     
@<SCITEGIC>MOL_PROPERTY
VConf Rank
SciTegic.value.IntegerValue
799

@<SCITEGIC>MOL_PROPERTY
Conf_Id
SciTegic.value.IntegerValue
51

@<SCITEGIC>MOL_PROPERTY
Delta U+W
SciTegic.value.DoubleValue
1.709

@<SCITEGIC>MOL_PROPERTY
U+W
SciTegic.value.DoubleValue
-50.036

@<SCITEGIC>MOL_PROPERTY
Grad RMS
SciTegic.value.DoubleValue
0.000000

@<SCITEGIC>MOL_PROPERTY
U
SciTegic.value.DoubleValue
10.643

@<SCITEGIC>MOL_PROPERTY
W
SciTegic.value.DoubleValue
-60.679

@<SCITEGIC>MOL_PROPERTY
W(PB)
SciTegic.value.DoubleValue
-62.882

@<SCITEGIC>MOL_PROPERTY
W(SA)
SciTegic.value.DoubleValue
2.203

@<SCITEGIC>MOL_PROPERTY
Valence
SciTegic.value.DoubleValue
11.231

@<SCITEGIC>MOL_PROPERTY
Coulomb
SciTegic.value.DoubleValue
-1.077

@<SCITEGIC>MOL_PROPERTY
VdW
SciTegic.value.DoubleValue
0.489

@<SCITEGIC>MOL_PROPERTY
VdW6
SciTegic.value.DoubleValue
-7.546

@<SCITEGIC>MOL_PROPERTY
VdW12
SciTegic.value.DoubleValue
8.035

@<SCITEGIC>MOL_PROPERTY
Bond
SciTegic.value.DoubleValue
0.159

@<SCITEGIC>MOL_PROPERTY
Angle
SciTegic.value.DoubleValue
3.005

@<SCITEGIC>MOL_PROPERTY
Pdih
SciTegic.value.DoubleValue
8.065

@<SCITEGIC>MOL_PROPERTY
Idih
SciTegic.value.DoubleValue
0.002

@<SCITEGIC>MOL_PROPERTY
Tether
SciTegic.value.DoubleValue
0.000

@<TRIPOS>MOLECULE
guest-s22_confgen4.mol2 : confsearch ligand conformer 800
          20          19           1
SMALL
USER_CHARGES
 
@<TRIPOS>ATOM
       1    C1      19.389732   17.609888   24.350072 C.2        1 MOL1        -0.2535
       2    H1      18.493914   18.018801   24.814525 H          1 MOL1         0.0845
       3    H2      20.203985   17.309898   25.007353 H          1 MOL1         0.0845
       4    C2      19.489179   17.482704   23.024308 C.2        1 MOL1        -0.1324
       5    H3      20.390307   17.062879   22.578765 H          1 MOL1         0.0833
       6    C3      18.393395   17.866975   22.053127 C.3        1 MOL1        -0.1813
       7    H4      17.438320   17.483769   22.437044 H          1 MOL1         0.0753
       8    H5      18.548226   17.367101   21.087679 H          1 MOL1         0.0753
       9    C4      18.259782   19.395775   21.843149 C.3        1 MOL1        -0.1855
      10    H6      17.261155   19.593208   21.430232 H          1 MOL1         0.0755
      11    H7      18.292359   19.912385   22.812161 H          1 MOL1         0.0755
      12    C5      19.299221   20.014727   20.874867 C.3        1 MOL1        -0.1855
      13    H8      18.999935   21.050994   20.664943 H          1 MOL1         0.0755
      14    H9      19.273586   19.486533   19.911856 H          1 MOL1         0.0755
      15    C6      20.750082   20.027300   21.420865 C.3        1 MOL1        -0.1958
      16    H10     20.774400   20.468829   22.424251 H          1 MOL1         0.0753
      17    H11     21.139307   19.007559   21.502819 H          1 MOL1         0.0753
      18    C7      21.707629   20.813789   20.533081 C.2        1 MOL1         0.6174
      19    O1      22.263343   20.226187   19.626001 O.co2      1 MOL1        -0.6695
      20    O2      21.857388   21.998477   20.758843 O.co2      1 MOL1        -0.6695
@<TRIPOS>BOND
    1     1     2    1
    2     1     3    1
    3     1     4    2
    4     4     5    1
    5     4     6    1
    6     6     7    1
    7     6     8    1
    8     6     9    1
    9     9    10    1
   10     9    11    1
   11     9    12    1
   12    12    13    1
   13    12    14    1
   14    12    15    1
   15    15    16    1
   16    15    17    1
   17    15    18    1
   18    18    19    1
   19    18    20    2
@<TRIPOS>SUBSTRUCTURE
       1 MOL1            1 RESIDUE      1      MOL     
@<SCITEGIC>MOL_PROPERTY
VConf Rank
SciTegic.value.IntegerValue
800

@<SCITEGIC>MOL_PROPERTY
Conf_Id
SciTegic.value.IntegerValue
91

@<SCITEGIC>MOL_PROPERTY
Delta U+W
SciTegic.value.DoubleValue
1.604

@<SCITEGIC>MOL_PROPERTY
U+W
SciTegic.value.DoubleValue
-50.141

@<SCITEGIC>MOL_PROPERTY
Grad RMS
SciTegic.value.DoubleValue
0.000000

@<SCITEGIC>MOL_PROPERTY
U
SciTegic.value.DoubleValue
10.644

@<SCITEGIC>MOL_PROPERTY
W
SciTegic.value.DoubleValue
-60.786

@<SCITEGIC>MOL_PROPERTY
W(PB)
SciTegic.value.DoubleValue
-62.965

@<SCITEGIC>MOL_PROPERTY
W(SA)
SciTegic.value.DoubleValue
2.179

@<SCITEGIC>MOL_PROPERTY
Valence
SciTegic.value.DoubleValue
11.230

@<SCITEGIC>MOL_PROPERTY
Coulomb
SciTegic.value.DoubleValue
-1.075

@<SCITEGIC>MOL_PROPERTY
VdW
SciTegic.value.DoubleValue
0.489

@<SCITEGIC>MOL_PROPERTY
VdW6
SciTegic.value.DoubleValue
-7.547

@<SCITEGIC>MOL_PROPERTY
VdW12
SciTegic.value.DoubleValue
8.036

@<SCITEGIC>MOL_PROPERTY
Bond
SciTegic.value.DoubleValue
0.159

@<SCITEGIC>MOL_PROPERTY
Angle
SciTegic.value.DoubleValue
3.006

@<SCITEGIC>MOL_PROPERTY
Pdih
SciTegic.value.DoubleValue
8.064

@<SCITEGIC>MOL_PROPERTY
Idih
SciTegic.value.DoubleValue
0.002

@<SCITEGIC>MOL_PROPERTY
Tether
SciTegic.value.DoubleValue
0.000

@<TRIPOS>MOLECULE
guest-s22_confgen4.mol2 : confsearch ligand conformer 801
          20          19           1
SMALL
USER_CHARGES
 
@<TRIPOS>ATOM
       1    C1      18.020104   15.840482   21.266321 C.2        1 MOL1        -0.2535
       2    H1      18.727865   15.636708   20.464359 H          1 MOL1         0.0845
       3    H2      17.073165   15.303626   21.247131 H          1 MOL1         0.0845
       4    C2      18.297627   16.715812   22.236078 C.2        1 MOL1        -0.1324
       5    H3      17.574950   16.905878   23.029343 H          1 MOL1         0.0833
       6    C3      19.589650   17.496635   22.328991 C.3        1 MOL1        -0.1813
       7    H4      20.345622   17.061941   21.660894 H          1 MOL1         0.0753
       8    H5      19.990356   17.424082   23.348949 H          1 MOL1         0.0753
       9    C4      19.371940   18.979631   21.962661 C.3        1 MOL1        -0.1855
      10    H6      18.967195   19.046364   20.943292 H          1 MOL1         0.0755
      11    H7      18.619146   19.415156   22.634062 H          1 MOL1         0.0755
      12    C5      20.681655   19.792770   22.055214 C.3        1 MOL1        -0.1855
      13    H8      21.434948   19.358042   21.383570 H          1 MOL1         0.0755
      14    H9      21.087594   19.725401   23.074135 H          1 MOL1         0.0755
      15    C6      20.462391   21.284079   21.685997 C.3        1 MOL1        -0.1958
      16    H10     20.063288   21.359039   20.667659 H          1 MOL1         0.0753
      17    H11     19.716242   21.726210   22.356586 H          1 MOL1         0.0753
      18    C7      21.712353   22.163049   21.751743 C.2        1 MOL1         0.6174
      19    O1      21.579667   23.337564   21.470589 O.co2      1 MOL1        -0.6695
      20    O2      22.777316   21.673471   22.075494 O.co2      1 MOL1        -0.6695
@<TRIPOS>BOND
    1     1     2    1
    2     1     3    1
    3     1     4    2
    4     4     5    1
    5     4     6    1
    6     6     7    1
    7     6     8    1
    8     6     9    1
    9     9    10    1
   10     9    11    1
   11     9    12    1
   12    12    13    1
   13    12    14    1
   14    12    15    1
   15    15    16    1
   16    15    17    1
   17    15    18    1
   18    18    19    1
   19    18    20    2
@<TRIPOS>SUBSTRUCTURE
       1 MOL1            1 RESIDUE      1      MOL     
@<SCITEGIC>MOL_PROPERTY
VConf Rank
SciTegic.value.IntegerValue
801

@<SCITEGIC>MOL_PROPERTY
Conf_Id
SciTegic.value.IntegerValue
33

@<SCITEGIC>MOL_PROPERTY
Delta U+W
SciTegic.value.DoubleValue
0.000

@<SCITEGIC>MOL_PROPERTY
U+W
SciTegic.value.DoubleValue
-51.745

@<SCITEGIC>MOL_PROPERTY
Grad RMS
SciTegic.value.DoubleValue
0.000000

@<SCITEGIC>MOL_PROPERTY
U
SciTegic.value.DoubleValue
7.593

@<SCITEGIC>MOL_PROPERTY
W
SciTegic.value.DoubleValue
-59.338

@<SCITEGIC>MOL_PROPERTY
W(PB)
SciTegic.value.DoubleValue
-61.574

@<SCITEGIC>MOL_PROPERTY
W(SA)
SciTegic.value.DoubleValue
2.236

@<SCITEGIC>MOL_PROPERTY
Valence
SciTegic.value.DoubleValue
9.570

@<SCITEGIC>MOL_PROPERTY
Coulomb
SciTegic.value.DoubleValue
-3.091

@<SCITEGIC>MOL_PROPERTY
VdW
SciTegic.value.DoubleValue
1.114

@<SCITEGIC>MOL_PROPERTY
VdW6
SciTegic.value.DoubleValue
-6.064

@<SCITEGIC>MOL_PROPERTY
VdW12
SciTegic.value.DoubleValue
7.178

@<SCITEGIC>MOL_PROPERTY
Bond
SciTegic.value.DoubleValue
0.117

@<SCITEGIC>MOL_PROPERTY
Angle
SciTegic.value.DoubleValue
2.692

@<SCITEGIC>MOL_PROPERTY
Pdih
SciTegic.value.DoubleValue
6.761

@<SCITEGIC>MOL_PROPERTY
Idih
SciTegic.value.DoubleValue
0.000

@<SCITEGIC>MOL_PROPERTY
Tether
SciTegic.value.DoubleValue
0.000

@<TRIPOS>MOLECULE
guest-s22_confgen4.mol2 : confsearch ligand conformer 802
          20          19           1
SMALL
USER_CHARGES
 
@<TRIPOS>ATOM
       1    C1      22.329840   16.536204   21.975268 C.2        1 MOL1        -0.2535
       2    H1      22.651196   16.858448   20.986093 H          1 MOL1         0.0845
       3    H2      22.772687   15.624936   22.373685 H          1 MOL1         0.0845
       4    C2      21.426198   17.227400   22.674806 C.2        1 MOL1        -0.1324
       5    H3      21.117439   16.887161   23.663005 H          1 MOL1         0.0833
       6    C3      20.769527   18.499973   22.187913 C.3        1 MOL1        -0.1813
       7    H4      21.314753   18.901616   21.323039 H          1 MOL1         0.0753
       8    H5      20.825079   19.258836   22.978541 H          1 MOL1         0.0753
       9    C4      19.296037   18.249004   21.795929 C.3        1 MOL1        -0.1855
      10    H6      19.259244   17.428040   21.066542 H          1 MOL1         0.0755
      11    H7      18.732581   17.907970   22.675251 H          1 MOL1         0.0755
      12    C5      18.601528   19.487202   21.180541 C.3        1 MOL1        -0.1855
      13    H8      17.603091   19.192447   20.828777 H          1 MOL1         0.0755
      14    H9      19.156541   19.821492   20.293071 H          1 MOL1         0.0755
      15    C6      18.450917   20.669395   22.172867 C.3        1 MOL1        -0.1958
      16    H10     17.935570   20.337270   23.081984 H          1 MOL1         0.0753
      17    H11     19.433739   21.047973   22.475328 H          1 MOL1         0.0753
      18    C7      17.666171   21.836228   21.584102 C.2        1 MOL1         0.6174
      19    O1      18.279325   22.692087   20.977262 O.co2      1 MOL1        -0.6695
      20    O2      16.459905   21.848366   21.730760 O.co2      1 MOL1        -0.6695
@<TRIPOS>BOND
    1     1     2    1
    2     1     3    1
    3     1     4    2
    4     4     5    1
    5     4     6    1
    6     6     7    1
    7     6     8    1
    8     6     9    1
    9     9    10    1
   10     9    11    1
   11     9    12    1
   12    12    13    1
   13    12    14    1
   14    12    15    1
   15    15    16    1
   16    15    17    1
   17    15    18    1
   18    18    19    1
   19    18    20    2
@<TRIPOS>SUBSTRUCTURE
       1 MOL1            1 RESIDUE      1      MOL     
@<SCITEGIC>MOL_PROPERTY
VConf Rank
SciTegic.value.IntegerValue
802

@<SCITEGIC>MOL_PROPERTY
Conf_Id
SciTegic.value.IntegerValue
37

@<SCITEGIC>MOL_PROPERTY
Delta U+W
SciTegic.value.DoubleValue
-0.384

@<SCITEGIC>MOL_PROPERTY
U+W
SciTegic.value.DoubleValue
-52.130

@<SCITEGIC>MOL_PROPERTY
Grad RMS
SciTegic.value.DoubleValue
0.000000

@<SCITEGIC>MOL_PROPERTY
U
SciTegic.value.DoubleValue
7.491

@<SCITEGIC>MOL_PROPERTY
W
SciTegic.value.DoubleValue
-59.621

@<SCITEGIC>MOL_PROPERTY
W(PB)
SciTegic.value.DoubleValue
-61.853

@<SCITEGIC>MOL_PROPERTY
W(SA)
SciTegic.value.DoubleValue
2.232

@<SCITEGIC>MOL_PROPERTY
Valence
SciTegic.value.DoubleValue
9.604

@<SCITEGIC>MOL_PROPERTY
Coulomb
SciTegic.value.DoubleValue
-2.799

@<SCITEGIC>MOL_PROPERTY
VdW
SciTegic.value.DoubleValue
0.686

@<SCITEGIC>MOL_PROPERTY
VdW6
SciTegic.value.DoubleValue
-6.435

@<SCITEGIC>MOL_PROPERTY
VdW12
SciTegic.value.DoubleValue
7.121

@<SCITEGIC>MOL_PROPERTY
Bond
SciTegic.value.DoubleValue
0.124

@<SCITEGIC>MOL_PROPERTY
Angle
SciTegic.value.DoubleValue
2.493

@<SCITEGIC>MOL_PROPERTY
Pdih
SciTegic.value.DoubleValue
6.986

@<SCITEGIC>MOL_PROPERTY
Idih
SciTegic.value.DoubleValue
0.001

@<SCITEGIC>MOL_PROPERTY
Tether
SciTegic.value.DoubleValue
0.000

@<TRIPOS>MOLECULE
guest-s22_confgen4.mol2 : confsearch ligand conformer 803
          20          19           1
SMALL
USER_CHARGES
 
@<TRIPOS>ATOM
       1    C1      18.786833   17.018502   24.397456 C.2        1 MOL1        -0.2535
       2    H1      18.449465   16.382721   25.214252 H          1 MOL1         0.0845
       3    H2      19.581020   16.626133   23.765901 H          1 MOL1         0.0845
       4    C2      18.237911   18.221986   24.196901 C.2        1 MOL1        -0.1324
       5    H3      17.445209   18.560598   24.863681 H          1 MOL1         0.0833
       6    C3      18.601109   19.215829   23.106316 C.3        1 MOL1        -0.1813
       7    H4      18.895167   20.163768   23.576504 H          1 MOL1         0.0753
       8    H5      17.699777   19.442664   22.521267 H          1 MOL1         0.0753
       9    C4      19.724620   18.754826   22.148619 C.3        1 MOL1        -0.1855
      10    H6      20.636007   18.546156   22.725610 H          1 MOL1         0.0755
      11    H7      19.427659   17.817213   21.658943 H          1 MOL1         0.0755
      12    C5      20.032145   19.819290   21.072809 C.3        1 MOL1        -0.1855
      13    H8      20.329889   20.760067   21.556435 H          1 MOL1         0.0755
      14    H9      19.124009   20.032613   20.491960 H          1 MOL1         0.0755
      15    C6      21.156876   19.360010   20.112534 C.3        1 MOL1        -0.1958
      16    H10     22.075538   19.155578   20.675445 H          1 MOL1         0.0753
      17    H11     20.869642   18.428037   19.611010 H          1 MOL1         0.0753
      18    C7      21.478941   20.394788   19.040390 C.2        1 MOL1         0.6174
      19    O1      22.324734   21.231794   19.286773 O.co2      1 MOL1        -0.6695
      20    O2      20.861509   20.348570   17.994785 O.co2      1 MOL1        -0.6695
@<TRIPOS>BOND
    1     1     2    1
    2     1     3    1
    3     1     4    2
    4     4     5    1
    5     4     6    1
    6     6     7    1
    7     6     8    1
    8     6     9    1
    9     9    10    1
   10     9    11    1
   11     9    12    1
   12    12    13    1
   13    12    14    1
   14    12    15    1
   15    15    16    1
   16    15    17    1
   17    15    18    1
   18    18    19    1
   19    18    20    2
@<TRIPOS>SUBSTRUCTURE
       1 MOL1            1 RESIDUE      1      MOL     
@<SCITEGIC>MOL_PROPERTY
VConf Rank
SciTegic.value.IntegerValue
803

@<SCITEGIC>MOL_PROPERTY
Conf_Id
SciTegic.value.IntegerValue
44

@<SCITEGIC>MOL_PROPERTY
Delta U+W
SciTegic.value.DoubleValue
-1.440

@<SCITEGIC>MOL_PROPERTY
U+W
SciTegic.value.DoubleValue
-53.185

@<SCITEGIC>MOL_PROPERTY
Grad RMS
SciTegic.value.DoubleValue
0.000000

@<SCITEGIC>MOL_PROPERTY
U
SciTegic.value.DoubleValue
6.572

@<SCITEGIC>MOL_PROPERTY
W
SciTegic.value.DoubleValue
-59.757

@<SCITEGIC>MOL_PROPERTY
W(PB)
SciTegic.value.DoubleValue
-62.007

@<SCITEGIC>MOL_PROPERTY
W(SA)
SciTegic.value.DoubleValue
2.249

@<SCITEGIC>MOL_PROPERTY
Valence
SciTegic.value.DoubleValue
7.989

@<SCITEGIC>MOL_PROPERTY
Coulomb
SciTegic.value.DoubleValue
-2.697

@<SCITEGIC>MOL_PROPERTY
VdW
SciTegic.value.DoubleValue
1.281

@<SCITEGIC>MOL_PROPERTY
VdW6
SciTegic.value.DoubleValue
-6.467

@<SCITEGIC>MOL_PROPERTY
VdW12
SciTegic.value.DoubleValue
7.748

@<SCITEGIC>MOL_PROPERTY
Bond
SciTegic.value.DoubleValue
0.136

@<SCITEGIC>MOL_PROPERTY
Angle
SciTegic.value.DoubleValue
2.854

@<SCITEGIC>MOL_PROPERTY
Pdih
SciTegic.value.DoubleValue
4.997

@<SCITEGIC>MOL_PROPERTY
Idih
SciTegic.value.DoubleValue
0.001

@<SCITEGIC>MOL_PROPERTY
Tether
SciTegic.value.DoubleValue
0.000

@<TRIPOS>MOLECULE
guest-s22_confgen4.mol2 : confsearch ligand conformer 804
          20          19           1
SMALL
USER_CHARGES
 
@<TRIPOS>ATOM
       1    C1      16.547076   19.554190   23.014385 C.2        1 MOL1        -0.2535
       2    H1      16.804101   18.688346   23.622522 H          1 MOL1         0.0845
       3    H2      15.495635   19.830209   22.954882 H          1 MOL1         0.0845
       4    C2      17.481564   20.251540   22.363116 C.2        1 MOL1        -0.1324
       5    H3      17.202932   21.114841   21.759203 H          1 MOL1         0.0833
       6    C3      18.958999   19.929409   22.399396 C.3        1 MOL1        -0.1813
       7    H4      19.169620   19.238499   23.225762 H          1 MOL1         0.0753
       8    H5      19.529339   20.846333   22.599133 H          1 MOL1         0.0753
       9    C4      19.425020   19.309953   21.062587 C.3        1 MOL1        -0.1855
      10    H6      18.892872   18.364243   20.890410 H          1 MOL1         0.0755
      11    H7      19.138478   19.980686   20.240945 H          1 MOL1         0.0755
      12    C5      20.951910   19.069106   20.992431 C.3        1 MOL1        -0.1855
      13    H8      21.485300   20.015940   21.154830 H          1 MOL1         0.0755
      14    H9      21.209776   18.738397   19.976735 H          1 MOL1         0.0755
      15    C6      21.458622   18.008917   22.004507 C.3        1 MOL1        -0.1958
      16    H10     21.299275   18.349458   23.033751 H          1 MOL1         0.0753
      17    H11     20.902475   17.071928   21.881421 H          1 MOL1         0.0753
      18    C7      22.943133   17.702352   21.842716 C.2        1 MOL1         0.6174
      19    O1      23.265070   16.809217   21.084164 O.co2      1 MOL1        -0.6695
      20    O2      23.739587   18.377783   22.464139 O.co2      1 MOL1        -0.6695
@<TRIPOS>BOND
    1     1     2    1
    2     1     3    1
    3     1     4    2
    4     4     5    1
    5     4     6    1
    6     6     7    1
    7     6     8    1
    8     6     9    1
    9     9    10    1
   10     9    11    1
   11     9    12    1
   12    12    13    1
   13    12    14    1
   14    12    15    1
   15    15    16    1
   16    15    17    1
   17    15    18    1
   18    18    19    1
   19    18    20    2
@<TRIPOS>SUBSTRUCTURE
       1 MOL1            1 RESIDUE      1      MOL     
@<SCITEGIC>MOL_PROPERTY
VConf Rank
SciTegic.value.IntegerValue
804

@<SCITEGIC>MOL_PROPERTY
Conf_Id
SciTegic.value.IntegerValue
38

@<SCITEGIC>MOL_PROPERTY
Delta U+W
SciTegic.value.DoubleValue
-0.381

@<SCITEGIC>MOL_PROPERTY
U+W
SciTegic.value.DoubleValue
-52.126

@<SCITEGIC>MOL_PROPERTY
Grad RMS
SciTegic.value.DoubleValue
0.000000

@<SCITEGIC>MOL_PROPERTY
U
SciTegic.value.DoubleValue
7.601

@<SCITEGIC>MOL_PROPERTY
W
SciTegic.value.DoubleValue
-59.727

@<SCITEGIC>MOL_PROPERTY
W(PB)
SciTegic.value.DoubleValue
-61.964

@<SCITEGIC>MOL_PROPERTY
W(SA)
SciTegic.value.DoubleValue
2.236

@<SCITEGIC>MOL_PROPERTY
Valence
SciTegic.value.DoubleValue
9.602

@<SCITEGIC>MOL_PROPERTY
Coulomb
SciTegic.value.DoubleValue
-2.686

@<SCITEGIC>MOL_PROPERTY
VdW
SciTegic.value.DoubleValue
0.685

@<SCITEGIC>MOL_PROPERTY
VdW6
SciTegic.value.DoubleValue
-6.453

@<SCITEGIC>MOL_PROPERTY
VdW12
SciTegic.value.DoubleValue
7.139

@<SCITEGIC>MOL_PROPERTY
Bond
SciTegic.value.DoubleValue
0.125

@<SCITEGIC>MOL_PROPERTY
Angle
SciTegic.value.DoubleValue
2.485

@<SCITEGIC>MOL_PROPERTY
Pdih
SciTegic.value.DoubleValue
6.991

@<SCITEGIC>MOL_PROPERTY
Idih
SciTegic.value.DoubleValue
0.001

@<SCITEGIC>MOL_PROPERTY
Tether
SciTegic.value.DoubleValue
0.000

@<TRIPOS>MOLECULE
guest-s22_confgen4.mol2 : confsearch ligand conformer 805
          20          19           1
SMALL
USER_CHARGES
 
@<TRIPOS>ATOM
       1    C1      23.026645   20.383712   21.394438 C.2        1 MOL1        -0.2535
       2    H1      23.471942   19.654415   22.069282 H          1 MOL1         0.0845
       3    H2      23.667050   20.809559   20.623852 H          1 MOL1         0.0845
       4    C2      21.744878   20.742905   21.502685 C.2        1 MOL1        -0.1324
       5    H3      21.318293   21.474069   20.816328 H          1 MOL1         0.0833
       6    C3      20.796319   20.195897   22.546077 C.3        1 MOL1        -0.1813
       7    H4      20.263835   21.025837   23.029590 H          1 MOL1         0.0753
       8    H5      21.357342   19.677435   23.335502 H          1 MOL1         0.0753
       9    C4      19.776244   19.224046   21.916819 C.3        1 MOL1        -0.1855
      10    H6      19.214902   19.745676   21.129273 H          1 MOL1         0.0755
      11    H7      20.312718   18.397893   21.430057 H          1 MOL1         0.0755
      12    C5      18.796846   18.657809   22.969666 C.3        1 MOL1        -0.1855
      13    H8      18.250837   19.481080   23.451117 H          1 MOL1         0.0755
      14    H9      19.367620   18.152053   23.760242 H          1 MOL1         0.0755
      15    C6      17.782184   17.654970   22.361661 C.3        1 MOL1        -0.1958
      16    H10     18.312492   16.840936   21.852761 H          1 MOL1         0.0753
      17    H11     17.193336   17.196900   23.165033 H          1 MOL1         0.0753
      18    C7      16.799927   18.285881   21.378814 C.2        1 MOL1         0.6174
      19    O1      16.965106   18.086446   20.191416 O.co2      1 MOL1        -0.6695
      20    O2      15.888195   18.951712   21.828828 O.co2      1 MOL1        -0.6695
@<TRIPOS>BOND
    1     1     2    1
    2     1     3    1
    3     1     4    2
    4     4     5    1
    5     4     6    1
    6     6     7    1
    7     6     8    1
    8     6     9    1
    9     9    10    1
   10     9    11    1
   11     9    12    1
   12    12    13    1
   13    12    14    1
   14    12    15    1
   15    15    16    1
   16    15    17    1
   17    15    18    1
   18    18    19    1
   19    18    20    2
@<TRIPOS>SUBSTRUCTURE
       1 MOL1            1 RESIDUE      1      MOL     
@<SCITEGIC>MOL_PROPERTY
VConf Rank
SciTegic.value.IntegerValue
805

@<SCITEGIC>MOL_PROPERTY
Conf_Id
SciTegic.value.IntegerValue
58

@<SCITEGIC>MOL_PROPERTY
Delta U+W
SciTegic.value.DoubleValue
0.019

@<SCITEGIC>MOL_PROPERTY
U+W
SciTegic.value.DoubleValue
-51.727

@<SCITEGIC>MOL_PROPERTY
Grad RMS
SciTegic.value.DoubleValue
0.000000

@<SCITEGIC>MOL_PROPERTY
U
SciTegic.value.DoubleValue
8.963

@<SCITEGIC>MOL_PROPERTY
W
SciTegic.value.DoubleValue
-60.690

@<SCITEGIC>MOL_PROPERTY
W(PB)
SciTegic.value.DoubleValue
-62.934

@<SCITEGIC>MOL_PROPERTY
W(SA)
SciTegic.value.DoubleValue
2.244

@<SCITEGIC>MOL_PROPERTY
Valence
SciTegic.value.DoubleValue
9.327

@<SCITEGIC>MOL_PROPERTY
Coulomb
SciTegic.value.DoubleValue
-0.780

@<SCITEGIC>MOL_PROPERTY
VdW
SciTegic.value.DoubleValue
0.417

@<SCITEGIC>MOL_PROPERTY
VdW6
SciTegic.value.DoubleValue
-6.635

@<SCITEGIC>MOL_PROPERTY
VdW12
SciTegic.value.DoubleValue
7.052

@<SCITEGIC>MOL_PROPERTY
Bond
SciTegic.value.DoubleValue
0.105

@<SCITEGIC>MOL_PROPERTY
Angle
SciTegic.value.DoubleValue
2.399

@<SCITEGIC>MOL_PROPERTY
Pdih
SciTegic.value.DoubleValue
6.822

@<SCITEGIC>MOL_PROPERTY
Idih
SciTegic.value.DoubleValue
0.000

@<SCITEGIC>MOL_PROPERTY
Tether
SciTegic.value.DoubleValue
0.000

@<TRIPOS>MOLECULE
guest-s22_confgen4.mol2 : confsearch ligand conformer 806
          20          19           1
SMALL
USER_CHARGES
 
@<TRIPOS>ATOM
       1    C1      16.636229   17.547764   21.625209 C.2        1 MOL1        -0.2535
       2    H1      16.404406   18.083938   20.706323 H          1 MOL1         0.0845
       3    H2      15.804190   17.105900   22.170861 H          1 MOL1         0.0845
       4    C2      17.890405   17.436322   22.070505 C.2        1 MOL1        -0.1324
       5    H3      18.100911   16.896116   22.993286 H          1 MOL1         0.0833
       6    C3      19.094836   18.021814   21.367519 C.3        1 MOL1        -0.1813
       7    H4      18.831226   18.315426   20.342316 H          1 MOL1         0.0753
       8    H5      19.879708   17.257998   21.285741 H          1 MOL1         0.0753
       9    C4      19.643167   19.246966   22.128669 C.3        1 MOL1        -0.1855
      10    H6      18.853894   20.006752   22.212602 H          1 MOL1         0.0755
      11    H7      19.908191   18.950118   23.152913 H          1 MOL1         0.0755
      12    C5      20.876874   19.855946   21.424795 C.3        1 MOL1        -0.1855
      13    H8      20.606609   20.135027   20.397345 H          1 MOL1         0.0755
      14    H9      21.672341   19.101529   21.348753 H          1 MOL1         0.0755
      15    C6      21.424611   21.107543   22.158541 C.3        1 MOL1        -0.1958
      16    H10     22.218707   21.566340   21.557796 H          1 MOL1         0.0753
      17    H11     20.633709   21.859575   22.267080 H          1 MOL1         0.0753
      18    C7      22.008419   20.812057   23.537207 C.2        1 MOL1         0.6174
      19    O1      23.102763   20.286501   23.594623 O.co2      1 MOL1        -0.6695
      20    O2      21.359892   21.124564   24.516351 O.co2      1 MOL1        -0.6695
@<TRIPOS>BOND
    1     1     2    1
    2     1     3    1
    3     1     4    2
    4     4     5    1
    5     4     6    1
    6     6     7    1
    7     6     8    1
    8     6     9    1
    9     9    10    1
   10     9    11    1
   11     9    12    1
   12    12    13    1
   13    12    14    1
   14    12    15    1
   15    15    16    1
   16    15    17    1
   17    15    18    1
   18    18    19    1
   19    18    20    2
@<TRIPOS>SUBSTRUCTURE
       1 MOL1            1 RESIDUE      1      MOL     
@<SCITEGIC>MOL_PROPERTY
VConf Rank
SciTegic.value.IntegerValue
806

@<SCITEGIC>MOL_PROPERTY
Conf_Id
SciTegic.value.IntegerValue
54

@<SCITEGIC>MOL_PROPERTY
Delta U+W
SciTegic.value.DoubleValue
-0.048

@<SCITEGIC>MOL_PROPERTY
U+W
SciTegic.value.DoubleValue
-51.793

@<SCITEGIC>MOL_PROPERTY
Grad RMS
SciTegic.value.DoubleValue
0.000000

@<SCITEGIC>MOL_PROPERTY
U
SciTegic.value.DoubleValue
8.964

@<SCITEGIC>MOL_PROPERTY
W
SciTegic.value.DoubleValue
-60.756

@<SCITEGIC>MOL_PROPERTY
W(PB)
SciTegic.value.DoubleValue
-63.007

@<SCITEGIC>MOL_PROPERTY
W(SA)
SciTegic.value.DoubleValue
2.251

@<SCITEGIC>MOL_PROPERTY
Valence
SciTegic.value.DoubleValue
9.327

@<SCITEGIC>MOL_PROPERTY
Coulomb
SciTegic.value.DoubleValue
-0.780

@<SCITEGIC>MOL_PROPERTY
VdW
SciTegic.value.DoubleValue
0.417

@<SCITEGIC>MOL_PROPERTY
VdW6
SciTegic.value.DoubleValue
-6.635

@<SCITEGIC>MOL_PROPERTY
VdW12
SciTegic.value.DoubleValue
7.052

@<SCITEGIC>MOL_PROPERTY
Bond
SciTegic.value.DoubleValue
0.105

@<SCITEGIC>MOL_PROPERTY
Angle
SciTegic.value.DoubleValue
2.399

@<SCITEGIC>MOL_PROPERTY
Pdih
SciTegic.value.DoubleValue
6.822

@<SCITEGIC>MOL_PROPERTY
Idih
SciTegic.value.DoubleValue
0.000

@<SCITEGIC>MOL_PROPERTY
Tether
SciTegic.value.DoubleValue
0.000

@<TRIPOS>MOLECULE
guest-s22_confgen4.mol2 : confsearch ligand conformer 807
          20          19           1
SMALL
USER_CHARGES
 
@<TRIPOS>ATOM
       1    C1      20.014613   20.817238   24.891839 C.2        1 MOL1        -0.2535
       2    H1      19.811095   20.565755   25.931322 H          1 MOL1         0.0845
       3    H2      20.871900   21.457285   24.689587 H          1 MOL1         0.0845
       4    C2      19.242102   20.354134   23.905718 C.2        1 MOL1        -0.1324
       5    H3      18.386765   19.717656   24.130543 H          1 MOL1         0.0833
       6    C3      19.459721   20.667043   22.440597 C.3        1 MOL1        -0.1813
       7    H4      20.079800   21.568435   22.343006 H          1 MOL1         0.0753
       8    H5      18.499882   20.901264   21.961124 H          1 MOL1         0.0753
       9    C4      20.149975   19.507969   21.686743 C.3        1 MOL1        -0.1855
      10    H6      20.402124   19.849015   20.673288 H          1 MOL1         0.0755
      11    H7      21.100991   19.265844   22.180789 H          1 MOL1         0.0755
      12    C5      19.268548   18.239507   21.596218 C.3        1 MOL1        -0.1855
      13    H8      18.311418   18.484568   21.115298 H          1 MOL1         0.0755
      14    H9      19.032480   17.884161   22.607898 H          1 MOL1         0.0755
      15    C6      19.956917   17.090508   20.814470 C.3        1 MOL1        -0.1958
      16    H10     20.930106   16.857219   21.263147 H          1 MOL1         0.0753
      17    H11     19.347827   16.181837   20.887157 H          1 MOL1         0.0753
      18    C7      20.161850   17.384411   19.331076 C.2        1 MOL1         0.6174
      19    O1      21.281154   17.663271   18.948394 O.co2      1 MOL1        -0.6695
      20    O2      19.196931   17.315843   18.595315 O.co2      1 MOL1        -0.6695
@<TRIPOS>BOND
    1     1     2    1
    2     1     3    1
    3     1     4    2
    4     4     5    1
    5     4     6    1
    6     6     7    1
    7     6     8    1
    8     6     9    1
    9     9    10    1
   10     9    11    1
   11     9    12    1
   12    12    13    1
   13    12    14    1
   14    12    15    1
   15    15    16    1
   16    15    17    1
   17    15    18    1
   18    18    19    1
   19    18    20    2
@<TRIPOS>SUBSTRUCTURE
       1 MOL1            1 RESIDUE      1      MOL     
@<SCITEGIC>MOL_PROPERTY
VConf Rank
SciTegic.value.IntegerValue
807

@<SCITEGIC>MOL_PROPERTY
Conf_Id
SciTegic.value.IntegerValue
27

@<SCITEGIC>MOL_PROPERTY
Delta U+W
SciTegic.value.DoubleValue
0.478

@<SCITEGIC>MOL_PROPERTY
U+W
SciTegic.value.DoubleValue
-51.267

@<SCITEGIC>MOL_PROPERTY
Grad RMS
SciTegic.value.DoubleValue
0.000000

@<SCITEGIC>MOL_PROPERTY
U
SciTegic.value.DoubleValue
9.192

@<SCITEGIC>MOL_PROPERTY
W
SciTegic.value.DoubleValue
-60.459

@<SCITEGIC>MOL_PROPERTY
W(PB)
SciTegic.value.DoubleValue
-62.649

@<SCITEGIC>MOL_PROPERTY
W(SA)
SciTegic.value.DoubleValue
2.190

@<SCITEGIC>MOL_PROPERTY
Valence
SciTegic.value.DoubleValue
9.572

@<SCITEGIC>MOL_PROPERTY
Coulomb
SciTegic.value.DoubleValue
-0.884

@<SCITEGIC>MOL_PROPERTY
VdW
SciTegic.value.DoubleValue
0.504

@<SCITEGIC>MOL_PROPERTY
VdW6
SciTegic.value.DoubleValue
-7.168

@<SCITEGIC>MOL_PROPERTY
VdW12
SciTegic.value.DoubleValue
7.672

@<SCITEGIC>MOL_PROPERTY
Bond
SciTegic.value.DoubleValue
0.127

@<SCITEGIC>MOL_PROPERTY
Angle
SciTegic.value.DoubleValue
2.504

@<SCITEGIC>MOL_PROPERTY
Pdih
SciTegic.value.DoubleValue
6.941

@<SCITEGIC>MOL_PROPERTY
Idih
SciTegic.value.DoubleValue
0.001

@<SCITEGIC>MOL_PROPERTY
Tether
SciTegic.value.DoubleValue
0.000

@<TRIPOS>MOLECULE
guest-s22_confgen4.mol2 : confsearch ligand conformer 808
          20          19           1
SMALL
USER_CHARGES
 
@<TRIPOS>ATOM
       1    C1      20.521455   16.667376   24.367090 C.2        1 MOL1        -0.2535
       2    H1      21.161466   17.212788   25.058768 H          1 MOL1         0.0845
       3    H2      20.675926   15.593053   24.282433 H          1 MOL1         0.0845
       4    C2      19.584431   17.288798   23.646328 C.2        1 MOL1        -0.1324
       5    H3      18.952524   16.723248   22.962121 H          1 MOL1         0.0833
       6    C3      19.308838   18.775727   23.716227 C.3        1 MOL1        -0.1813
       7    H4      19.718119   19.184663   24.649938 H          1 MOL1         0.0753
       8    H5      18.225810   18.954263   23.751386 H          1 MOL1         0.0753
       9    C4      19.925951   19.544862   22.526410 C.3        1 MOL1        -0.1855
      10    H6      19.807168   20.622739   22.702338 H          1 MOL1         0.0755
      11    H7      21.006559   19.349814   22.487051 H          1 MOL1         0.0755
      12    C5      19.277585   19.177474   21.171903 C.3        1 MOL1        -0.1855
      13    H8      18.193319   19.348565   21.221426 H          1 MOL1         0.0755
      14    H9      19.423106   18.108690   20.964039 H          1 MOL1         0.0755
      15    C6      19.873099   20.004492   20.005942 C.3        1 MOL1        -0.1958
      16    H10     19.723461   21.075840   20.185825 H          1 MOL1         0.0753
      17    H11     20.954290   19.835121   19.935606 H          1 MOL1         0.0753
      18    C7      19.250797   19.659648   18.657658 C.2        1 MOL1         0.6174
      19    O1      19.763312   18.777095   17.998044 O.co2      1 MOL1        -0.6695
      20    O2      18.259450   20.270729   18.310514 O.co2      1 MOL1        -0.6695
@<TRIPOS>BOND
    1     1     2    1
    2     1     3    1
    3     1     4    2
    4     4     5    1
    5     4     6    1
    6     6     7    1
    7     6     8    1
    8     6     9    1
    9     9    10    1
   10     9    11    1
   11     9    12    1
   12    12    13    1
   13    12    14    1
   14    12    15    1
   15    15    16    1
   16    15    17    1
   17    15    18    1
   18    18    19    1
   19    18    20    2
@<TRIPOS>SUBSTRUCTURE
       1 MOL1            1 RESIDUE      1      MOL     
@<SCITEGIC>MOL_PROPERTY
VConf Rank
SciTegic.value.IntegerValue
808

@<SCITEGIC>MOL_PROPERTY
Conf_Id
SciTegic.value.IntegerValue
41

@<SCITEGIC>MOL_PROPERTY
Delta U+W
SciTegic.value.DoubleValue
-0.634

@<SCITEGIC>MOL_PROPERTY
U+W
SciTegic.value.DoubleValue
-52.379

@<SCITEGIC>MOL_PROPERTY
Grad RMS
SciTegic.value.DoubleValue
0.000000

@<SCITEGIC>MOL_PROPERTY
U
SciTegic.value.DoubleValue
7.828

@<SCITEGIC>MOL_PROPERTY
W
SciTegic.value.DoubleValue
-60.207

@<SCITEGIC>MOL_PROPERTY
W(PB)
SciTegic.value.DoubleValue
-62.449

@<SCITEGIC>MOL_PROPERTY
W(SA)
SciTegic.value.DoubleValue
2.242

@<SCITEGIC>MOL_PROPERTY
Valence
SciTegic.value.DoubleValue
9.300

@<SCITEGIC>MOL_PROPERTY
Coulomb
SciTegic.value.DoubleValue
-2.080

@<SCITEGIC>MOL_PROPERTY
VdW
SciTegic.value.DoubleValue
0.608

@<SCITEGIC>MOL_PROPERTY
VdW6
SciTegic.value.DoubleValue
-6.341

@<SCITEGIC>MOL_PROPERTY
VdW12
SciTegic.value.DoubleValue
6.949

@<SCITEGIC>MOL_PROPERTY
Bond
SciTegic.value.DoubleValue
0.103

@<SCITEGIC>MOL_PROPERTY
Angle
SciTegic.value.DoubleValue
2.334

@<SCITEGIC>MOL_PROPERTY
Pdih
SciTegic.value.DoubleValue
6.862

@<SCITEGIC>MOL_PROPERTY
Idih
SciTegic.value.DoubleValue
0.001

@<SCITEGIC>MOL_PROPERTY
Tether
SciTegic.value.DoubleValue
0.000

@<TRIPOS>MOLECULE
guest-s22_confgen4.mol2 : confsearch ligand conformer 809
          20          19           1
SMALL
USER_CHARGES
 
@<TRIPOS>ATOM
       1    C1      16.903181   17.902105   23.433307 C.2        1 MOL1        -0.2535
       2    H1      15.886351   17.575998   23.221295 H          1 MOL1         0.0845
       3    H2      17.296179   17.702227   24.428874 H          1 MOL1         0.0845
       4    C2      17.637228   18.520837   22.504834 C.2        1 MOL1        -0.1324
       5    H3      17.225599   18.711003   21.513842 H          1 MOL1         0.0833
       6    C3      19.053752   19.002710   22.725872 C.3        1 MOL1        -0.1813
       7    H4      19.290966   19.007073   23.798292 H          1 MOL1         0.0753
       8    H5      19.139507   20.039490   22.375604 H          1 MOL1         0.0753
       9    C4      20.067069   18.108821   21.976656 C.3        1 MOL1        -0.1855
      10    H6      19.898538   17.062411   22.266111 H          1 MOL1         0.0755
      11    H7      19.876854   18.164179   20.895910 H          1 MOL1         0.0755
      12    C5      21.544536   18.469147   22.268971 C.3        1 MOL1        -0.1855
      13    H8      22.192961   17.741236   21.761943 H          1 MOL1         0.0755
      14    H9      21.738317   18.356775   23.344251 H          1 MOL1         0.0755
      15    C6      21.957101   19.898900   21.823978 C.3        1 MOL1        -0.1958
      16    H10     21.379753   20.655381   22.367494 H          1 MOL1         0.0753
      17    H11     23.009315   20.069062   22.080094 H          1 MOL1         0.0753
      18    C7      21.807817   20.152734   20.326640 C.2        1 MOL1         0.6174
      19    O1      22.597278   19.616718   19.573749 O.co2      1 MOL1        -0.6695
      20    O2      20.918899   20.892768   19.953644 O.co2      1 MOL1        -0.6695
@<TRIPOS>BOND
    1     1     2    1
    2     1     3    1
    3     1     4    2
    4     4     5    1
    5     4     6    1
    6     6     7    1
    7     6     8    1
    8     6     9    1
    9     9    10    1
   10     9    11    1
   11     9    12    1
   12    12    13    1
   13    12    14    1
   14    12    15    1
   15    15    16    1
   16    15    17    1
   17    15    18    1
   18    18    19    1
   19    18    20    2
@<TRIPOS>SUBSTRUCTURE
       1 MOL1            1 RESIDUE      1      MOL     
@<SCITEGIC>MOL_PROPERTY
VConf Rank
SciTegic.value.IntegerValue
809

@<SCITEGIC>MOL_PROPERTY
Conf_Id
SciTegic.value.IntegerValue
84

@<SCITEGIC>MOL_PROPERTY
Delta U+W
SciTegic.value.DoubleValue
0.942

@<SCITEGIC>MOL_PROPERTY
U+W
SciTegic.value.DoubleValue
-50.803

@<SCITEGIC>MOL_PROPERTY
Grad RMS
SciTegic.value.DoubleValue
0.000000

@<SCITEGIC>MOL_PROPERTY
U
SciTegic.value.DoubleValue
10.196

@<SCITEGIC>MOL_PROPERTY
W
SciTegic.value.DoubleValue
-60.999

@<SCITEGIC>MOL_PROPERTY
W(PB)
SciTegic.value.DoubleValue
-63.182

@<SCITEGIC>MOL_PROPERTY
W(SA)
SciTegic.value.DoubleValue
2.182

@<SCITEGIC>MOL_PROPERTY
Valence
SciTegic.value.DoubleValue
9.837

@<SCITEGIC>MOL_PROPERTY
Coulomb
SciTegic.value.DoubleValue
0.032

@<SCITEGIC>MOL_PROPERTY
VdW
SciTegic.value.DoubleValue
0.328

@<SCITEGIC>MOL_PROPERTY
VdW6
SciTegic.value.DoubleValue
-7.642

@<SCITEGIC>MOL_PROPERTY
VdW12
SciTegic.value.DoubleValue
7.969

@<SCITEGIC>MOL_PROPERTY
Bond
SciTegic.value.DoubleValue
0.151

@<SCITEGIC>MOL_PROPERTY
Angle
SciTegic.value.DoubleValue
2.748

@<SCITEGIC>MOL_PROPERTY
Pdih
SciTegic.value.DoubleValue
6.937

@<SCITEGIC>MOL_PROPERTY
Idih
SciTegic.value.DoubleValue
0.001

@<SCITEGIC>MOL_PROPERTY
Tether
SciTegic.value.DoubleValue
0.000

@<TRIPOS>MOLECULE
guest-s22_confgen4.mol2 : confsearch ligand conformer 810
          20          19           1
SMALL
USER_CHARGES
 
@<TRIPOS>ATOM
       1    C1      17.354713   17.172555   23.683794 C.2        1 MOL1        -0.2535
       2    H1      17.059385   16.145587   23.892074 H          1 MOL1         0.0845
       3    H2      17.380999   17.866241   24.522657 H          1 MOL1         0.0845
       4    C2      17.673924   17.561457   22.446650 C.2        1 MOL1        -0.1324
       5    H3      17.641972   16.851001   21.620897 H          1 MOL1         0.0833
       6    C3      18.091833   18.968494   22.081596 C.3        1 MOL1        -0.1813
       7    H4      17.850958   19.661079   22.899578 H          1 MOL1         0.0753
       8    H5      17.522599   19.304764   21.204683 H          1 MOL1         0.0753
       9    C4      19.602815   19.039772   21.776779 C.3        1 MOL1        -0.1855
      10    H6      20.165762   18.696034   22.655763 H          1 MOL1         0.0755
      11    H7      19.843798   18.350344   20.956008 H          1 MOL1         0.0755
      12    C5      20.045695   20.471210   21.398392 C.3        1 MOL1        -0.1855
      13    H8      19.818898   21.161220   22.223111 H          1 MOL1         0.0755
      14    H9      19.464377   20.813027   20.531328 H          1 MOL1         0.0755
      15    C6      21.555999   20.557657   21.057228 C.3        1 MOL1        -0.1958
      16    H10     21.803728   19.854237   20.253061 H          1 MOL1         0.0753
      17    H11     21.790590   21.561590   20.684320 H          1 MOL1         0.0753
      18    C7      22.476414   20.285105   22.243586 C.2        1 MOL1         0.6174
      19    O1      23.051462   19.215573   22.292505 O.co2      1 MOL1        -0.6695
      20    O2      22.603652   21.156466   23.081231 O.co2      1 MOL1        -0.6695
@<TRIPOS>BOND
    1     1     2    1
    2     1     3    1
    3     1     4    2
    4     4     5    1
    5     4     6    1
    6     6     7    1
    7     6     8    1
    8     6     9    1
    9     9    10    1
   10     9    11    1
   11     9    12    1
   12    12    13    1
   13    12    14    1
   14    12    15    1
   15    15    16    1
   16    15    17    1
   17    15    18    1
   18    18    19    1
   19    18    20    2
@<TRIPOS>SUBSTRUCTURE
       1 MOL1            1 RESIDUE      1      MOL     
@<SCITEGIC>MOL_PROPERTY
VConf Rank
SciTegic.value.IntegerValue
810

@<SCITEGIC>MOL_PROPERTY
Conf_Id
SciTegic.value.IntegerValue
81

@<SCITEGIC>MOL_PROPERTY
Delta U+W
SciTegic.value.DoubleValue
-0.051

@<SCITEGIC>MOL_PROPERTY
U+W
SciTegic.value.DoubleValue
-51.796

@<SCITEGIC>MOL_PROPERTY
Grad RMS
SciTegic.value.DoubleValue
0.000000

@<SCITEGIC>MOL_PROPERTY
U
SciTegic.value.DoubleValue
9.412

@<SCITEGIC>MOL_PROPERTY
W
SciTegic.value.DoubleValue
-61.209

@<SCITEGIC>MOL_PROPERTY
W(PB)
SciTegic.value.DoubleValue
-63.452

@<SCITEGIC>MOL_PROPERTY
W(SA)
SciTegic.value.DoubleValue
2.243

@<SCITEGIC>MOL_PROPERTY
Valence
SciTegic.value.DoubleValue
9.329

@<SCITEGIC>MOL_PROPERTY
Coulomb
SciTegic.value.DoubleValue
-0.323

@<SCITEGIC>MOL_PROPERTY
VdW
SciTegic.value.DoubleValue
0.406

@<SCITEGIC>MOL_PROPERTY
VdW6
SciTegic.value.DoubleValue
-6.640

@<SCITEGIC>MOL_PROPERTY
VdW12
SciTegic.value.DoubleValue
7.046

@<SCITEGIC>MOL_PROPERTY
Bond
SciTegic.value.DoubleValue
0.105

@<SCITEGIC>MOL_PROPERTY
Angle
SciTegic.value.DoubleValue
2.401

@<SCITEGIC>MOL_PROPERTY
Pdih
SciTegic.value.DoubleValue
6.823

@<SCITEGIC>MOL_PROPERTY
Idih
SciTegic.value.DoubleValue
0.000

@<SCITEGIC>MOL_PROPERTY
Tether
SciTegic.value.DoubleValue
0.000

@<TRIPOS>MOLECULE
guest-s22_confgen4.mol2 : confsearch ligand conformer 811
          20          19           1
SMALL
USER_CHARGES
 
@<TRIPOS>ATOM
       1    C1      17.882534   19.702396   24.682849 C.2        1 MOL1        -0.2535
       2    H1      16.922934   20.095175   24.350658 H          1 MOL1         0.0845
       3    H2      17.954926   19.362406   25.714504 H          1 MOL1         0.0845
       4    C2      18.931630   19.635844   23.859049 C.2        1 MOL1        -0.1324
       5    H3      19.883989   19.241465   24.212179 H          1 MOL1         0.0833
       6    C3      18.907578   20.093719   22.416378 C.3        1 MOL1        -0.1813
       7    H4      19.807282   20.681449   22.192687 H          1 MOL1         0.0753
       8    H5      18.059457   20.773238   22.257760 H          1 MOL1         0.0753
       9    C4      18.783148   18.913286   21.423502 C.3        1 MOL1        -0.1855
      10    H6      17.833910   18.392791   21.610231 H          1 MOL1         0.0755
      11    H7      18.715186   19.312769   20.402343 H          1 MOL1         0.0755
      12    C5      19.939650   17.882884   21.493256 C.3        1 MOL1        -0.1855
      13    H8      19.738787   17.079248   20.771450 H          1 MOL1         0.0755
      14    H9      19.947145   17.406947   22.482762 H          1 MOL1         0.0755
      15    C6      21.345808   18.474182   21.201236 C.3        1 MOL1        -0.1958
      16    H10     21.610720   19.228732   21.950580 H          1 MOL1         0.0753
      17    H11     22.097267   17.680167   21.281595 H          1 MOL1         0.0753
      18    C7      21.485245   19.093138   19.813434 C.2        1 MOL1         0.6174
      19    O1      21.561836   20.302991   19.726966 O.co2      1 MOL1        -0.6695
      20    O2      21.531197   18.346212   18.855598 O.co2      1 MOL1        -0.6695
@<TRIPOS>BOND
    1     1     2    1
    2     1     3    1
    3     1     4    2
    4     4     5    1
    5     4     6    1
    6     6     7    1
    7     6     8    1
    8     6     9    1
    9     9    10    1
   10     9    11    1
   11     9    12    1
   12    12    13    1
   13    12    14    1
   14    12    15    1
   15    15    16    1
   16    15    17    1
   17    15    18    1
   18    18    19    1
   19    18    20    2
@<TRIPOS>SUBSTRUCTURE
       1 MOL1            1 RESIDUE      1      MOL     
@<SCITEGIC>MOL_PROPERTY
VConf Rank
SciTegic.value.IntegerValue
811

@<SCITEGIC>MOL_PROPERTY
Conf_Id
SciTegic.value.IntegerValue
86

@<SCITEGIC>MOL_PROPERTY
Delta U+W
SciTegic.value.DoubleValue
1.248

@<SCITEGIC>MOL_PROPERTY
U+W
SciTegic.value.DoubleValue
-50.498

@<SCITEGIC>MOL_PROPERTY
Grad RMS
SciTegic.value.DoubleValue
0.000000

@<SCITEGIC>MOL_PROPERTY
U
SciTegic.value.DoubleValue
10.404

@<SCITEGIC>MOL_PROPERTY
W
SciTegic.value.DoubleValue
-60.901

@<SCITEGIC>MOL_PROPERTY
W(PB)
SciTegic.value.DoubleValue
-63.061

@<SCITEGIC>MOL_PROPERTY
W(SA)
SciTegic.value.DoubleValue
2.159

@<SCITEGIC>MOL_PROPERTY
Valence
SciTegic.value.DoubleValue
10.021

@<SCITEGIC>MOL_PROPERTY
Coulomb
SciTegic.value.DoubleValue
0.094

@<SCITEGIC>MOL_PROPERTY
VdW
SciTegic.value.DoubleValue
0.289

@<SCITEGIC>MOL_PROPERTY
VdW6
SciTegic.value.DoubleValue
-8.409

@<SCITEGIC>MOL_PROPERTY
VdW12
SciTegic.value.DoubleValue
8.698

@<SCITEGIC>MOL_PROPERTY
Bond
SciTegic.value.DoubleValue
0.179

@<SCITEGIC>MOL_PROPERTY
Angle
SciTegic.value.DoubleValue
2.939

@<SCITEGIC>MOL_PROPERTY
Pdih
SciTegic.value.DoubleValue
6.902

@<SCITEGIC>MOL_PROPERTY
Idih
SciTegic.value.DoubleValue
0.001

@<SCITEGIC>MOL_PROPERTY
Tether
SciTegic.value.DoubleValue
0.000

@<TRIPOS>MOLECULE
guest-s22_confgen4.mol2 : confsearch ligand conformer 812
          20          19           1
SMALL
USER_CHARGES
 
@<TRIPOS>ATOM
       1    C1      18.091623   17.277979   20.106903 C.2        1 MOL1        -0.2535
       2    H1      17.667056   17.328618   19.105762 H          1 MOL1         0.0845
       3    H2      18.768050   16.452742   20.323356 H          1 MOL1         0.0845
       4    C2      17.794578   18.196554   21.029946 C.2        1 MOL1        -0.1324
       5    H3      17.116858   19.016045   20.792210 H          1 MOL1         0.0833
       6    C3      18.345142   18.192618   22.440236 C.3        1 MOL1        -0.1813
       7    H4      18.847643   17.240128   22.656835 H          1 MOL1         0.0753
       8    H5      17.511566   18.271431   23.150702 H          1 MOL1         0.0753
       9    C4      19.325042   19.361014   22.690654 C.3        1 MOL1        -0.1855
      10    H6      18.824462   20.313837   22.470495 H          1 MOL1         0.0755
      11    H7      19.582498   19.382370   23.758488 H          1 MOL1         0.0755
      12    C5      20.620361   19.243743   21.852802 C.3        1 MOL1        -0.1855
      13    H8      20.364952   19.229179   20.784803 H          1 MOL1         0.0755
      14    H9      21.118733   18.288960   22.070440 H          1 MOL1         0.0755
      15    C6      21.607591   20.410840   22.114134 C.3        1 MOL1        -0.1958
      16    H10     22.446098   20.345522   21.410871 H          1 MOL1         0.0753
      17    H11     21.113696   21.372777   21.931044 H          1 MOL1         0.0753
      18    C7      22.193792   20.424186   23.523005 C.2        1 MOL1         0.6174
      19    O1      23.068957   19.623095   23.786572 O.co2      1 MOL1        -0.6695
      20    O2      21.769009   21.241519   24.315856 O.co2      1 MOL1        -0.6695
@<TRIPOS>BOND
    1     1     2    1
    2     1     3    1
    3     1     4    2
    4     4     5    1
    5     4     6    1
    6     6     7    1
    7     6     8    1
    8     6     9    1
    9     9    10    1
   10     9    11    1
   11     9    12    1
   12    12    13    1
   13    12    14    1
   14    12    15    1
   15    15    16    1
   16    15    17    1
   17    15    18    1
   18    18    19    1
   19    18    20    2
@<TRIPOS>SUBSTRUCTURE
       1 MOL1            1 RESIDUE      1      MOL     
@<SCITEGIC>MOL_PROPERTY
VConf Rank
SciTegic.value.IntegerValue
812

@<SCITEGIC>MOL_PROPERTY
Conf_Id
SciTegic.value.IntegerValue
28

@<SCITEGIC>MOL_PROPERTY
Delta U+W
SciTegic.value.DoubleValue
0.446

@<SCITEGIC>MOL_PROPERTY
U+W
SciTegic.value.DoubleValue
-51.299

@<SCITEGIC>MOL_PROPERTY
Grad RMS
SciTegic.value.DoubleValue
0.000000

@<SCITEGIC>MOL_PROPERTY
U
SciTegic.value.DoubleValue
9.295

@<SCITEGIC>MOL_PROPERTY
W
SciTegic.value.DoubleValue
-60.594

@<SCITEGIC>MOL_PROPERTY
W(PB)
SciTegic.value.DoubleValue
-62.806

@<SCITEGIC>MOL_PROPERTY
W(SA)
SciTegic.value.DoubleValue
2.212

@<SCITEGIC>MOL_PROPERTY
Valence
SciTegic.value.DoubleValue
9.495

@<SCITEGIC>MOL_PROPERTY
Coulomb
SciTegic.value.DoubleValue
-0.610

@<SCITEGIC>MOL_PROPERTY
VdW
SciTegic.value.DoubleValue
0.409

@<SCITEGIC>MOL_PROPERTY
VdW6
SciTegic.value.DoubleValue
-7.332

@<SCITEGIC>MOL_PROPERTY
VdW12
SciTegic.value.DoubleValue
7.741

@<SCITEGIC>MOL_PROPERTY
Bond
SciTegic.value.DoubleValue
0.126

@<SCITEGIC>MOL_PROPERTY
Angle
SciTegic.value.DoubleValue
2.497

@<SCITEGIC>MOL_PROPERTY
Pdih
SciTegic.value.DoubleValue
6.872

@<SCITEGIC>MOL_PROPERTY
Idih
SciTegic.value.DoubleValue
0.000

@<SCITEGIC>MOL_PROPERTY
Tether
SciTegic.value.DoubleValue
0.000

@<TRIPOS>MOLECULE
guest-s22_confgen4.mol2 : confsearch ligand conformer 813
          20          19           1
SMALL
USER_CHARGES
 
@<TRIPOS>ATOM
       1    C1      22.117819   19.637395   20.069470 C.2        1 MOL1        -0.2535
       2    H1      22.558573   19.223539   20.973878 H          1 MOL1         0.0845
       3    H2      22.762555   19.704031   19.194818 H          1 MOL1         0.0845
       4    C2      20.845370   20.046879   20.013161 C.2        1 MOL1        -0.1324
       5    H3      20.459783   20.450712   19.077329 H          1 MOL1         0.0833
       6    C3      19.830351   20.018553   21.143821 C.3        1 MOL1        -0.1813
       7    H4      18.999704   19.365424   20.846995 H          1 MOL1         0.0753
       8    H5      19.398233   21.022112   21.252900 H          1 MOL1         0.0753
       9    C4      20.390333   19.559934   22.513014 C.3        1 MOL1        -0.1855
      10    H6      20.745336   18.522865   22.437956 H          1 MOL1         0.0755
      11    H7      21.265141   20.174399   22.765671 H          1 MOL1         0.0755
      12    C5      19.366627   19.677118   23.669455 C.3        1 MOL1        -0.1855
      13    H8      19.053957   20.725106   23.771175 H          1 MOL1         0.0755
      14    H9      19.866761   19.413160   24.611580 H          1 MOL1         0.0755
      15    C6      18.106600   18.783303   23.507950 C.3        1 MOL1        -0.1958
      16    H10     17.438700   18.940712   24.362813 H          1 MOL1         0.0753
      17    H11     17.539570   19.070446   22.615244 H          1 MOL1         0.0753
      18    C7      18.406696   17.288701   23.437166 C.2        1 MOL1         0.6174
      19    O1      18.783716   16.731808   24.449676 O.co2      1 MOL1        -0.6695
      20    O2      18.235878   16.716547   22.378715 O.co2      1 MOL1        -0.6695
@<TRIPOS>BOND
    1     1     2    1
    2     1     3    1
    3     1     4    2
    4     4     5    1
    5     4     6    1
    6     6     7    1
    7     6     8    1
    8     6     9    1
    9     9    10    1
   10     9    11    1
   11     9    12    1
   12    12    13    1
   13    12    14    1
   14    12    15    1
   15    15    16    1
   16    15    17    1
   17    15    18    1
   18    18    19    1
   19    18    20    2
@<TRIPOS>SUBSTRUCTURE
       1 MOL1            1 RESIDUE      1      MOL     
@<SCITEGIC>MOL_PROPERTY
VConf Rank
SciTegic.value.IntegerValue
813

@<SCITEGIC>MOL_PROPERTY
Conf_Id
SciTegic.value.IntegerValue
53

@<SCITEGIC>MOL_PROPERTY
Delta U+W
SciTegic.value.DoubleValue
0.549

@<SCITEGIC>MOL_PROPERTY
U+W
SciTegic.value.DoubleValue
-51.197

@<SCITEGIC>MOL_PROPERTY
Grad RMS
SciTegic.value.DoubleValue
0.000000

@<SCITEGIC>MOL_PROPERTY
U
SciTegic.value.DoubleValue
10.870

@<SCITEGIC>MOL_PROPERTY
W
SciTegic.value.DoubleValue
-62.067

@<SCITEGIC>MOL_PROPERTY
W(PB)
SciTegic.value.DoubleValue
-64.228

@<SCITEGIC>MOL_PROPERTY
W(SA)
SciTegic.value.DoubleValue
2.161

@<SCITEGIC>MOL_PROPERTY
Valence
SciTegic.value.DoubleValue
8.803

@<SCITEGIC>MOL_PROPERTY
Coulomb
SciTegic.value.DoubleValue
1.020

@<SCITEGIC>MOL_PROPERTY
VdW
SciTegic.value.DoubleValue
1.048

@<SCITEGIC>MOL_PROPERTY
VdW6
SciTegic.value.DoubleValue
-8.312

@<SCITEGIC>MOL_PROPERTY
VdW12
SciTegic.value.DoubleValue
9.360

@<SCITEGIC>MOL_PROPERTY
Bond
SciTegic.value.DoubleValue
0.212

@<SCITEGIC>MOL_PROPERTY
Angle
SciTegic.value.DoubleValue
3.379

@<SCITEGIC>MOL_PROPERTY
Pdih
SciTegic.value.DoubleValue
5.211

@<SCITEGIC>MOL_PROPERTY
Idih
SciTegic.value.DoubleValue
0.001

@<SCITEGIC>MOL_PROPERTY
Tether
SciTegic.value.DoubleValue
0.000

@<TRIPOS>MOLECULE
guest-s22_confgen4.mol2 : confsearch ligand conformer 814
          20          19           1
SMALL
USER_CHARGES
 
@<TRIPOS>ATOM
       1    C1      20.275102   17.568254   24.473289 C.2        1 MOL1        -0.2535
       2    H1      21.208737   17.407115   23.938819 H          1 MOL1         0.0845
       3    H2      19.994077   16.821140   25.213404 H          1 MOL1         0.0845
       4    C2      19.499986   18.634390   24.247007 C.2        1 MOL1        -0.1324
       5    H3      18.575609   18.749644   24.812292 H          1 MOL1         0.0833
       6    C3      19.765165   19.745992   23.245053 C.3        1 MOL1        -0.1813
       7    H4      20.204449   20.600747   23.775925 H          1 MOL1         0.0753
       8    H5      18.806153   20.118082   22.862399 H          1 MOL1         0.0753
       9    C4      20.671116   19.372186   22.042849 C.3        1 MOL1        -0.1855
      10    H6      20.842389   20.274782   21.440500 H          1 MOL1         0.0755
      11    H7      21.660809   19.071835   22.411114 H          1 MOL1         0.0755
      12    C5      20.105489   18.256813   21.124772 C.3        1 MOL1        -0.1855
      13    H8      19.997934   17.326523   21.697089 H          1 MOL1         0.0755
      14    H9      20.839759   18.045344   20.335375 H          1 MOL1         0.0755
      15    C6      18.744610   18.598787   20.458901 C.3        1 MOL1        -0.1958
      16    H10     18.423543   17.755439   19.836609 H          1 MOL1         0.0753
      17    H11     17.967074   18.735917   21.218924 H          1 MOL1         0.0753
      18    C7      18.780049   19.835154   19.565276 C.2        1 MOL1         0.6174
      19    O1      18.221455   20.842655   19.952667 O.co2      1 MOL1        -0.6695
      20    O2      19.351063   19.751989   18.495447 O.co2      1 MOL1        -0.6695
@<TRIPOS>BOND
    1     1     2    1
    2     1     3    1
    3     1     4    2
    4     4     5    1
    5     4     6    1
    6     6     7    1
    7     6     8    1
    8     6     9    1
    9     9    10    1
   10     9    11    1
   11     9    12    1
   12    12    13    1
   13    12    14    1
   14    12    15    1
   15    15    16    1
   16    15    17    1
   17    15    18    1
   18    18    19    1
   19    18    20    2
@<TRIPOS>SUBSTRUCTURE
       1 MOL1            1 RESIDUE      1      MOL     
@<SCITEGIC>MOL_PROPERTY
VConf Rank
SciTegic.value.IntegerValue
814

@<SCITEGIC>MOL_PROPERTY
Conf_Id
SciTegic.value.IntegerValue
66

@<SCITEGIC>MOL_PROPERTY
Delta U+W
SciTegic.value.DoubleValue
1.737

@<SCITEGIC>MOL_PROPERTY
U+W
SciTegic.value.DoubleValue
-50.008

@<SCITEGIC>MOL_PROPERTY
Grad RMS
SciTegic.value.DoubleValue
0.000000

@<SCITEGIC>MOL_PROPERTY
U
SciTegic.value.DoubleValue
11.091

@<SCITEGIC>MOL_PROPERTY
W
SciTegic.value.DoubleValue
-61.099

@<SCITEGIC>MOL_PROPERTY
W(PB)
SciTegic.value.DoubleValue
-63.213

@<SCITEGIC>MOL_PROPERTY
W(SA)
SciTegic.value.DoubleValue
2.114

@<SCITEGIC>MOL_PROPERTY
Valence
SciTegic.value.DoubleValue
9.664

@<SCITEGIC>MOL_PROPERTY
Coulomb
SciTegic.value.DoubleValue
0.658

@<SCITEGIC>MOL_PROPERTY
VdW
SciTegic.value.DoubleValue
0.769

@<SCITEGIC>MOL_PROPERTY
VdW6
SciTegic.value.DoubleValue
-9.171

@<SCITEGIC>MOL_PROPERTY
VdW12
SciTegic.value.DoubleValue
9.940

@<SCITEGIC>MOL_PROPERTY
Bond
SciTegic.value.DoubleValue
0.244

@<SCITEGIC>MOL_PROPERTY
Angle
SciTegic.value.DoubleValue
3.658

@<SCITEGIC>MOL_PROPERTY
Pdih
SciTegic.value.DoubleValue
5.762

@<SCITEGIC>MOL_PROPERTY
Idih
SciTegic.value.DoubleValue
0.001

@<SCITEGIC>MOL_PROPERTY
Tether
SciTegic.value.DoubleValue
0.000

@<TRIPOS>MOLECULE
guest-s22_confgen4.mol2 : confsearch ligand conformer 815
          20          19           1
SMALL
USER_CHARGES
 
@<TRIPOS>ATOM
       1    C1      20.013070   17.090062   20.154241 C.2        1 MOL1        -0.2535
       2    H1      20.434092   17.957147   19.650170 H          1 MOL1         0.0845
       3    H2      20.509170   16.135002   19.990898 H          1 MOL1         0.0845
       4    C2      18.932366   17.175512   20.937605 C.2        1 MOL1        -0.1324
       5    H3      18.551100   16.274051   21.416505 H          1 MOL1         0.0833
       6    C3      18.145325   18.435665   21.258821 C.3        1 MOL1        -0.1813
       7    H4      17.770662   18.367726   22.287734 H          1 MOL1         0.0753
       8    H5      17.243475   18.454195   20.632796 H          1 MOL1         0.0753
       9    C4      18.909761   19.774696   21.088668 C.3        1 MOL1        -0.1855
      10    H6      19.238134   19.877052   20.045985 H          1 MOL1         0.0755
      11    H7      18.209898   20.603580   21.261216 H          1 MOL1         0.0755
      12    C5      20.128062   19.949505   22.030944 C.3        1 MOL1        -0.1855
      13    H8      20.641606   20.884746   21.768692 H          1 MOL1         0.0755
      14    H9      20.854966   19.143381   21.865497 H          1 MOL1         0.0755
      15    C6      19.747705   19.996347   23.533626 C.3        1 MOL1        -0.1958
      16    H10     18.984049   20.763572   23.707830 H          1 MOL1         0.0753
      17    H11     19.326099   19.036856   23.853733 H          1 MOL1         0.0753
      18    C7      20.938974   20.303493   24.434061 C.2        1 MOL1         0.6174
      19    O1      21.578999   19.371252   24.879086 O.co2      1 MOL1        -0.6695
      20    O2      21.204586   21.468537   24.655546 O.co2      1 MOL1        -0.6695
@<TRIPOS>BOND
    1     1     2    1
    2     1     3    1
    3     1     4    2
    4     4     5    1
    5     4     6    1
    6     6     7    1
    7     6     8    1
    8     6     9    1
    9     9    10    1
   10     9    11    1
   11     9    12    1
   12    12    13    1
   13    12    14    1
   14    12    15    1
   15    15    16    1
   16    15    17    1
   17    15    18    1
   18    18    19    1
   19    18    20    2
@<TRIPOS>SUBSTRUCTURE
       1 MOL1            1 RESIDUE      1      MOL     
@<SCITEGIC>MOL_PROPERTY
VConf Rank
SciTegic.value.IntegerValue
815

@<SCITEGIC>MOL_PROPERTY
Conf_Id
SciTegic.value.IntegerValue
64

@<SCITEGIC>MOL_PROPERTY
Delta U+W
SciTegic.value.DoubleValue
0.366

@<SCITEGIC>MOL_PROPERTY
U+W
SciTegic.value.DoubleValue
-51.379

@<SCITEGIC>MOL_PROPERTY
Grad RMS
SciTegic.value.DoubleValue
0.000000

@<SCITEGIC>MOL_PROPERTY
U
SciTegic.value.DoubleValue
10.000

@<SCITEGIC>MOL_PROPERTY
W
SciTegic.value.DoubleValue
-61.379

@<SCITEGIC>MOL_PROPERTY
W(PB)
SciTegic.value.DoubleValue
-63.541

@<SCITEGIC>MOL_PROPERTY
W(SA)
SciTegic.value.DoubleValue
2.162

@<SCITEGIC>MOL_PROPERTY
Valence
SciTegic.value.DoubleValue
9.398

@<SCITEGIC>MOL_PROPERTY
Coulomb
SciTegic.value.DoubleValue
-0.504

@<SCITEGIC>MOL_PROPERTY
VdW
SciTegic.value.DoubleValue
1.105

@<SCITEGIC>MOL_PROPERTY
VdW6
SciTegic.value.DoubleValue
-7.975

@<SCITEGIC>MOL_PROPERTY
VdW12
SciTegic.value.DoubleValue
9.080

@<SCITEGIC>MOL_PROPERTY
Bond
SciTegic.value.DoubleValue
0.216

@<SCITEGIC>MOL_PROPERTY
Angle
SciTegic.value.DoubleValue
3.417

@<SCITEGIC>MOL_PROPERTY
Pdih
SciTegic.value.DoubleValue
5.765

@<SCITEGIC>MOL_PROPERTY
Idih
SciTegic.value.DoubleValue
0.001

@<SCITEGIC>MOL_PROPERTY
Tether
SciTegic.value.DoubleValue
0.000

@<TRIPOS>MOLECULE
guest-s22_confgen4.mol2 : confsearch ligand conformer 816
          20          19           1
SMALL
USER_CHARGES
 
@<TRIPOS>ATOM
       1    C1      20.362139   16.316859   21.003130 C.2        1 MOL1        -0.2535
       2    H1      20.831770   16.088542   21.958502 H          1 MOL1         0.0845
       3    H2      20.815913   15.894874   20.108076 H          1 MOL1         0.0845
       4    C2      19.273922   17.087633   20.927598 C.2        1 MOL1        -0.1324
       5    H3      18.820669   17.306071   19.961037 H          1 MOL1         0.0833
       6    C3      18.588470   17.709217   22.125832 C.3        1 MOL1        -0.1813
       7    H4      18.977429   17.280334   23.059344 H          1 MOL1         0.0753
       8    H5      17.518641   17.463602   22.094466 H          1 MOL1         0.0753
       9    C4      18.746333   19.246069   22.159082 C.3        1 MOL1        -0.1855
      10    H6      18.357901   19.674857   21.225088 H          1 MOL1         0.0755
      11    H7      18.126485   19.648760   22.971801 H          1 MOL1         0.0755
      12    C5      20.211787   19.690624   22.369787 C.3        1 MOL1        -0.1855
      13    H8      20.838040   19.316283   21.548260 H          1 MOL1         0.0755
      14    H9      20.603608   19.246907   23.295465 H          1 MOL1         0.0755
      15    C6      20.341275   21.231891   22.445588 C.3        1 MOL1        -0.1958
      16    H10     19.965265   21.688924   21.522374 H          1 MOL1         0.0753
      17    H11     19.735250   21.622976   23.271586 H          1 MOL1         0.0753
      18    C7      21.778680   21.695552   22.652909 C.2        1 MOL1         0.6174
      19    O1      22.188864   21.800052   23.792022 O.co2      1 MOL1        -0.6695
      20    O2      22.454683   21.926585   21.669886 O.co2      1 MOL1        -0.6695
@<TRIPOS>BOND
    1     1     2    1
    2     1     3    1
    3     1     4    2
    4     4     5    1
    5     4     6    1
    6     6     7    1
    7     6     8    1
    8     6     9    1
    9     9    10    1
   10     9    11    1
   11     9    12    1
   12    12    13    1
   13    12    14    1
   14    12    15    1
   15    15    16    1
   16    15    17    1
   17    15    18    1
   18    18    19    1
   19    18    20    2
@<TRIPOS>SUBSTRUCTURE
       1 MOL1            1 RESIDUE      1      MOL     
@<SCITEGIC>MOL_PROPERTY
VConf Rank
SciTegic.value.IntegerValue
816

@<SCITEGIC>MOL_PROPERTY
Conf_Id
SciTegic.value.IntegerValue
42

@<SCITEGIC>MOL_PROPERTY
Delta U+W
SciTegic.value.DoubleValue
-0.601

@<SCITEGIC>MOL_PROPERTY
U+W
SciTegic.value.DoubleValue
-52.347

@<SCITEGIC>MOL_PROPERTY
Grad RMS
SciTegic.value.DoubleValue
0.000000

@<SCITEGIC>MOL_PROPERTY
U
SciTegic.value.DoubleValue
8.428

@<SCITEGIC>MOL_PROPERTY
W
SciTegic.value.DoubleValue
-60.774

@<SCITEGIC>MOL_PROPERTY
W(PB)
SciTegic.value.DoubleValue
-62.982

@<SCITEGIC>MOL_PROPERTY
W(SA)
SciTegic.value.DoubleValue
2.208

@<SCITEGIC>MOL_PROPERTY
Valence
SciTegic.value.DoubleValue
9.231

@<SCITEGIC>MOL_PROPERTY
Coulomb
SciTegic.value.DoubleValue
-1.304

@<SCITEGIC>MOL_PROPERTY
VdW
SciTegic.value.DoubleValue
0.501

@<SCITEGIC>MOL_PROPERTY
VdW6
SciTegic.value.DoubleValue
-6.515

@<SCITEGIC>MOL_PROPERTY
VdW12
SciTegic.value.DoubleValue
7.016

@<SCITEGIC>MOL_PROPERTY
Bond
SciTegic.value.DoubleValue
0.103

@<SCITEGIC>MOL_PROPERTY
Angle
SciTegic.value.DoubleValue
2.328

@<SCITEGIC>MOL_PROPERTY
Pdih
SciTegic.value.DoubleValue
6.799

@<SCITEGIC>MOL_PROPERTY
Idih
SciTegic.value.DoubleValue
0.000

@<SCITEGIC>MOL_PROPERTY
Tether
SciTegic.value.DoubleValue
0.000

@<TRIPOS>MOLECULE
guest-s22_confgen4.mol2 : confsearch ligand conformer 817
          20          19           1
SMALL
USER_CHARGES
 
@<TRIPOS>ATOM
       1    C1      21.650340   19.939660   19.897051 C.2        1 MOL1        -0.2535
       2    H1      21.328963   19.134578   19.238299 H          1 MOL1         0.0845
       3    H2      22.713161   20.174104   19.920362 H          1 MOL1         0.0845
       4    C2      20.778233   20.613226   20.651878 C.2        1 MOL1        -0.1324
       5    H3      21.121001   21.413836   21.306813 H          1 MOL1         0.0833
       6    C3      19.288637   20.343947   20.674180 C.3        1 MOL1        -0.1813
       7    H4      19.005268   19.669200   19.855017 H          1 MOL1         0.0753
       8    H5      18.751102   21.285481   20.499884 H          1 MOL1         0.0753
       9    C4      18.822052   19.745948   22.020529 C.3        1 MOL1        -0.1855
      10    H6      19.100490   20.425642   22.837736 H          1 MOL1         0.0755
      11    H7      17.725095   19.687462   22.022399 H          1 MOL1         0.0755
      12    C5      19.406778   18.337889   22.282706 C.3        1 MOL1        -0.1855
      13    H8      20.503571   18.388836   22.325173 H          1 MOL1         0.0755
      14    H9      19.154403   17.678962   21.441069 H          1 MOL1         0.0755
      15    C6      18.874222   17.706359   23.595099 C.3        1 MOL1        -0.1958
      16    H10     17.778263   17.669063   23.580650 H          1 MOL1         0.0753
      17    H11     19.226094   16.670882   23.672315 H          1 MOL1         0.0753
      18    C7      19.319761   18.436092   24.859139 C.2        1 MOL1         0.6174
      19    O1      18.518349   19.156942   25.420636 O.co2      1 MOL1        -0.6695
      20    O2      20.452185   18.249442   25.258979 O.co2      1 MOL1        -0.6695
@<TRIPOS>BOND
    1     1     2    1
    2     1     3    1
    3     1     4    2
    4     4     5    1
    5     4     6    1
    6     6     7    1
    7     6     8    1
    8     6     9    1
    9     9    10    1
   10     9    11    1
   11     9    12    1
   12    12    13    1
   13    12    14    1
   14    12    15    1
   15    15    16    1
   16    15    17    1
   17    15    18    1
   18    18    19    1
   19    18    20    2
@<TRIPOS>SUBSTRUCTURE
       1 MOL1            1 RESIDUE      1      MOL     
@<SCITEGIC>MOL_PROPERTY
VConf Rank
SciTegic.value.IntegerValue
817

@<SCITEGIC>MOL_PROPERTY
Conf_Id
SciTegic.value.IntegerValue
68

@<SCITEGIC>MOL_PROPERTY
Delta U+W
SciTegic.value.DoubleValue
0.492

@<SCITEGIC>MOL_PROPERTY
U+W
SciTegic.value.DoubleValue
-51.253

@<SCITEGIC>MOL_PROPERTY
Grad RMS
SciTegic.value.DoubleValue
0.000000

@<SCITEGIC>MOL_PROPERTY
U
SciTegic.value.DoubleValue
10.179

@<SCITEGIC>MOL_PROPERTY
W
SciTegic.value.DoubleValue
-61.432

@<SCITEGIC>MOL_PROPERTY
W(PB)
SciTegic.value.DoubleValue
-63.627

@<SCITEGIC>MOL_PROPERTY
W(SA)
SciTegic.value.DoubleValue
2.195

@<SCITEGIC>MOL_PROPERTY
Valence
SciTegic.value.DoubleValue
9.483

@<SCITEGIC>MOL_PROPERTY
Coulomb
SciTegic.value.DoubleValue
0.361

@<SCITEGIC>MOL_PROPERTY
VdW
SciTegic.value.DoubleValue
0.335

@<SCITEGIC>MOL_PROPERTY
VdW6
SciTegic.value.DoubleValue
-7.385

@<SCITEGIC>MOL_PROPERTY
VdW12
SciTegic.value.DoubleValue
7.720

@<SCITEGIC>MOL_PROPERTY
Bond
SciTegic.value.DoubleValue
0.125

@<SCITEGIC>MOL_PROPERTY
Angle
SciTegic.value.DoubleValue
2.487

@<SCITEGIC>MOL_PROPERTY
Pdih
SciTegic.value.DoubleValue
6.870

@<SCITEGIC>MOL_PROPERTY
Idih
SciTegic.value.DoubleValue
0.001

@<SCITEGIC>MOL_PROPERTY
Tether
SciTegic.value.DoubleValue
0.000

@<TRIPOS>MOLECULE
guest-s22_confgen4.mol2 : confsearch ligand conformer 818
          20          19           1
SMALL
USER_CHARGES
 
@<TRIPOS>ATOM
       1    C1      21.214865   16.493037   21.626779 C.2        1 MOL1        -0.2535
       2    H1      21.072222   16.315285   20.562097 H          1 MOL1         0.0845
       3    H2      21.286109   15.621480   22.275231 H          1 MOL1         0.0845
       4    C2      21.296211   17.730521   22.122473 C.2        1 MOL1        -0.1324
       5    H3      21.441831   17.885839   23.191078 H          1 MOL1         0.0833
       6    C3      21.211778   18.987219   21.282614 C.3        1 MOL1        -0.1813
       7    H4      21.415175   18.744338   20.230874 H          1 MOL1         0.0753
       8    H5      21.991895   19.696108   21.590655 H          1 MOL1         0.0753
       9    C4      19.825665   19.664213   21.375097 C.3        1 MOL1        -0.1855
      10    H6      19.784646   20.487958   20.649488 H          1 MOL1         0.0755
      11    H7      19.049717   18.945591   21.076624 H          1 MOL1         0.0755
      12    C5      19.518933   20.216247   22.787508 C.3        1 MOL1        -0.1855
      13    H8      20.326176   20.894733   23.094632 H          1 MOL1         0.0755
      14    H9      19.500563   19.394934   23.516839 H          1 MOL1         0.0755
      15    C6      18.170128   20.979084   22.847977 C.3        1 MOL1        -0.1958
      16    H10     18.057329   21.446150   23.833438 H          1 MOL1         0.0753
      17    H11     18.159236   21.789737   22.109406 H          1 MOL1         0.0753
      18    C7      16.947474   20.095155   22.618576 C.2        1 MOL1         0.6174
      19    O1      16.568515   19.393349   23.535618 O.co2      1 MOL1        -0.6695
      20    O2      16.395007   20.145812   21.537217 O.co2      1 MOL1        -0.6695
@<TRIPOS>BOND
    1     1     2    1
    2     1     3    1
    3     1     4    2
    4     4     5    1
    5     4     6    1
    6     6     7    1
    7     6     8    1
    8     6     9    1
    9     9    10    1
   10     9    11    1
   11     9    12    1
   12    12    13    1
   13    12    14    1
   14    12    15    1
   15    15    16    1
   16    15    17    1
   17    15    18    1
   18    18    19    1
   19    18    20    2
@<TRIPOS>SUBSTRUCTURE
       1 MOL1            1 RESIDUE      1      MOL     
@<SCITEGIC>MOL_PROPERTY
VConf Rank
SciTegic.value.IntegerValue
818

@<SCITEGIC>MOL_PROPERTY
Conf_Id
SciTegic.value.IntegerValue
87

@<SCITEGIC>MOL_PROPERTY
Delta U+W
SciTegic.value.DoubleValue
0.339

@<SCITEGIC>MOL_PROPERTY
U+W
SciTegic.value.DoubleValue
-51.407

@<SCITEGIC>MOL_PROPERTY
Grad RMS
SciTegic.value.DoubleValue
0.000000

@<SCITEGIC>MOL_PROPERTY
U
SciTegic.value.DoubleValue
10.461

@<SCITEGIC>MOL_PROPERTY
W
SciTegic.value.DoubleValue
-61.867

@<SCITEGIC>MOL_PROPERTY
W(PB)
SciTegic.value.DoubleValue
-64.045

@<SCITEGIC>MOL_PROPERTY
W(SA)
SciTegic.value.DoubleValue
2.178

@<SCITEGIC>MOL_PROPERTY
Valence
SciTegic.value.DoubleValue
9.555

@<SCITEGIC>MOL_PROPERTY
Coulomb
SciTegic.value.DoubleValue
0.483

@<SCITEGIC>MOL_PROPERTY
VdW
SciTegic.value.DoubleValue
0.423

@<SCITEGIC>MOL_PROPERTY
VdW6
SciTegic.value.DoubleValue
-7.223

@<SCITEGIC>MOL_PROPERTY
VdW12
SciTegic.value.DoubleValue
7.646

@<SCITEGIC>MOL_PROPERTY
Bond
SciTegic.value.DoubleValue
0.126

@<SCITEGIC>MOL_PROPERTY
Angle
SciTegic.value.DoubleValue
2.492

@<SCITEGIC>MOL_PROPERTY
Pdih
SciTegic.value.DoubleValue
6.936

@<SCITEGIC>MOL_PROPERTY
Idih
SciTegic.value.DoubleValue
0.001

@<SCITEGIC>MOL_PROPERTY
Tether
SciTegic.value.DoubleValue
0.000

@<TRIPOS>MOLECULE
guest-s22_confgen4.mol2 : confsearch ligand conformer 819
          20          19           1
SMALL
USER_CHARGES
 
@<TRIPOS>ATOM
       1    C1      22.166528   19.994732   22.401235 C.2        1 MOL1        -0.2535
       2    H1      22.719810   19.677565   21.518794 H          1 MOL1         0.0845
       3    H2      22.402733   20.972421   22.817590 H          1 MOL1         0.0845
       4    C2      21.231391   19.216546   22.952287 C.2        1 MOL1        -0.1324
       5    H3      20.694731   19.547675   23.840622 H          1 MOL1         0.0833
       6    C3      20.861236   17.843040   22.434528 C.3        1 MOL1        -0.1813
       7    H4      20.348286   17.267248   23.216372 H          1 MOL1         0.0753
       8    H5      21.786400   17.292195   22.217619 H          1 MOL1         0.0753
       9    C4      19.997989   17.877575   21.148923 C.3        1 MOL1        -0.1855
      10    H6      20.415366   18.601207   20.435419 H          1 MOL1         0.0755
      11    H7      20.077658   16.895590   20.663029 H          1 MOL1         0.0755
      12    C5      18.493324   18.166157   21.380880 C.3        1 MOL1        -0.1855
      13    H8      18.082817   17.449394   22.105294 H          1 MOL1         0.0755
      14    H9      17.959219   17.989018   20.437035 H          1 MOL1         0.0755
      15    C6      18.186849   19.611326   21.850797 C.3        1 MOL1        -0.1958
      16    H10     18.577999   19.779212   22.859209 H          1 MOL1         0.0753
      17    H11     18.670826   20.337270   21.186647 H          1 MOL1         0.0753
      18    C7      16.693904   19.917643   21.881025 C.2        1 MOL1         0.6174
      19    O1      16.076567   19.665931   22.897107 O.co2      1 MOL1        -0.6695
      20    O2      16.182721   20.380563   20.880385 O.co2      1 MOL1        -0.6695
@<TRIPOS>BOND
    1     1     2    1
    2     1     3    1
    3     1     4    2
    4     4     5    1
    5     4     6    1
    6     6     7    1
    7     6     8    1
    8     6     9    1
    9     9    10    1
   10     9    11    1
   11     9    12    1
   12    12    13    1
   13    12    14    1
   14    12    15    1
   15    15    16    1
   16    15    17    1
   17    15    18    1
   18    18    19    1
   19    18    20    2
@<TRIPOS>SUBSTRUCTURE
       1 MOL1            1 RESIDUE      1      MOL     
@<SCITEGIC>MOL_PROPERTY
VConf Rank
SciTegic.value.IntegerValue
819

@<SCITEGIC>MOL_PROPERTY
Conf_Id
SciTegic.value.IntegerValue
51

@<SCITEGIC>MOL_PROPERTY
Delta U+W
SciTegic.value.DoubleValue
1.709

@<SCITEGIC>MOL_PROPERTY
U+W
SciTegic.value.DoubleValue
-50.036

@<SCITEGIC>MOL_PROPERTY
Grad RMS
SciTegic.value.DoubleValue
0.000000

@<SCITEGIC>MOL_PROPERTY
U
SciTegic.value.DoubleValue
10.643

@<SCITEGIC>MOL_PROPERTY
W
SciTegic.value.DoubleValue
-60.679

@<SCITEGIC>MOL_PROPERTY
W(PB)
SciTegic.value.DoubleValue
-62.882

@<SCITEGIC>MOL_PROPERTY
W(SA)
SciTegic.value.DoubleValue
2.203

@<SCITEGIC>MOL_PROPERTY
Valence
SciTegic.value.DoubleValue
11.231

@<SCITEGIC>MOL_PROPERTY
Coulomb
SciTegic.value.DoubleValue
-1.077

@<SCITEGIC>MOL_PROPERTY
VdW
SciTegic.value.DoubleValue
0.489

@<SCITEGIC>MOL_PROPERTY
VdW6
SciTegic.value.DoubleValue
-7.546

@<SCITEGIC>MOL_PROPERTY
VdW12
SciTegic.value.DoubleValue
8.035

@<SCITEGIC>MOL_PROPERTY
Bond
SciTegic.value.DoubleValue
0.159

@<SCITEGIC>MOL_PROPERTY
Angle
SciTegic.value.DoubleValue
3.005

@<SCITEGIC>MOL_PROPERTY
Pdih
SciTegic.value.DoubleValue
8.065

@<SCITEGIC>MOL_PROPERTY
Idih
SciTegic.value.DoubleValue
0.002

@<SCITEGIC>MOL_PROPERTY
Tether
SciTegic.value.DoubleValue
0.000

@<TRIPOS>MOLECULE
guest-s22_confgen4.mol2 : confsearch ligand conformer 820
          20          19           1
SMALL
USER_CHARGES
 
@<TRIPOS>ATOM
       1    C1      21.842035   17.378078   22.173527 C.2        1 MOL1        -0.2535
       2    H1      22.356142   17.748597   23.058866 H          1 MOL1         0.0845
       3    H2      22.455821   17.003280   21.356328 H          1 MOL1         0.0845
       4    C2      20.509112   17.384639   22.089927 C.2        1 MOL1        -0.1324
       5    H3      20.012649   17.001285   21.199220 H          1 MOL1         0.0833
       6    C3      19.594948   17.878458   23.190857 C.3        1 MOL1        -0.1813
       7    H4      19.949531   17.469860   24.146747 H          1 MOL1         0.0753
       8    H5      18.582112   17.477113   23.052947 H          1 MOL1         0.0753
       9    C4      19.542285   19.422160   23.306538 C.3        1 MOL1        -0.1855
      10    H6      19.163424   19.672405   24.306827 H          1 MOL1         0.0755
      11    H7      20.558118   19.837539   23.256809 H          1 MOL1         0.0755
      12    C5      18.629211   20.123447   22.269427 C.3        1 MOL1        -0.1855
      13    H8      18.528766   21.179173   22.557250 H          1 MOL1         0.0755
      14    H9      17.618091   19.695854   22.312305 H          1 MOL1         0.0755
      15    C6      19.156294   20.063192   20.812779 C.3        1 MOL1        -0.1958
      16    H10     20.198828   20.400499   20.771931 H          1 MOL1         0.0753
      17    H11     19.130030   19.035785   20.436179 H          1 MOL1         0.0753
      18    C7      18.341223   20.923974   19.854481 C.2        1 MOL1         0.6174
      19    O1      17.372784   20.424622   19.316279 O.co2      1 MOL1        -0.6695
      20    O2      18.683840   22.077816   19.686715 O.co2      1 MOL1        -0.6695
@<TRIPOS>BOND
    1     1     2    1
    2     1     3    1
    3     1     4    2
    4     4     5    1
    5     4     6    1
    6     6     7    1
    7     6     8    1
    8     6     9    1
    9     9    10    1
   10     9    11    1
   11     9    12    1
   12    12    13    1
   13    12    14    1
   14    12    15    1
   15    15    16    1
   16    15    17    1
   17    15    18    1
   18    18    19    1
   19    18    20    2
@<TRIPOS>SUBSTRUCTURE
       1 MOL1            1 RESIDUE      1      MOL     
@<SCITEGIC>MOL_PROPERTY
VConf Rank
SciTegic.value.IntegerValue
820

@<SCITEGIC>MOL_PROPERTY
Conf_Id
SciTegic.value.IntegerValue
91

@<SCITEGIC>MOL_PROPERTY
Delta U+W
SciTegic.value.DoubleValue
1.604

@<SCITEGIC>MOL_PROPERTY
U+W
SciTegic.value.DoubleValue
-50.141

@<SCITEGIC>MOL_PROPERTY
Grad RMS
SciTegic.value.DoubleValue
0.000000

@<SCITEGIC>MOL_PROPERTY
U
SciTegic.value.DoubleValue
10.644

@<SCITEGIC>MOL_PROPERTY
W
SciTegic.value.DoubleValue
-60.786

@<SCITEGIC>MOL_PROPERTY
W(PB)
SciTegic.value.DoubleValue
-62.965

@<SCITEGIC>MOL_PROPERTY
W(SA)
SciTegic.value.DoubleValue
2.179

@<SCITEGIC>MOL_PROPERTY
Valence
SciTegic.value.DoubleValue
11.230

@<SCITEGIC>MOL_PROPERTY
Coulomb
SciTegic.value.DoubleValue
-1.075

@<SCITEGIC>MOL_PROPERTY
VdW
SciTegic.value.DoubleValue
0.489

@<SCITEGIC>MOL_PROPERTY
VdW6
SciTegic.value.DoubleValue
-7.547

@<SCITEGIC>MOL_PROPERTY
VdW12
SciTegic.value.DoubleValue
8.036

@<SCITEGIC>MOL_PROPERTY
Bond
SciTegic.value.DoubleValue
0.159

@<SCITEGIC>MOL_PROPERTY
Angle
SciTegic.value.DoubleValue
3.006

@<SCITEGIC>MOL_PROPERTY
Pdih
SciTegic.value.DoubleValue
8.064

@<SCITEGIC>MOL_PROPERTY
Idih
SciTegic.value.DoubleValue
0.002

@<SCITEGIC>MOL_PROPERTY
Tether
SciTegic.value.DoubleValue
0.000

@<TRIPOS>MOLECULE
guest-s22_confgen4.mol2 : confsearch ligand conformer 821
          20          19           1
SMALL
USER_CHARGES
 
@<TRIPOS>ATOM
       1    C1      16.878353   21.205637   21.381849 C.2        1 MOL1        -0.2535
       2    H1      17.132580   21.247507   20.323924 H          1 MOL1         0.0845
       3    H2      16.238701   21.994076   21.774897 H          1 MOL1         0.0845
       4    C2      17.333282   20.228593   22.170567 C.2        1 MOL1        -0.1324
       5    H3      17.067552   20.205487   23.227218 H          1 MOL1         0.0833
       6    C3      18.223313   19.101405   21.696295 C.3        1 MOL1        -0.1813
       7    H4      18.224554   19.053840   20.598779 H          1 MOL1         0.0753
       8    H5      17.824037   18.142706   22.053533 H          1 MOL1         0.0753
       9    C4      19.669057   19.281604   22.204452 C.3        1 MOL1        -0.1855
      10    H6      20.062154   20.243751   21.847894 H          1 MOL1         0.0755
      11    H7      19.667808   19.324523   23.302322 H          1 MOL1         0.0755
      12    C5      20.591438   18.136822   21.731374 C.3        1 MOL1        -0.1855
      13    H8      20.593588   18.093578   20.633345 H          1 MOL1         0.0755
      14    H9      20.198150   17.174191   22.086606 H          1 MOL1         0.0755
      15    C6      22.045558   18.318829   22.242068 C.3        1 MOL1        -0.1958
      16    H10     22.446642   19.274917   21.885782 H          1 MOL1         0.0753
      17    H11     22.051733   18.356416   23.337722 H          1 MOL1         0.0753
      18    C7      23.027675   17.225806   21.817728 C.2        1 MOL1         0.6174
      19    O1      24.175970   17.333402   22.199801 O.co2      1 MOL1        -0.6695
      20    O2      22.640928   16.302850   21.126911 O.co2      1 MOL1        -0.6695
@<TRIPOS>BOND
    1     1     2    1
    2     1     3    1
    3     1     4    2
    4     4     5    1
    5     4     6    1
    6     6     7    1
    7     6     8    1
    8     6     9    1
    9     9    10    1
   10     9    11    1
   11     9    12    1
   12    12    13    1
   13    12    14    1
   14    12    15    1
   15    15    16    1
   16    15    17    1
   17    15    18    1
   18    18    19    1
   19    18    20    2
@<TRIPOS>SUBSTRUCTURE
       1 MOL1            1 RESIDUE      1      MOL     
@<SCITEGIC>MOL_PROPERTY
VConf Rank
SciTegic.value.IntegerValue
821

@<SCITEGIC>MOL_PROPERTY
Conf_Id
SciTegic.value.IntegerValue
33

@<SCITEGIC>MOL_PROPERTY
Delta U+W
SciTegic.value.DoubleValue
0.000

@<SCITEGIC>MOL_PROPERTY
U+W
SciTegic.value.DoubleValue
-51.745

@<SCITEGIC>MOL_PROPERTY
Grad RMS
SciTegic.value.DoubleValue
0.000000

@<SCITEGIC>MOL_PROPERTY
U
SciTegic.value.DoubleValue
7.593

@<SCITEGIC>MOL_PROPERTY
W
SciTegic.value.DoubleValue
-59.338

@<SCITEGIC>MOL_PROPERTY
W(PB)
SciTegic.value.DoubleValue
-61.574

@<SCITEGIC>MOL_PROPERTY
W(SA)
SciTegic.value.DoubleValue
2.236

@<SCITEGIC>MOL_PROPERTY
Valence
SciTegic.value.DoubleValue
9.570

@<SCITEGIC>MOL_PROPERTY
Coulomb
SciTegic.value.DoubleValue
-3.091

@<SCITEGIC>MOL_PROPERTY
VdW
SciTegic.value.DoubleValue
1.114

@<SCITEGIC>MOL_PROPERTY
VdW6
SciTegic.value.DoubleValue
-6.064

@<SCITEGIC>MOL_PROPERTY
VdW12
SciTegic.value.DoubleValue
7.178

@<SCITEGIC>MOL_PROPERTY
Bond
SciTegic.value.DoubleValue
0.117

@<SCITEGIC>MOL_PROPERTY
Angle
SciTegic.value.DoubleValue
2.692

@<SCITEGIC>MOL_PROPERTY
Pdih
SciTegic.value.DoubleValue
6.761

@<SCITEGIC>MOL_PROPERTY
Idih
SciTegic.value.DoubleValue
0.000

@<SCITEGIC>MOL_PROPERTY
Tether
SciTegic.value.DoubleValue
0.000

@<TRIPOS>MOLECULE
guest-s22_confgen4.mol2 : confsearch ligand conformer 822
          20          19           1
SMALL
USER_CHARGES
 
@<TRIPOS>ATOM
       1    C1      20.330345   17.943591   18.509168 C.2        1 MOL1        -0.2535
       2    H1      19.258901   17.956260   18.315714 H          1 MOL1         0.0845
       3    H2      20.970921   17.495434   17.751489 H          1 MOL1         0.0845
       4    C2      20.842667   18.454449   19.631766 C.2        1 MOL1        -0.1324
       5    H3      21.918098   18.430984   19.806485 H          1 MOL1         0.0833
       6    C3      20.017208   19.092582   20.726812 C.3        1 MOL1        -0.1813
       7    H4      19.002611   19.304280   20.362981 H          1 MOL1         0.0753
       8    H5      20.464479   20.056884   20.999065 H          1 MOL1         0.0753
       9    C4      19.937832   18.175259   21.967790 C.3        1 MOL1        -0.1855
      10    H6      19.567157   17.189209   21.655303 H          1 MOL1         0.0755
      11    H7      20.946153   18.013327   22.372833 H          1 MOL1         0.0755
      12    C5      19.011169   18.720795   23.080384 C.3        1 MOL1        -0.1855
      13    H8      18.923088   17.961012   23.869350 H          1 MOL1         0.0755
      14    H9      17.998869   18.870730   22.680183 H          1 MOL1         0.0755
      15    C6      19.517863   20.041719   23.715519 C.3        1 MOL1        -0.1958
      16    H10     20.544203   19.916871   24.080789 H          1 MOL1         0.0753
      17    H11     19.532079   20.847329   22.972866 H          1 MOL1         0.0753
      18    C7      18.653364   20.503332   24.883219 C.2        1 MOL1         0.6174
      19    O1      17.703383   21.222603   24.644698 O.co2      1 MOL1        -0.6695
      20    O2      18.940974   20.115398   25.998353 O.co2      1 MOL1        -0.6695
@<TRIPOS>BOND
    1     1     2    1
    2     1     3    1
    3     1     4    2
    4     4     5    1
    5     4     6    1
    6     6     7    1
    7     6     8    1
    8     6     9    1
    9     9    10    1
   10     9    11    1
   11     9    12    1
   12    12    13    1
   13    12    14    1
   14    12    15    1
   15    15    16    1
   16    15    17    1
   17    15    18    1
   18    18    19    1
   19    18    20    2
@<TRIPOS>SUBSTRUCTURE
       1 MOL1            1 RESIDUE      1      MOL     
@<SCITEGIC>MOL_PROPERTY
VConf Rank
SciTegic.value.IntegerValue
822

@<SCITEGIC>MOL_PROPERTY
Conf_Id
SciTegic.value.IntegerValue
37

@<SCITEGIC>MOL_PROPERTY
Delta U+W
SciTegic.value.DoubleValue
-0.384

@<SCITEGIC>MOL_PROPERTY
U+W
SciTegic.value.DoubleValue
-52.130

@<SCITEGIC>MOL_PROPERTY
Grad RMS
SciTegic.value.DoubleValue
0.000000

@<SCITEGIC>MOL_PROPERTY
U
SciTegic.value.DoubleValue
7.491

@<SCITEGIC>MOL_PROPERTY
W
SciTegic.value.DoubleValue
-59.621

@<SCITEGIC>MOL_PROPERTY
W(PB)
SciTegic.value.DoubleValue
-61.853

@<SCITEGIC>MOL_PROPERTY
W(SA)
SciTegic.value.DoubleValue
2.232

@<SCITEGIC>MOL_PROPERTY
Valence
SciTegic.value.DoubleValue
9.604

@<SCITEGIC>MOL_PROPERTY
Coulomb
SciTegic.value.DoubleValue
-2.799

@<SCITEGIC>MOL_PROPERTY
VdW
SciTegic.value.DoubleValue
0.686

@<SCITEGIC>MOL_PROPERTY
VdW6
SciTegic.value.DoubleValue
-6.435

@<SCITEGIC>MOL_PROPERTY
VdW12
SciTegic.value.DoubleValue
7.121

@<SCITEGIC>MOL_PROPERTY
Bond
SciTegic.value.DoubleValue
0.124

@<SCITEGIC>MOL_PROPERTY
Angle
SciTegic.value.DoubleValue
2.493

@<SCITEGIC>MOL_PROPERTY
Pdih
SciTegic.value.DoubleValue
6.986

@<SCITEGIC>MOL_PROPERTY
Idih
SciTegic.value.DoubleValue
0.001

@<SCITEGIC>MOL_PROPERTY
Tether
SciTegic.value.DoubleValue
0.000

@<TRIPOS>MOLECULE
guest-s22_confgen4.mol2 : confsearch ligand conformer 823
          20          19           1
SMALL
USER_CHARGES
 
@<TRIPOS>ATOM
       1    C1      17.813202   17.866500   24.350960 C.2        1 MOL1        -0.2535
       2    H1      17.158890   17.488688   25.134748 H          1 MOL1         0.0845
       3    H2      18.765271   18.287508   24.666972 H          1 MOL1         0.0845
       4    C2      17.445290   17.806711   23.066055 C.2        1 MOL1        -0.1324
       5    H3      16.478347   17.373378   22.811358 H          1 MOL1         0.0833
       6    C3      18.245836   18.290210   21.868404 C.3        1 MOL1        -0.1813
       7    H4      17.645938   19.026597   21.317051 H          1 MOL1         0.0753
       8    H5      18.389990   17.448825   21.177444 H          1 MOL1         0.0753
       9    C4      19.621951   18.909130   22.207859 C.3        1 MOL1        -0.1855
      10    H6      19.483025   19.764940   22.882675 H          1 MOL1         0.0755
      11    H7      20.235141   18.170056   22.741577 H          1 MOL1         0.0755
      12    C5      20.369205   19.373801   20.938720 C.3        1 MOL1        -0.1855
      13    H8      19.760732   20.113530   20.400047 H          1 MOL1         0.0755
      14    H9      20.511301   18.521907   20.259242 H          1 MOL1         0.0755
      15    C6      21.747523   19.993940   21.275991 C.3        1 MOL1        -0.1958
      16    H10     21.622377   20.854923   21.943562 H          1 MOL1         0.0753
      17    H11     22.372929   19.263259   21.802844 H          1 MOL1         0.0753
      18    C7      22.505337   20.460708   20.038319 C.2        1 MOL1         0.6174
      19    O1      22.327284   21.599049   19.652151 O.co2      1 MOL1        -0.6695
      20    O2      23.238493   19.667480   19.481615 O.co2      1 MOL1        -0.6695
@<TRIPOS>BOND
    1     1     2    1
    2     1     3    1
    3     1     4    2
    4     4     5    1
    5     4     6    1
    6     6     7    1
    7     6     8    1
    8     6     9    1
    9     9    10    1
   10     9    11    1
   11     9    12    1
   12    12    13    1
   13    12    14    1
   14    12    15    1
   15    15    16    1
   16    15    17    1
   17    15    18    1
   18    18    19    1
   19    18    20    2
@<TRIPOS>SUBSTRUCTURE
       1 MOL1            1 RESIDUE      1      MOL     
@<SCITEGIC>MOL_PROPERTY
VConf Rank
SciTegic.value.IntegerValue
823

@<SCITEGIC>MOL_PROPERTY
Conf_Id
SciTegic.value.IntegerValue
44

@<SCITEGIC>MOL_PROPERTY
Delta U+W
SciTegic.value.DoubleValue
-1.440

@<SCITEGIC>MOL_PROPERTY
U+W
SciTegic.value.DoubleValue
-53.185

@<SCITEGIC>MOL_PROPERTY
Grad RMS
SciTegic.value.DoubleValue
0.000000

@<SCITEGIC>MOL_PROPERTY
U
SciTegic.value.DoubleValue
6.572

@<SCITEGIC>MOL_PROPERTY
W
SciTegic.value.DoubleValue
-59.757

@<SCITEGIC>MOL_PROPERTY
W(PB)
SciTegic.value.DoubleValue
-62.007

@<SCITEGIC>MOL_PROPERTY
W(SA)
SciTegic.value.DoubleValue
2.249

@<SCITEGIC>MOL_PROPERTY
Valence
SciTegic.value.DoubleValue
7.989

@<SCITEGIC>MOL_PROPERTY
Coulomb
SciTegic.value.DoubleValue
-2.697

@<SCITEGIC>MOL_PROPERTY
VdW
SciTegic.value.DoubleValue
1.281

@<SCITEGIC>MOL_PROPERTY
VdW6
SciTegic.value.DoubleValue
-6.467

@<SCITEGIC>MOL_PROPERTY
VdW12
SciTegic.value.DoubleValue
7.748

@<SCITEGIC>MOL_PROPERTY
Bond
SciTegic.value.DoubleValue
0.136

@<SCITEGIC>MOL_PROPERTY
Angle
SciTegic.value.DoubleValue
2.854

@<SCITEGIC>MOL_PROPERTY
Pdih
SciTegic.value.DoubleValue
4.997

@<SCITEGIC>MOL_PROPERTY
Idih
SciTegic.value.DoubleValue
0.001

@<SCITEGIC>MOL_PROPERTY
Tether
SciTegic.value.DoubleValue
0.000

@<TRIPOS>MOLECULE
guest-s22_confgen4.mol2 : confsearch ligand conformer 824
          20          19           1
SMALL
USER_CHARGES
 
@<TRIPOS>ATOM
       1    C1      23.147666   18.530787   21.259374 C.2        1 MOL1        -0.2535
       2    H1      23.091891   18.068995   22.243861 H          1 MOL1         0.0845
       3    H2      24.138618   18.730939   20.855384 H          1 MOL1         0.0845
       4    C2      22.046095   18.843537   20.572027 C.2        1 MOL1        -0.1324
       5    H3      22.124016   19.305831   19.588235 H          1 MOL1         0.0833
       6    C3      20.638624   18.594806   21.067059 C.3        1 MOL1        -0.1813
       7    H4      20.659305   17.897142   21.914075 H          1 MOL1         0.0753
       8    H5      20.050709   18.113825   20.273999 H          1 MOL1         0.0753
       9    C4      19.956995   19.915956   21.488850 C.3        1 MOL1        -0.1855
      10    H6      20.515666   20.368949   22.319438 H          1 MOL1         0.0755
      11    H7      20.012931   20.627340   20.653453 H          1 MOL1         0.0755
      12    C5      18.472798   19.744218   21.891326 C.3        1 MOL1        -0.1855
      13    H8      17.910804   19.300174   21.058044 H          1 MOL1         0.0755
      14    H9      18.037563   20.738371   22.063756 H          1 MOL1         0.0755
      15    C6      18.272622   18.885417   23.167041 C.3        1 MOL1        -0.1958
      16    H10     18.613810   17.857769   22.999014 H          1 MOL1         0.0753
      17    H11     18.864156   19.293969   23.995033 H          1 MOL1         0.0753
      18    C7      16.816028   18.822816   23.612402 C.2        1 MOL1         0.6174
      19    O1      16.416359   19.668981   24.387647 O.co2      1 MOL1        -0.6695
      20    O2      16.114129   17.941525   23.157017 O.co2      1 MOL1        -0.6695
@<TRIPOS>BOND
    1     1     2    1
    2     1     3    1
    3     1     4    2
    4     4     5    1
    5     4     6    1
    6     6     7    1
    7     6     8    1
    8     6     9    1
    9     9    10    1
   10     9    11    1
   11     9    12    1
   12    12    13    1
   13    12    14    1
   14    12    15    1
   15    15    16    1
   16    15    17    1
   17    15    18    1
   18    18    19    1
   19    18    20    2
@<TRIPOS>SUBSTRUCTURE
       1 MOL1            1 RESIDUE      1      MOL     
@<SCITEGIC>MOL_PROPERTY
VConf Rank
SciTegic.value.IntegerValue
824

@<SCITEGIC>MOL_PROPERTY
Conf_Id
SciTegic.value.IntegerValue
38

@<SCITEGIC>MOL_PROPERTY
Delta U+W
SciTegic.value.DoubleValue
-0.381

@<SCITEGIC>MOL_PROPERTY
U+W
SciTegic.value.DoubleValue
-52.126

@<SCITEGIC>MOL_PROPERTY
Grad RMS
SciTegic.value.DoubleValue
0.000000

@<SCITEGIC>MOL_PROPERTY
U
SciTegic.value.DoubleValue
7.601

@<SCITEGIC>MOL_PROPERTY
W
SciTegic.value.DoubleValue
-59.727

@<SCITEGIC>MOL_PROPERTY
W(PB)
SciTegic.value.DoubleValue
-61.964

@<SCITEGIC>MOL_PROPERTY
W(SA)
SciTegic.value.DoubleValue
2.236

@<SCITEGIC>MOL_PROPERTY
Valence
SciTegic.value.DoubleValue
9.602

@<SCITEGIC>MOL_PROPERTY
Coulomb
SciTegic.value.DoubleValue
-2.686

@<SCITEGIC>MOL_PROPERTY
VdW
SciTegic.value.DoubleValue
0.685

@<SCITEGIC>MOL_PROPERTY
VdW6
SciTegic.value.DoubleValue
-6.453

@<SCITEGIC>MOL_PROPERTY
VdW12
SciTegic.value.DoubleValue
7.139

@<SCITEGIC>MOL_PROPERTY
Bond
SciTegic.value.DoubleValue
0.125

@<SCITEGIC>MOL_PROPERTY
Angle
SciTegic.value.DoubleValue
2.485

@<SCITEGIC>MOL_PROPERTY
Pdih
SciTegic.value.DoubleValue
6.991

@<SCITEGIC>MOL_PROPERTY
Idih
SciTegic.value.DoubleValue
0.001

@<SCITEGIC>MOL_PROPERTY
Tether
SciTegic.value.DoubleValue
0.000

@<TRIPOS>MOLECULE
guest-s22_confgen4.mol2 : confsearch ligand conformer 825
          20          19           1
SMALL
USER_CHARGES
 
@<TRIPOS>ATOM
       1    C1      18.470192   22.023957   20.204799 C.2        1 MOL1        -0.2535
       2    H1      17.831763   21.401070   19.580301 H          1 MOL1         0.0845
       3    H2      18.211784   23.078027   20.291000 H          1 MOL1         0.0845
       4    C2      19.528428   21.518374   20.843693 C.2        1 MOL1        -0.1324
       5    H3      20.154179   22.158973   21.464764 H          1 MOL1         0.0833
       6    C3      19.948883   20.067300   20.771245 C.3        1 MOL1        -0.1813
       7    H4      21.024588   20.006728   20.558369 H          1 MOL1         0.0753
       8    H5      19.433586   19.563029   19.942438 H          1 MOL1         0.0753
       9    C4      19.641147   19.331474   22.092181 C.3        1 MOL1        -0.1855
      10    H6      20.159550   19.836375   22.919082 H          1 MOL1         0.0755
      11    H7      18.565112   19.398365   22.304180 H          1 MOL1         0.0755
      12    C5      20.067641   17.847127   22.036064 C.3        1 MOL1        -0.1855
      13    H8      21.145681   17.776789   21.834625 H          1 MOL1         0.0755
      14    H9      19.556590   17.354910   21.197534 H          1 MOL1         0.0755
      15    C6      19.738758   17.082376   23.344455 C.3        1 MOL1        -0.1958
      16    H10     18.669688   17.166853   23.574264 H          1 MOL1         0.0753
      17    H11     19.950958   16.015380   23.208563 H          1 MOL1         0.0753
      18    C7      20.536449   17.555455   24.556376 C.2        1 MOL1         0.6174
      19    O1      19.970127   18.236403   25.388578 O.co2      1 MOL1        -0.6695
      20    O2      21.701608   17.220266   24.640931 O.co2      1 MOL1        -0.6695
@<TRIPOS>BOND
    1     1     2    1
    2     1     3    1
    3     1     4    2
    4     4     5    1
    5     4     6    1
    6     6     7    1
    7     6     8    1
    8     6     9    1
    9     9    10    1
   10     9    11    1
   11     9    12    1
   12    12    13    1
   13    12    14    1
   14    12    15    1
   15    15    16    1
   16    15    17    1
   17    15    18    1
   18    18    19    1
   19    18    20    2
@<TRIPOS>SUBSTRUCTURE
       1 MOL1            1 RESIDUE      1      MOL     
@<SCITEGIC>MOL_PROPERTY
VConf Rank
SciTegic.value.IntegerValue
825

@<SCITEGIC>MOL_PROPERTY
Conf_Id
SciTegic.value.IntegerValue
58

@<SCITEGIC>MOL_PROPERTY
Delta U+W
SciTegic.value.DoubleValue
0.019

@<SCITEGIC>MOL_PROPERTY
U+W
SciTegic.value.DoubleValue
-51.727

@<SCITEGIC>MOL_PROPERTY
Grad RMS
SciTegic.value.DoubleValue
0.000000

@<SCITEGIC>MOL_PROPERTY
U
SciTegic.value.DoubleValue
8.963

@<SCITEGIC>MOL_PROPERTY
W
SciTegic.value.DoubleValue
-60.690

@<SCITEGIC>MOL_PROPERTY
W(PB)
SciTegic.value.DoubleValue
-62.934

@<SCITEGIC>MOL_PROPERTY
W(SA)
SciTegic.value.DoubleValue
2.244

@<SCITEGIC>MOL_PROPERTY
Valence
SciTegic.value.DoubleValue
9.327

@<SCITEGIC>MOL_PROPERTY
Coulomb
SciTegic.value.DoubleValue
-0.780

@<SCITEGIC>MOL_PROPERTY
VdW
SciTegic.value.DoubleValue
0.417

@<SCITEGIC>MOL_PROPERTY
VdW6
SciTegic.value.DoubleValue
-6.635

@<SCITEGIC>MOL_PROPERTY
VdW12
SciTegic.value.DoubleValue
7.052

@<SCITEGIC>MOL_PROPERTY
Bond
SciTegic.value.DoubleValue
0.105

@<SCITEGIC>MOL_PROPERTY
Angle
SciTegic.value.DoubleValue
2.399

@<SCITEGIC>MOL_PROPERTY
Pdih
SciTegic.value.DoubleValue
6.822

@<SCITEGIC>MOL_PROPERTY
Idih
SciTegic.value.DoubleValue
0.000

@<SCITEGIC>MOL_PROPERTY
Tether
SciTegic.value.DoubleValue
0.000

@<TRIPOS>MOLECULE
guest-s22_confgen4.mol2 : confsearch ligand conformer 826
          20          19           1
SMALL
USER_CHARGES
 
@<TRIPOS>ATOM
       1    C1      19.390627   15.811952   21.118918 C.2        1 MOL1        -0.2535
       2    H1      18.644716   16.036603   20.358178 H          1 MOL1         0.0845
       3    H2      19.417023   14.796288   21.510066 H          1 MOL1         0.0845
       4    C2      20.240112   16.743492   21.559682 C.2        1 MOL1        -0.1324
       5    H3      20.978717   16.498151   22.322526 H          1 MOL1         0.0833
       6    C3      20.263546   18.172219   21.063865 C.3        1 MOL1        -0.1813
       7    H4      19.679057   18.263102   20.138201 H          1 MOL1         0.0753
       8    H5      21.294549   18.458228   20.816161 H          1 MOL1         0.0753
       9    C4      19.699622   19.139684   22.125474 C.3        1 MOL1        -0.1855
      10    H6      18.670006   18.847555   22.374112 H          1 MOL1         0.0755
      11    H7      20.287337   19.048497   23.049437 H          1 MOL1         0.0755
      12    C5      19.719213   20.605281   21.635606 C.3        1 MOL1        -0.1855
      13    H8      19.142670   20.683480   20.703905 H          1 MOL1         0.0755
      14    H9      20.749283   20.904126   21.396140 H          1 MOL1         0.0755
      15    C6      19.127827   21.590126   22.677353 C.3        1 MOL1        -0.1958
      16    H10     19.056370   22.591178   22.236030 H          1 MOL1         0.0753
      17    H11     18.108570   21.288732   22.947789 H          1 MOL1         0.0753
      18    C7      19.954666   21.712375   23.954169 C.2        1 MOL1         0.6174
      19    O1      20.982618   22.359297   23.910547 O.co2      1 MOL1        -0.6695
      20    O2      19.544561   21.167832   24.960278 O.co2      1 MOL1        -0.6695
@<TRIPOS>BOND
    1     1     2    1
    2     1     3    1
    3     1     4    2
    4     4     5    1
    5     4     6    1
    6     6     7    1
    7     6     8    1
    8     6     9    1
    9     9    10    1
   10     9    11    1
   11     9    12    1
   12    12    13    1
   13    12    14    1
   14    12    15    1
   15    15    16    1
   16    15    17    1
   17    15    18    1
   18    18    19    1
   19    18    20    2
@<TRIPOS>SUBSTRUCTURE
       1 MOL1            1 RESIDUE      1      MOL     
@<SCITEGIC>MOL_PROPERTY
VConf Rank
SciTegic.value.IntegerValue
826

@<SCITEGIC>MOL_PROPERTY
Conf_Id
SciTegic.value.IntegerValue
54

@<SCITEGIC>MOL_PROPERTY
Delta U+W
SciTegic.value.DoubleValue
-0.048

@<SCITEGIC>MOL_PROPERTY
U+W
SciTegic.value.DoubleValue
-51.793

@<SCITEGIC>MOL_PROPERTY
Grad RMS
SciTegic.value.DoubleValue
0.000000

@<SCITEGIC>MOL_PROPERTY
U
SciTegic.value.DoubleValue
8.964

@<SCITEGIC>MOL_PROPERTY
W
SciTegic.value.DoubleValue
-60.756

@<SCITEGIC>MOL_PROPERTY
W(PB)
SciTegic.value.DoubleValue
-63.007

@<SCITEGIC>MOL_PROPERTY
W(SA)
SciTegic.value.DoubleValue
2.251

@<SCITEGIC>MOL_PROPERTY
Valence
SciTegic.value.DoubleValue
9.327

@<SCITEGIC>MOL_PROPERTY
Coulomb
SciTegic.value.DoubleValue
-0.780

@<SCITEGIC>MOL_PROPERTY
VdW
SciTegic.value.DoubleValue
0.417

@<SCITEGIC>MOL_PROPERTY
VdW6
SciTegic.value.DoubleValue
-6.635

@<SCITEGIC>MOL_PROPERTY
VdW12
SciTegic.value.DoubleValue
7.052

@<SCITEGIC>MOL_PROPERTY
Bond
SciTegic.value.DoubleValue
0.105

@<SCITEGIC>MOL_PROPERTY
Angle
SciTegic.value.DoubleValue
2.399

@<SCITEGIC>MOL_PROPERTY
Pdih
SciTegic.value.DoubleValue
6.822

@<SCITEGIC>MOL_PROPERTY
Idih
SciTegic.value.DoubleValue
0.000

@<SCITEGIC>MOL_PROPERTY
Tether
SciTegic.value.DoubleValue
0.000

@<TRIPOS>MOLECULE
guest-s22_confgen4.mol2 : confsearch ligand conformer 827
          20          19           1
SMALL
USER_CHARGES
 
@<TRIPOS>ATOM
       1    C1      18.256597   16.337300   20.761337 C.2        1 MOL1        -0.2535
       2    H1      18.436723   15.714525   19.886755 H          1 MOL1         0.0845
       3    H2      17.937378   15.838250   21.674878 H          1 MOL1         0.0845
       4    C2      18.424725   17.661308   20.712283 C.2        1 MOL1        -0.1324
       5    H3      18.741471   18.141025   19.786650 H          1 MOL1         0.0833
       6    C3      18.186891   18.589728   21.884171 C.3        1 MOL1        -0.1813
       7    H4      17.543254   18.094470   22.623753 H          1 MOL1         0.0753
       8    H5      17.640583   19.481945   21.550191 H          1 MOL1         0.0753
       9    C4      19.501837   19.012574   22.577220 C.3        1 MOL1        -0.1855
      10    H6      19.253805   19.566413   23.493039 H          1 MOL1         0.0755
      11    H7      20.052804   18.116169   22.893495 H          1 MOL1         0.0755
      12    C5      20.402210   19.890209   21.675450 C.3        1 MOL1        -0.1855
      13    H8      19.846574   20.779524   21.347083 H          1 MOL1         0.0755
      14    H9      20.669071   19.331264   20.768885 H          1 MOL1         0.0755
      15    C6      21.706735   20.333433   22.387454 C.3        1 MOL1        -0.1958
      16    H10     22.256294   19.456721   22.751039 H          1 MOL1         0.0753
      17    H11     22.360635   20.842888   21.669942 H          1 MOL1         0.0753
      18    C7      21.482386   21.287713   23.557006 C.2        1 MOL1         0.6174
      19    O1      21.589169   20.850388   24.685897 O.co2      1 MOL1        -0.6695
      20    O2      21.217059   22.447116   23.307001 O.co2      1 MOL1        -0.6695
@<TRIPOS>BOND
    1     1     2    1
    2     1     3    1
    3     1     4    2
    4     4     5    1
    5     4     6    1
    6     6     7    1
    7     6     8    1
    8     6     9    1
    9     9    10    1
   10     9    11    1
   11     9    12    1
   12    12    13    1
   13    12    14    1
   14    12    15    1
   15    15    16    1
   16    15    17    1
   17    15    18    1
   18    18    19    1
   19    18    20    2
@<TRIPOS>SUBSTRUCTURE
       1 MOL1            1 RESIDUE      1      MOL     
@<SCITEGIC>MOL_PROPERTY
VConf Rank
SciTegic.value.IntegerValue
827

@<SCITEGIC>MOL_PROPERTY
Conf_Id
SciTegic.value.IntegerValue
27

@<SCITEGIC>MOL_PROPERTY
Delta U+W
SciTegic.value.DoubleValue
0.478

@<SCITEGIC>MOL_PROPERTY
U+W
SciTegic.value.DoubleValue
-51.267

@<SCITEGIC>MOL_PROPERTY
Grad RMS
SciTegic.value.DoubleValue
0.000000

@<SCITEGIC>MOL_PROPERTY
U
SciTegic.value.DoubleValue
9.192

@<SCITEGIC>MOL_PROPERTY
W
SciTegic.value.DoubleValue
-60.459

@<SCITEGIC>MOL_PROPERTY
W(PB)
SciTegic.value.DoubleValue
-62.649

@<SCITEGIC>MOL_PROPERTY
W(SA)
SciTegic.value.DoubleValue
2.190

@<SCITEGIC>MOL_PROPERTY
Valence
SciTegic.value.DoubleValue
9.572

@<SCITEGIC>MOL_PROPERTY
Coulomb
SciTegic.value.DoubleValue
-0.884

@<SCITEGIC>MOL_PROPERTY
VdW
SciTegic.value.DoubleValue
0.504

@<SCITEGIC>MOL_PROPERTY
VdW6
SciTegic.value.DoubleValue
-7.168

@<SCITEGIC>MOL_PROPERTY
VdW12
SciTegic.value.DoubleValue
7.672

@<SCITEGIC>MOL_PROPERTY
Bond
SciTegic.value.DoubleValue
0.127

@<SCITEGIC>MOL_PROPERTY
Angle
SciTegic.value.DoubleValue
2.504

@<SCITEGIC>MOL_PROPERTY
Pdih
SciTegic.value.DoubleValue
6.941

@<SCITEGIC>MOL_PROPERTY
Idih
SciTegic.value.DoubleValue
0.001

@<SCITEGIC>MOL_PROPERTY
Tether
SciTegic.value.DoubleValue
0.000

@<TRIPOS>MOLECULE
guest-s22_confgen4.mol2 : confsearch ligand conformer 828
          20          19           1
SMALL
USER_CHARGES
 
@<TRIPOS>ATOM
       1    C1      16.488250   19.170466   22.884980 C.2        1 MOL1        -0.2535
       2    H1      16.456793   20.021563   23.563324 H          1 MOL1         0.0845
       3    H2      15.745735   18.387383   23.028683 H          1 MOL1         0.0845
       4    C2      17.402509   19.085058   21.915179 C.2        1 MOL1        -0.1324
       5    H3      17.414199   18.225821   21.245202 H          1 MOL1         0.0833
       6    C3      18.459672   20.136247   21.652107 C.3        1 MOL1        -0.1813
       7    H4      18.158619   21.087309   22.111893 H          1 MOL1         0.0753
       8    H5      18.536947   20.327402   20.573428 H          1 MOL1         0.0753
       9    C4      19.842714   19.732180   22.210662 C.3        1 MOL1        -0.1855
      10    H6      20.528436   20.584234   22.107381 H          1 MOL1         0.0755
      11    H7      19.755803   19.527030   23.286611 H          1 MOL1         0.0755
      12    C5      20.446662   18.504782   21.490395 C.3        1 MOL1        -0.1855
      13    H8      20.508807   18.701771   20.411187 H          1 MOL1         0.0755
      14    H9      19.789734   17.633777   21.618762 H          1 MOL1         0.0755
      15    C6      21.856510   18.157879   22.028956 C.3        1 MOL1        -0.1958
      16    H10     22.533790   19.009873   21.895033 H          1 MOL1         0.0753
      17    H11     21.809363   17.946626   23.104018 H          1 MOL1         0.0753
      18    C7      22.473981   16.948979   21.335172 C.2        1 MOL1         0.6174
      19    O1      22.267088   15.848638   21.807511 O.co2      1 MOL1        -0.6695
      20    O2      23.131054   17.137966   20.330564 O.co2      1 MOL1        -0.6695
@<TRIPOS>BOND
    1     1     2    1
    2     1     3    1
    3     1     4    2
    4     4     5    1
    5     4     6    1
    6     6     7    1
    7     6     8    1
    8     6     9    1
    9     9    10    1
   10     9    11    1
   11     9    12    1
   12    12    13    1
   13    12    14    1
   14    12    15    1
   15    15    16    1
   16    15    17    1
   17    15    18    1
   18    18    19    1
   19    18    20    2
@<TRIPOS>SUBSTRUCTURE
       1 MOL1            1 RESIDUE      1      MOL     
@<SCITEGIC>MOL_PROPERTY
VConf Rank
SciTegic.value.IntegerValue
828

@<SCITEGIC>MOL_PROPERTY
Conf_Id
SciTegic.value.IntegerValue
41

@<SCITEGIC>MOL_PROPERTY
Delta U+W
SciTegic.value.DoubleValue
-0.634

@<SCITEGIC>MOL_PROPERTY
U+W
SciTegic.value.DoubleValue
-52.379

@<SCITEGIC>MOL_PROPERTY
Grad RMS
SciTegic.value.DoubleValue
0.000000

@<SCITEGIC>MOL_PROPERTY
U
SciTegic.value.DoubleValue
7.828

@<SCITEGIC>MOL_PROPERTY
W
SciTegic.value.DoubleValue
-60.207

@<SCITEGIC>MOL_PROPERTY
W(PB)
SciTegic.value.DoubleValue
-62.449

@<SCITEGIC>MOL_PROPERTY
W(SA)
SciTegic.value.DoubleValue
2.242

@<SCITEGIC>MOL_PROPERTY
Valence
SciTegic.value.DoubleValue
9.300

@<SCITEGIC>MOL_PROPERTY
Coulomb
SciTegic.value.DoubleValue
-2.080

@<SCITEGIC>MOL_PROPERTY
VdW
SciTegic.value.DoubleValue
0.608

@<SCITEGIC>MOL_PROPERTY
VdW6
SciTegic.value.DoubleValue
-6.341

@<SCITEGIC>MOL_PROPERTY
VdW12
SciTegic.value.DoubleValue
6.949

@<SCITEGIC>MOL_PROPERTY
Bond
SciTegic.value.DoubleValue
0.103

@<SCITEGIC>MOL_PROPERTY
Angle
SciTegic.value.DoubleValue
2.334

@<SCITEGIC>MOL_PROPERTY
Pdih
SciTegic.value.DoubleValue
6.862

@<SCITEGIC>MOL_PROPERTY
Idih
SciTegic.value.DoubleValue
0.001

@<SCITEGIC>MOL_PROPERTY
Tether
SciTegic.value.DoubleValue
0.000

@<TRIPOS>MOLECULE
guest-s22_confgen4.mol2 : confsearch ligand conformer 829
          20          19           1
SMALL
USER_CHARGES
 
@<TRIPOS>ATOM
       1    C1      22.615285   17.511053   23.919105 C.2        1 MOL1        -0.2535
       2    H1      22.975285   17.153851   24.882456 H          1 MOL1         0.0845
       3    H2      23.155965   17.187885   23.030972 H          1 MOL1         0.0845
       4    C2      21.550246   18.312441   23.834343 C.2        1 MOL1        -0.1324
       5    H3      21.022339   18.624084   24.735375 H          1 MOL1         0.0833
       6    C3      20.993619   18.848622   22.534237 C.3        1 MOL1        -0.1813
       7    H4      21.718784   18.704614   21.721974 H          1 MOL1         0.0753
       8    H5      20.832982   19.930196   22.630912 H          1 MOL1         0.0753
       9    C4      19.664662   18.149934   22.169704 C.3        1 MOL1        -0.1855
      10    H6      19.822423   17.062630   22.175995 H          1 MOL1         0.0755
      11    H7      18.915618   18.357248   22.946371 H          1 MOL1         0.0755
      12    C5      19.110372   18.559449   20.782890 C.3        1 MOL1        -0.1855
      13    H8      18.212308   17.962868   20.570858 H          1 MOL1         0.0755
      14    H9      19.843656   18.297000   20.008408 H          1 MOL1         0.0755
      15    C6      18.750490   20.064874   20.654050 C.3        1 MOL1        -0.1958
      16    H10     19.641723   20.688800   20.786050 H          1 MOL1         0.0753
      17    H11     18.380061   20.263944   19.641697 H          1 MOL1         0.0753
      18    C7      17.676136   20.534402   21.630802 C.2        1 MOL1         0.6174
      19    O1      16.531245   20.174115   21.438908 O.co2      1 MOL1        -0.6695
      20    O2      18.008004   21.261566   22.546253 O.co2      1 MOL1        -0.6695
@<TRIPOS>BOND
    1     1     2    1
    2     1     3    1
    3     1     4    2
    4     4     5    1
    5     4     6    1
    6     6     7    1
    7     6     8    1
    8     6     9    1
    9     9    10    1
   10     9    11    1
   11     9    12    1
   12    12    13    1
   13    12    14    1
   14    12    15    1
   15    15    16    1
   16    15    17    1
   17    15    18    1
   18    18    19    1
   19    18    20    2
@<TRIPOS>SUBSTRUCTURE
       1 MOL1            1 RESIDUE      1      MOL     
@<SCITEGIC>MOL_PROPERTY
VConf Rank
SciTegic.value.IntegerValue
829

@<SCITEGIC>MOL_PROPERTY
Conf_Id
SciTegic.value.IntegerValue
84

@<SCITEGIC>MOL_PROPERTY
Delta U+W
SciTegic.value.DoubleValue
0.942

@<SCITEGIC>MOL_PROPERTY
U+W
SciTegic.value.DoubleValue
-50.803

@<SCITEGIC>MOL_PROPERTY
Grad RMS
SciTegic.value.DoubleValue
0.000000

@<SCITEGIC>MOL_PROPERTY
U
SciTegic.value.DoubleValue
10.196

@<SCITEGIC>MOL_PROPERTY
W
SciTegic.value.DoubleValue
-60.999

@<SCITEGIC>MOL_PROPERTY
W(PB)
SciTegic.value.DoubleValue
-63.182

@<SCITEGIC>MOL_PROPERTY
W(SA)
SciTegic.value.DoubleValue
2.182

@<SCITEGIC>MOL_PROPERTY
Valence
SciTegic.value.DoubleValue
9.837

@<SCITEGIC>MOL_PROPERTY
Coulomb
SciTegic.value.DoubleValue
0.032

@<SCITEGIC>MOL_PROPERTY
VdW
SciTegic.value.DoubleValue
0.328

@<SCITEGIC>MOL_PROPERTY
VdW6
SciTegic.value.DoubleValue
-7.642

@<SCITEGIC>MOL_PROPERTY
VdW12
SciTegic.value.DoubleValue
7.969

@<SCITEGIC>MOL_PROPERTY
Bond
SciTegic.value.DoubleValue
0.151

@<SCITEGIC>MOL_PROPERTY
Angle
SciTegic.value.DoubleValue
2.748

@<SCITEGIC>MOL_PROPERTY
Pdih
SciTegic.value.DoubleValue
6.937

@<SCITEGIC>MOL_PROPERTY
Idih
SciTegic.value.DoubleValue
0.001

@<SCITEGIC>MOL_PROPERTY
Tether
SciTegic.value.DoubleValue
0.000

@<TRIPOS>MOLECULE
guest-s22_confgen4.mol2 : confsearch ligand conformer 830
          20          19           1
SMALL
USER_CHARGES
 
@<TRIPOS>ATOM
       1    C1      16.382663   20.439146   22.039653 C.2        1 MOL1        -0.2535
       2    H1      15.546292   20.791779   22.640815 H          1 MOL1         0.0845
       3    H2      16.652822   21.026624   21.163602 H          1 MOL1         0.0845
       4    C2      17.050075   19.330172   22.368899 C.2        1 MOL1        -0.1324
       5    H3      16.764056   18.756935   23.250504 H          1 MOL1         0.0833
       6    C3      18.219295   18.779585   21.583123 C.3        1 MOL1        -0.1813
       7    H4      18.272191   19.257088   20.595205 H          1 MOL1         0.0753
       8    H5      18.070679   17.705711   21.407654 H          1 MOL1         0.0753
       9    C4      19.549322   19.002696   22.332997 C.3        1 MOL1        -0.1855
      10    H6      19.688362   20.078221   22.510740 H          1 MOL1         0.0755
      11    H7      19.498673   18.521895   23.319564 H          1 MOL1         0.0755
      12    C5      20.754495   18.442298   21.544427 C.3        1 MOL1        -0.1855
      13    H8      20.816526   18.931368   20.562249 H          1 MOL1         0.0755
      14    H9      20.597433   17.371753   21.355124 H          1 MOL1         0.0755
      15    C6      22.097897   18.628419   22.296434 C.3        1 MOL1        -0.1958
      16    H10     22.042578   18.168543   23.290570 H          1 MOL1         0.0753
      17    H11     22.897275   18.112239   21.751891 H          1 MOL1         0.0753
      18    C7      22.522293   20.085512   22.456635 C.2        1 MOL1         0.6174
      19    O1      22.403867   20.602939   23.549894 O.co2      1 MOL1        -0.6695
      20    O2      22.972780   20.660491   21.485260 O.co2      1 MOL1        -0.6695
@<TRIPOS>BOND
    1     1     2    1
    2     1     3    1
    3     1     4    2
    4     4     5    1
    5     4     6    1
    6     6     7    1
    7     6     8    1
    8     6     9    1
    9     9    10    1
   10     9    11    1
   11     9    12    1
   12    12    13    1
   13    12    14    1
   14    12    15    1
   15    15    16    1
   16    15    17    1
   17    15    18    1
   18    18    19    1
   19    18    20    2
@<TRIPOS>SUBSTRUCTURE
       1 MOL1            1 RESIDUE      1      MOL     
@<SCITEGIC>MOL_PROPERTY
VConf Rank
SciTegic.value.IntegerValue
830

@<SCITEGIC>MOL_PROPERTY
Conf_Id
SciTegic.value.IntegerValue
81

@<SCITEGIC>MOL_PROPERTY
Delta U+W
SciTegic.value.DoubleValue
-0.051

@<SCITEGIC>MOL_PROPERTY
U+W
SciTegic.value.DoubleValue
-51.796

@<SCITEGIC>MOL_PROPERTY
Grad RMS
SciTegic.value.DoubleValue
0.000000

@<SCITEGIC>MOL_PROPERTY
U
SciTegic.value.DoubleValue
9.412

@<SCITEGIC>MOL_PROPERTY
W
SciTegic.value.DoubleValue
-61.209

@<SCITEGIC>MOL_PROPERTY
W(PB)
SciTegic.value.DoubleValue
-63.452

@<SCITEGIC>MOL_PROPERTY
W(SA)
SciTegic.value.DoubleValue
2.243

@<SCITEGIC>MOL_PROPERTY
Valence
SciTegic.value.DoubleValue
9.329

@<SCITEGIC>MOL_PROPERTY
Coulomb
SciTegic.value.DoubleValue
-0.323

@<SCITEGIC>MOL_PROPERTY
VdW
SciTegic.value.DoubleValue
0.406

@<SCITEGIC>MOL_PROPERTY
VdW6
SciTegic.value.DoubleValue
-6.640

@<SCITEGIC>MOL_PROPERTY
VdW12
SciTegic.value.DoubleValue
7.046

@<SCITEGIC>MOL_PROPERTY
Bond
SciTegic.value.DoubleValue
0.105

@<SCITEGIC>MOL_PROPERTY
Angle
SciTegic.value.DoubleValue
2.401

@<SCITEGIC>MOL_PROPERTY
Pdih
SciTegic.value.DoubleValue
6.823

@<SCITEGIC>MOL_PROPERTY
Idih
SciTegic.value.DoubleValue
0.000

@<SCITEGIC>MOL_PROPERTY
Tether
SciTegic.value.DoubleValue
0.000

@<TRIPOS>MOLECULE
guest-s22_confgen4.mol2 : confsearch ligand conformer 831
          20          19           1
SMALL
USER_CHARGES
 
@<TRIPOS>ATOM
       1    C1      20.728382   16.283804   23.255684 C.2        1 MOL1        -0.2535
       2    H1      21.468697   15.889934   22.561233 H          1 MOL1         0.0845
       3    H2      20.700601   15.854157   24.255572 H          1 MOL1         0.0845
       4    C2      19.887210   17.258124   22.899583 C.2        1 MOL1        -0.1324
       5    H3      19.152037   17.636575   23.609175 H          1 MOL1         0.0833
       6    C3      19.863388   17.899025   21.528378 C.3        1 MOL1        -0.1813
       7    H4      18.828495   17.994141   21.174991 H          1 MOL1         0.0753
       8    H5      20.367390   17.244217   20.804897 H          1 MOL1         0.0753
       9    C4      20.560828   19.280299   21.509234 C.3        1 MOL1        -0.1855
      10    H6      21.616553   19.147121   21.782260 H          1 MOL1         0.0755
      11    H7      20.559046   19.665685   20.480426 H          1 MOL1         0.0755
      12    C5      19.930860   20.337711   22.452160 C.3        1 MOL1        -0.1855
      13    H8      20.515431   21.265282   22.380953 H          1 MOL1         0.0755
      14    H9      20.022045   20.000889   23.493280 H          1 MOL1         0.0755
      15    C6      18.442531   20.662932   22.150004 C.3        1 MOL1        -0.1958
      16    H10     17.817437   19.773105   22.286045 H          1 MOL1         0.0753
      17    H11     18.081011   21.408524   22.867641 H          1 MOL1         0.0753
      18    C7      18.198822   21.222652   20.751482 C.2        1 MOL1         0.6174
      19    O1      17.639598   20.515046   19.936837 O.co2      1 MOL1        -0.6695
      20    O2      18.559867   22.359818   20.519184 O.co2      1 MOL1        -0.6695
@<TRIPOS>BOND
    1     1     2    1
    2     1     3    1
    3     1     4    2
    4     4     5    1
    5     4     6    1
    6     6     7    1
    7     6     8    1
    8     6     9    1
    9     9    10    1
   10     9    11    1
   11     9    12    1
   12    12    13    1
   13    12    14    1
   14    12    15    1
   15    15    16    1
   16    15    17    1
   17    15    18    1
   18    18    19    1
   19    18    20    2
@<TRIPOS>SUBSTRUCTURE
       1 MOL1            1 RESIDUE      1      MOL     
@<SCITEGIC>MOL_PROPERTY
VConf Rank
SciTegic.value.IntegerValue
831

@<SCITEGIC>MOL_PROPERTY
Conf_Id
SciTegic.value.IntegerValue
86

@<SCITEGIC>MOL_PROPERTY
Delta U+W
SciTegic.value.DoubleValue
1.248

@<SCITEGIC>MOL_PROPERTY
U+W
SciTegic.value.DoubleValue
-50.498

@<SCITEGIC>MOL_PROPERTY
Grad RMS
SciTegic.value.DoubleValue
0.000000

@<SCITEGIC>MOL_PROPERTY
U
SciTegic.value.DoubleValue
10.404

@<SCITEGIC>MOL_PROPERTY
W
SciTegic.value.DoubleValue
-60.901

@<SCITEGIC>MOL_PROPERTY
W(PB)
SciTegic.value.DoubleValue
-63.061

@<SCITEGIC>MOL_PROPERTY
W(SA)
SciTegic.value.DoubleValue
2.159

@<SCITEGIC>MOL_PROPERTY
Valence
SciTegic.value.DoubleValue
10.021

@<SCITEGIC>MOL_PROPERTY
Coulomb
SciTegic.value.DoubleValue
0.094

@<SCITEGIC>MOL_PROPERTY
VdW
SciTegic.value.DoubleValue
0.289

@<SCITEGIC>MOL_PROPERTY
VdW6
SciTegic.value.DoubleValue
-8.409

@<SCITEGIC>MOL_PROPERTY
VdW12
SciTegic.value.DoubleValue
8.698

@<SCITEGIC>MOL_PROPERTY
Bond
SciTegic.value.DoubleValue
0.179

@<SCITEGIC>MOL_PROPERTY
Angle
SciTegic.value.DoubleValue
2.939

@<SCITEGIC>MOL_PROPERTY
Pdih
SciTegic.value.DoubleValue
6.902

@<SCITEGIC>MOL_PROPERTY
Idih
SciTegic.value.DoubleValue
0.001

@<SCITEGIC>MOL_PROPERTY
Tether
SciTegic.value.DoubleValue
0.000

@<TRIPOS>MOLECULE
guest-s22_confgen4.mol2 : confsearch ligand conformer 832
          20          19           1
SMALL
USER_CHARGES
 
@<TRIPOS>ATOM
       1    C1      22.478270   20.660815   21.724999 C.2        1 MOL1        -0.2535
       2    H1      23.434126   20.566645   21.212578 H          1 MOL1         0.0845
       3    H2      21.884198   21.549535   21.518413 H          1 MOL1         0.0845
       4    C2      22.052717   19.718730   22.570816 C.2        1 MOL1        -0.1324
       5    H3      22.661676   18.835565   22.762068 H          1 MOL1         0.0833
       6    C3      20.737611   19.779597   23.318374 C.3        1 MOL1        -0.1813
       7    H4      20.287539   20.777655   23.229060 H          1 MOL1         0.0753
       8    H5      20.925722   19.619456   24.388323 H          1 MOL1         0.0753
       9    C4      19.732400   18.714772   22.824655 C.3        1 MOL1        -0.1855
      10    H6      20.183212   17.716568   22.909981 H          1 MOL1         0.0755
      11    H7      18.857704   18.720801   23.489397 H          1 MOL1         0.0755
      12    C5      19.271575   18.958869   21.368065 C.3        1 MOL1        -0.1855
      13    H8      20.144266   18.946285   20.701491 H          1 MOL1         0.0755
      14    H9      18.824211   19.958799   21.282293 H          1 MOL1         0.0755
      15    C6      18.253918   17.896082   20.878280 C.3        1 MOL1        -0.1958
      16    H10     18.056401   18.043297   19.809984 H          1 MOL1         0.0753
      17    H11     18.675451   16.889532   20.987582 H          1 MOL1         0.0753
      18    C7      16.910871   17.943293   21.601273 C.2        1 MOL1         0.6174
      19    O1      16.131859   18.827813   21.304803 O.co2      1 MOL1        -0.6695
      20    O2      16.673980   17.089047   22.432679 O.co2      1 MOL1        -0.6695
@<TRIPOS>BOND
    1     1     2    1
    2     1     3    1
    3     1     4    2
    4     4     5    1
    5     4     6    1
    6     6     7    1
    7     6     8    1
    8     6     9    1
    9     9    10    1
   10     9    11    1
   11     9    12    1
   12    12    13    1
   13    12    14    1
   14    12    15    1
   15    15    16    1
   16    15    17    1
   17    15    18    1
   18    18    19    1
   19    18    20    2
@<TRIPOS>SUBSTRUCTURE
       1 MOL1            1 RESIDUE      1      MOL     
@<SCITEGIC>MOL_PROPERTY
VConf Rank
SciTegic.value.IntegerValue
832

@<SCITEGIC>MOL_PROPERTY
Conf_Id
SciTegic.value.IntegerValue
28

@<SCITEGIC>MOL_PROPERTY
Delta U+W
SciTegic.value.DoubleValue
0.446

@<SCITEGIC>MOL_PROPERTY
U+W
SciTegic.value.DoubleValue
-51.299

@<SCITEGIC>MOL_PROPERTY
Grad RMS
SciTegic.value.DoubleValue
0.000000

@<SCITEGIC>MOL_PROPERTY
U
SciTegic.value.DoubleValue
9.295

@<SCITEGIC>MOL_PROPERTY
W
SciTegic.value.DoubleValue
-60.594

@<SCITEGIC>MOL_PROPERTY
W(PB)
SciTegic.value.DoubleValue
-62.806

@<SCITEGIC>MOL_PROPERTY
W(SA)
SciTegic.value.DoubleValue
2.212

@<SCITEGIC>MOL_PROPERTY
Valence
SciTegic.value.DoubleValue
9.495

@<SCITEGIC>MOL_PROPERTY
Coulomb
SciTegic.value.DoubleValue
-0.610

@<SCITEGIC>MOL_PROPERTY
VdW
SciTegic.value.DoubleValue
0.409

@<SCITEGIC>MOL_PROPERTY
VdW6
SciTegic.value.DoubleValue
-7.332

@<SCITEGIC>MOL_PROPERTY
VdW12
SciTegic.value.DoubleValue
7.741

@<SCITEGIC>MOL_PROPERTY
Bond
SciTegic.value.DoubleValue
0.126

@<SCITEGIC>MOL_PROPERTY
Angle
SciTegic.value.DoubleValue
2.497

@<SCITEGIC>MOL_PROPERTY
Pdih
SciTegic.value.DoubleValue
6.872

@<SCITEGIC>MOL_PROPERTY
Idih
SciTegic.value.DoubleValue
0.000

@<SCITEGIC>MOL_PROPERTY
Tether
SciTegic.value.DoubleValue
0.000

@<TRIPOS>MOLECULE
guest-s22_confgen4.mol2 : confsearch ligand conformer 833
          20          19           1
SMALL
USER_CHARGES
 
@<TRIPOS>ATOM
       1    C1      17.633376   20.595076   23.970340 C.2        1 MOL1        -0.2535
       2    H1      17.492218   20.969810   22.958835 H          1 MOL1         0.0845
       3    H2      16.871241   20.857195   24.702176 H          1 MOL1         0.0845
       4    C2      18.684285   19.843407   24.317555 C.2        1 MOL1        -0.1324
       5    H3      18.769685   19.495351   25.346683 H          1 MOL1         0.0833
       6    C3      19.822630   19.399407   23.413956 C.3        1 MOL1        -0.1813
       7    H4      19.820593   18.302797   23.368096 H          1 MOL1         0.0753
       8    H5      20.774329   19.677831   23.885657 H          1 MOL1         0.0753
       9    C4      19.782652   19.981110   21.979166 C.3        1 MOL1        -0.1855
      10    H6      18.874932   19.635185   21.465792 H          1 MOL1         0.0755
      11    H7      19.712559   21.075745   22.038790 H          1 MOL1         0.0755
      12    C5      21.028582   19.621607   21.132126 C.3        1 MOL1        -0.1855
      13    H8      21.927598   20.014144   21.626164 H          1 MOL1         0.0755
      14    H9      20.959109   20.138811   20.165129 H          1 MOL1         0.0755
      15    C6      21.213777   18.101691   20.870943 C.3        1 MOL1        -0.1958
      16    H10     22.121518   17.944074   20.276956 H          1 MOL1         0.0753
      17    H11     21.362741   17.561900   21.812927 H          1 MOL1         0.0753
      18    C7      20.058642   17.453516   20.113027 C.2        1 MOL1         0.6174
      19    O1      19.917495   17.730880   18.938038 O.co2      1 MOL1        -0.6695
      20    O2      19.343741   16.673206   20.710430 O.co2      1 MOL1        -0.6695
@<TRIPOS>BOND
    1     1     2    1
    2     1     3    1
    3     1     4    2
    4     4     5    1
    5     4     6    1
    6     6     7    1
    7     6     8    1
    8     6     9    1
    9     9    10    1
   10     9    11    1
   11     9    12    1
   12    12    13    1
   13    12    14    1
   14    12    15    1
   15    15    16    1
   16    15    17    1
   17    15    18    1
   18    18    19    1
   19    18    20    2
@<TRIPOS>SUBSTRUCTURE
       1 MOL1            1 RESIDUE      1      MOL     
@<SCITEGIC>MOL_PROPERTY
VConf Rank
SciTegic.value.IntegerValue
833

@<SCITEGIC>MOL_PROPERTY
Conf_Id
SciTegic.value.IntegerValue
53

@<SCITEGIC>MOL_PROPERTY
Delta U+W
SciTegic.value.DoubleValue
0.549

@<SCITEGIC>MOL_PROPERTY
U+W
SciTegic.value.DoubleValue
-51.197

@<SCITEGIC>MOL_PROPERTY
Grad RMS
SciTegic.value.DoubleValue
0.000000

@<SCITEGIC>MOL_PROPERTY
U
SciTegic.value.DoubleValue
10.870

@<SCITEGIC>MOL_PROPERTY
W
SciTegic.value.DoubleValue
-62.067

@<SCITEGIC>MOL_PROPERTY
W(PB)
SciTegic.value.DoubleValue
-64.228

@<SCITEGIC>MOL_PROPERTY
W(SA)
SciTegic.value.DoubleValue
2.161

@<SCITEGIC>MOL_PROPERTY
Valence
SciTegic.value.DoubleValue
8.803

@<SCITEGIC>MOL_PROPERTY
Coulomb
SciTegic.value.DoubleValue
1.020

@<SCITEGIC>MOL_PROPERTY
VdW
SciTegic.value.DoubleValue
1.048

@<SCITEGIC>MOL_PROPERTY
VdW6
SciTegic.value.DoubleValue
-8.312

@<SCITEGIC>MOL_PROPERTY
VdW12
SciTegic.value.DoubleValue
9.360

@<SCITEGIC>MOL_PROPERTY
Bond
SciTegic.value.DoubleValue
0.212

@<SCITEGIC>MOL_PROPERTY
Angle
SciTegic.value.DoubleValue
3.379

@<SCITEGIC>MOL_PROPERTY
Pdih
SciTegic.value.DoubleValue
5.211

@<SCITEGIC>MOL_PROPERTY
Idih
SciTegic.value.DoubleValue
0.001

@<SCITEGIC>MOL_PROPERTY
Tether
SciTegic.value.DoubleValue
0.000

@<TRIPOS>MOLECULE
guest-s22_confgen4.mol2 : confsearch ligand conformer 834
          20          19           1
SMALL
USER_CHARGES
 
@<TRIPOS>ATOM
       1    C1      20.830843   19.431292   24.564455 C.2        1 MOL1        -0.2535
       2    H1      21.041228   18.366662   24.489625 H          1 MOL1         0.0845
       3    H2      20.711477   19.842276   25.565338 H          1 MOL1         0.0845
       4    C2      20.726970   20.214142   23.485098 C.2        1 MOL1        -0.1324
       5    H3      20.517809   21.275488   23.615861 H          1 MOL1         0.0833
       6    C3      20.863850   19.775714   22.036328 C.3        1 MOL1        -0.1813
       7    H4      21.879377   20.011255   21.691905 H          1 MOL1         0.0753
       8    H5      20.206870   20.394980   21.412255 H          1 MOL1         0.0753
       9    C4      20.561911   18.281613   21.749504 C.3        1 MOL1        -0.1855
      10    H6      20.767794   18.080842   20.689248 H          1 MOL1         0.0755
      11    H7      21.265775   17.652789   22.310288 H          1 MOL1         0.0755
      12    C5      19.110283   17.838480   22.070848 C.3        1 MOL1        -0.1855
      13    H8      18.914253   17.965197   23.143261 H          1 MOL1         0.0755
      14    H9      19.018675   16.762282   21.869790 H          1 MOL1         0.0755
      15    C6      18.014319   18.589364   21.266264 C.3        1 MOL1        -0.1958
      16    H10     17.027330   18.215062   21.561759 H          1 MOL1         0.0753
      17    H11     18.024134   19.658600   21.506344 H          1 MOL1         0.0753
      18    C7      18.128029   18.425601   19.753427 C.2        1 MOL1         0.6174
      19    O1      18.492413   19.380654   19.095966 O.co2      1 MOL1        -0.6695
      20    O2      17.831225   17.350494   19.270145 O.co2      1 MOL1        -0.6695
@<TRIPOS>BOND
    1     1     2    1
    2     1     3    1
    3     1     4    2
    4     4     5    1
    5     4     6    1
    6     6     7    1
    7     6     8    1
    8     6     9    1
    9     9    10    1
   10     9    11    1
   11     9    12    1
   12    12    13    1
   13    12    14    1
   14    12    15    1
   15    15    16    1
   16    15    17    1
   17    15    18    1
   18    18    19    1
   19    18    20    2
@<TRIPOS>SUBSTRUCTURE
       1 MOL1            1 RESIDUE      1      MOL     
@<SCITEGIC>MOL_PROPERTY
VConf Rank
SciTegic.value.IntegerValue
834

@<SCITEGIC>MOL_PROPERTY
Conf_Id
SciTegic.value.IntegerValue
66

@<SCITEGIC>MOL_PROPERTY
Delta U+W
SciTegic.value.DoubleValue
1.737

@<SCITEGIC>MOL_PROPERTY
U+W
SciTegic.value.DoubleValue
-50.008

@<SCITEGIC>MOL_PROPERTY
Grad RMS
SciTegic.value.DoubleValue
0.000000

@<SCITEGIC>MOL_PROPERTY
U
SciTegic.value.DoubleValue
11.091

@<SCITEGIC>MOL_PROPERTY
W
SciTegic.value.DoubleValue
-61.099

@<SCITEGIC>MOL_PROPERTY
W(PB)
SciTegic.value.DoubleValue
-63.213

@<SCITEGIC>MOL_PROPERTY
W(SA)
SciTegic.value.DoubleValue
2.114

@<SCITEGIC>MOL_PROPERTY
Valence
SciTegic.value.DoubleValue
9.664

@<SCITEGIC>MOL_PROPERTY
Coulomb
SciTegic.value.DoubleValue
0.658

@<SCITEGIC>MOL_PROPERTY
VdW
SciTegic.value.DoubleValue
0.769

@<SCITEGIC>MOL_PROPERTY
VdW6
SciTegic.value.DoubleValue
-9.171

@<SCITEGIC>MOL_PROPERTY
VdW12
SciTegic.value.DoubleValue
9.940

@<SCITEGIC>MOL_PROPERTY
Bond
SciTegic.value.DoubleValue
0.244

@<SCITEGIC>MOL_PROPERTY
Angle
SciTegic.value.DoubleValue
3.658

@<SCITEGIC>MOL_PROPERTY
Pdih
SciTegic.value.DoubleValue
5.762

@<SCITEGIC>MOL_PROPERTY
Idih
SciTegic.value.DoubleValue
0.001

@<SCITEGIC>MOL_PROPERTY
Tether
SciTegic.value.DoubleValue
0.000

@<TRIPOS>MOLECULE
guest-s22_confgen4.mol2 : confsearch ligand conformer 835
          20          19           1
SMALL
USER_CHARGES
 
@<TRIPOS>ATOM
       1    C1      19.318971   16.875659   23.571092 C.2        1 MOL1        -0.2535
       2    H1      19.641789   16.426056   22.634700 H          1 MOL1         0.0845
       3    H2      19.672538   16.410667   24.489629 H          1 MOL1         0.0845
       4    C2      18.519664   17.947348   23.609448 C.2        1 MOL1        -0.1324
       5    H3      18.224919   18.355583   24.575785 H          1 MOL1         0.0833
       6    C3      17.957169   18.699526   22.414280 C.3        1 MOL1        -0.1813
       7    H4      17.890850   19.765590   22.664797 H          1 MOL1         0.0753
       8    H5      16.917340   18.382845   22.259192 H          1 MOL1         0.0753
       9    C4      18.740036   18.542543   21.084321 C.3        1 MOL1        -0.1855
      10    H6      18.760829   17.483220   20.796403 H          1 MOL1         0.0755
      11    H7      18.184992   19.055074   20.286908 H          1 MOL1         0.0755
      12    C5      20.187821   19.095394   21.115583 C.3        1 MOL1        -0.1855
      13    H8      20.673839   18.857116   20.159451 H          1 MOL1         0.0755
      14    H9      20.772460   18.585404   21.892568 H          1 MOL1         0.0755
      15    C6      20.261352   20.627838   21.341694 C.3        1 MOL1        -0.1958
      16    H10     19.641186   21.150295   20.603735 H          1 MOL1         0.0753
      17    H11     19.877912   20.888957   22.334485 H          1 MOL1         0.0753
      18    C7      21.681378   21.172167   21.234568 C.2        1 MOL1         0.6174
      19    O1      22.349377   21.239691   22.247470 O.co2      1 MOL1        -0.6695
      20    O2      22.087676   21.501406   20.137546 O.co2      1 MOL1        -0.6695
@<TRIPOS>BOND
    1     1     2    1
    2     1     3    1
    3     1     4    2
    4     4     5    1
    5     4     6    1
    6     6     7    1
    7     6     8    1
    8     6     9    1
    9     9    10    1
   10     9    11    1
   11     9    12    1
   12    12    13    1
   13    12    14    1
   14    12    15    1
   15    15    16    1
   16    15    17    1
   17    15    18    1
   18    18    19    1
   19    18    20    2
@<TRIPOS>SUBSTRUCTURE
       1 MOL1            1 RESIDUE      1      MOL     
@<SCITEGIC>MOL_PROPERTY
VConf Rank
SciTegic.value.IntegerValue
835

@<SCITEGIC>MOL_PROPERTY
Conf_Id
SciTegic.value.IntegerValue
64

@<SCITEGIC>MOL_PROPERTY
Delta U+W
SciTegic.value.DoubleValue
0.366

@<SCITEGIC>MOL_PROPERTY
U+W
SciTegic.value.DoubleValue
-51.379

@<SCITEGIC>MOL_PROPERTY
Grad RMS
SciTegic.value.DoubleValue
0.000000

@<SCITEGIC>MOL_PROPERTY
U
SciTegic.value.DoubleValue
10.000

@<SCITEGIC>MOL_PROPERTY
W
SciTegic.value.DoubleValue
-61.379

@<SCITEGIC>MOL_PROPERTY
W(PB)
SciTegic.value.DoubleValue
-63.541

@<SCITEGIC>MOL_PROPERTY
W(SA)
SciTegic.value.DoubleValue
2.162

@<SCITEGIC>MOL_PROPERTY
Valence
SciTegic.value.DoubleValue
9.398

@<SCITEGIC>MOL_PROPERTY
Coulomb
SciTegic.value.DoubleValue
-0.504

@<SCITEGIC>MOL_PROPERTY
VdW
SciTegic.value.DoubleValue
1.105

@<SCITEGIC>MOL_PROPERTY
VdW6
SciTegic.value.DoubleValue
-7.975

@<SCITEGIC>MOL_PROPERTY
VdW12
SciTegic.value.DoubleValue
9.080

@<SCITEGIC>MOL_PROPERTY
Bond
SciTegic.value.DoubleValue
0.216

@<SCITEGIC>MOL_PROPERTY
Angle
SciTegic.value.DoubleValue
3.417

@<SCITEGIC>MOL_PROPERTY
Pdih
SciTegic.value.DoubleValue
5.765

@<SCITEGIC>MOL_PROPERTY
Idih
SciTegic.value.DoubleValue
0.001

@<SCITEGIC>MOL_PROPERTY
Tether
SciTegic.value.DoubleValue
0.000

@<TRIPOS>MOLECULE
guest-s22_confgen4.mol2 : confsearch ligand conformer 836
          20          19           1
SMALL
USER_CHARGES
 
@<TRIPOS>ATOM
       1    C1      22.694446   18.789626   20.924700 C.2        1 MOL1        -0.2535
       2    H1      22.259899   18.265972   20.074775 H          1 MOL1         0.0845
       3    H2      23.629248   18.403041   21.326946 H          1 MOL1         0.0845
       4    C2      22.104560   19.862505   21.458533 C.2        1 MOL1        -0.1324
       5    H3      22.554863   20.370750   22.310770 H          1 MOL1         0.0833
       6    C3      20.806192   20.456537   20.955199 C.3        1 MOL1        -0.1813
       7    H4      20.531155   20.019345   19.985718 H          1 MOL1         0.0753
       8    H5      20.947237   21.531554   20.781167 H          1 MOL1         0.0753
       9    C4      19.645680   20.261741   21.956802 C.3        1 MOL1        -0.1855
      10    H6      19.921138   20.698438   22.926597 H          1 MOL1         0.0755
      11    H7      18.770017   20.819664   21.597889 H          1 MOL1         0.0755
      12    C5      19.260631   18.776113   22.141818 C.3        1 MOL1        -0.1855
      13    H8      20.121332   18.211707   22.526353 H          1 MOL1         0.0755
      14    H9      19.002030   18.336902   21.168419 H          1 MOL1         0.0755
      15    C6      18.066961   18.606841   23.113682 C.3        1 MOL1        -0.1958
      16    H10     18.314918   19.029818   24.094598 H          1 MOL1         0.0753
      17    H11     17.191986   19.150400   22.737585 H          1 MOL1         0.0753
      18    C7      17.668227   17.148977   23.313026 C.2        1 MOL1         0.6174
      19    O1      16.859901   16.665417   22.545219 O.co2      1 MOL1        -0.6695
      20    O2      18.186707   16.531266   24.222037 O.co2      1 MOL1        -0.6695
@<TRIPOS>BOND
    1     1     2    1
    2     1     3    1
    3     1     4    2
    4     4     5    1
    5     4     6    1
    6     6     7    1
    7     6     8    1
    8     6     9    1
    9     9    10    1
   10     9    11    1
   11     9    12    1
   12    12    13    1
   13    12    14    1
   14    12    15    1
   15    15    16    1
   16    15    17    1
   17    15    18    1
   18    18    19    1
   19    18    20    2
@<TRIPOS>SUBSTRUCTURE
       1 MOL1            1 RESIDUE      1      MOL     
@<SCITEGIC>MOL_PROPERTY
VConf Rank
SciTegic.value.IntegerValue
836

@<SCITEGIC>MOL_PROPERTY
Conf_Id
SciTegic.value.IntegerValue
42

@<SCITEGIC>MOL_PROPERTY
Delta U+W
SciTegic.value.DoubleValue
-0.601

@<SCITEGIC>MOL_PROPERTY
U+W
SciTegic.value.DoubleValue
-52.347

@<SCITEGIC>MOL_PROPERTY
Grad RMS
SciTegic.value.DoubleValue
0.000000

@<SCITEGIC>MOL_PROPERTY
U
SciTegic.value.DoubleValue
8.428

@<SCITEGIC>MOL_PROPERTY
W
SciTegic.value.DoubleValue
-60.774

@<SCITEGIC>MOL_PROPERTY
W(PB)
SciTegic.value.DoubleValue
-62.982

@<SCITEGIC>MOL_PROPERTY
W(SA)
SciTegic.value.DoubleValue
2.208

@<SCITEGIC>MOL_PROPERTY
Valence
SciTegic.value.DoubleValue
9.231

@<SCITEGIC>MOL_PROPERTY
Coulomb
SciTegic.value.DoubleValue
-1.304

@<SCITEGIC>MOL_PROPERTY
VdW
SciTegic.value.DoubleValue
0.501

@<SCITEGIC>MOL_PROPERTY
VdW6
SciTegic.value.DoubleValue
-6.515

@<SCITEGIC>MOL_PROPERTY
VdW12
SciTegic.value.DoubleValue
7.016

@<SCITEGIC>MOL_PROPERTY
Bond
SciTegic.value.DoubleValue
0.103

@<SCITEGIC>MOL_PROPERTY
Angle
SciTegic.value.DoubleValue
2.328

@<SCITEGIC>MOL_PROPERTY
Pdih
SciTegic.value.DoubleValue
6.799

@<SCITEGIC>MOL_PROPERTY
Idih
SciTegic.value.DoubleValue
0.000

@<SCITEGIC>MOL_PROPERTY
Tether
SciTegic.value.DoubleValue
0.000

@<TRIPOS>MOLECULE
guest-s22_confgen4.mol2 : confsearch ligand conformer 837
          20          19           1
SMALL
USER_CHARGES
 
@<TRIPOS>ATOM
       1    C1      18.324682   21.901249   21.645264 C.2        1 MOL1        -0.2535
       2    H1      17.355838   21.459913   21.417321 H          1 MOL1         0.0845
       3    H2      18.614359   22.789949   21.087237 H          1 MOL1         0.0845
       4    C2      19.131158   21.373546   22.570007 C.2        1 MOL1        -0.1324
       5    H3      20.098292   21.829105   22.781012 H          1 MOL1         0.0833
       6    C3      18.798449   20.141027   23.383706 C.3        1 MOL1        -0.1813
       7    H4      17.743356   19.864664   23.253276 H          1 MOL1         0.0753
       8    H5      18.929426   20.368774   24.449908 H          1 MOL1         0.0753
       9    C4      19.696409   18.937913   23.017451 C.3        1 MOL1        -0.1855
      10    H6      20.750905   19.214365   23.155111 H          1 MOL1         0.0755
      11    H7      19.494197   18.116919   23.718750 H          1 MOL1         0.0755
      12    C5      19.465840   18.439623   21.571141 C.3        1 MOL1        -0.1855
      13    H8      19.704986   19.238936   20.856114 H          1 MOL1         0.0755
      14    H9      18.401911   18.203361   21.435248 H          1 MOL1         0.0755
      15    C6      20.308918   17.182959   21.232267 C.3        1 MOL1        -0.1958
      16    H10     20.100631   16.381286   21.951061 H          1 MOL1         0.0753
      17    H11     20.022284   16.805338   20.243716 H          1 MOL1         0.0753
      18    C7      21.813807   17.434893   21.206732 C.2        1 MOL1         0.6174
      19    O1      22.476515   17.060245   22.154161 O.co2      1 MOL1        -0.6695
      20    O2      22.286007   17.983489   20.230431 O.co2      1 MOL1        -0.6695
@<TRIPOS>BOND
    1     1     2    1
    2     1     3    1
    3     1     4    2
    4     4     5    1
    5     4     6    1
    6     6     7    1
    7     6     8    1
    8     6     9    1
    9     9    10    1
   10     9    11    1
   11     9    12    1
   12    12    13    1
   13    12    14    1
   14    12    15    1
   15    15    16    1
   16    15    17    1
   17    15    18    1
   18    18    19    1
   19    18    20    2
@<TRIPOS>SUBSTRUCTURE
       1 MOL1            1 RESIDUE      1      MOL     
@<SCITEGIC>MOL_PROPERTY
VConf Rank
SciTegic.value.IntegerValue
837

@<SCITEGIC>MOL_PROPERTY
Conf_Id
SciTegic.value.IntegerValue
68

@<SCITEGIC>MOL_PROPERTY
Delta U+W
SciTegic.value.DoubleValue
0.492

@<SCITEGIC>MOL_PROPERTY
U+W
SciTegic.value.DoubleValue
-51.253

@<SCITEGIC>MOL_PROPERTY
Grad RMS
SciTegic.value.DoubleValue
0.000000

@<SCITEGIC>MOL_PROPERTY
U
SciTegic.value.DoubleValue
10.179

@<SCITEGIC>MOL_PROPERTY
W
SciTegic.value.DoubleValue
-61.432

@<SCITEGIC>MOL_PROPERTY
W(PB)
SciTegic.value.DoubleValue
-63.627

@<SCITEGIC>MOL_PROPERTY
W(SA)
SciTegic.value.DoubleValue
2.195

@<SCITEGIC>MOL_PROPERTY
Valence
SciTegic.value.DoubleValue
9.483

@<SCITEGIC>MOL_PROPERTY
Coulomb
SciTegic.value.DoubleValue
0.361

@<SCITEGIC>MOL_PROPERTY
VdW
SciTegic.value.DoubleValue
0.335

@<SCITEGIC>MOL_PROPERTY
VdW6
SciTegic.value.DoubleValue
-7.385

@<SCITEGIC>MOL_PROPERTY
VdW12
SciTegic.value.DoubleValue
7.720

@<SCITEGIC>MOL_PROPERTY
Bond
SciTegic.value.DoubleValue
0.125

@<SCITEGIC>MOL_PROPERTY
Angle
SciTegic.value.DoubleValue
2.487

@<SCITEGIC>MOL_PROPERTY
Pdih
SciTegic.value.DoubleValue
6.870

@<SCITEGIC>MOL_PROPERTY
Idih
SciTegic.value.DoubleValue
0.001

@<SCITEGIC>MOL_PROPERTY
Tether
SciTegic.value.DoubleValue
0.000

@<TRIPOS>MOLECULE
guest-s22_confgen4.mol2 : confsearch ligand conformer 838
          20          19           1
SMALL
USER_CHARGES
 
@<TRIPOS>ATOM
       1    C1      21.643271   21.607282   22.935743 C.2        1 MOL1        -0.2535
       2    H1      22.608849   21.105851   22.977182 H          1 MOL1         0.0845
       3    H2      21.478675   22.435293   23.623116 H          1 MOL1         0.0845
       4    C2      20.693778   21.222404   22.078988 C.2        1 MOL1        -0.1324
       5    H3      19.735305   21.739958   22.052282 H          1 MOL1         0.0833
       6    C3      20.853094   20.085811   21.091793 C.3        1 MOL1        -0.1813
       7    H4      21.919786   19.866622   20.948113 H          1 MOL1         0.0753
       8    H5      20.466212   20.386876   20.109104 H          1 MOL1         0.0753
       9    C4      20.141539   18.796334   21.559897 C.3        1 MOL1        -0.1855
      10    H6      20.401181   17.979219   20.873126 H          1 MOL1         0.0755
      11    H7      20.525385   18.507953   22.548379 H          1 MOL1         0.0755
      12    C5      18.602409   18.944351   21.613730 C.3        1 MOL1        -0.1855
      13    H8      18.236157   19.280409   20.634324 H          1 MOL1         0.0755
      14    H9      18.324075   19.720574   22.339556 H          1 MOL1         0.0755
      15    C6      17.890209   17.619083   21.989614 C.3        1 MOL1        -0.1958
      16    H10     16.805164   17.748168   21.900048 H          1 MOL1         0.0753
      17    H11     18.174100   16.823978   21.289631 H          1 MOL1         0.0753
      18    C7      18.177943   17.142340   23.410446 C.2        1 MOL1         0.6174
      19    O1      17.597369   17.690635   24.326641 O.co2      1 MOL1        -0.6695
      20    O2      18.958972   16.223648   23.562508 O.co2      1 MOL1        -0.6695
@<TRIPOS>BOND
    1     1     2    1
    2     1     3    1
    3     1     4    2
    4     4     5    1
    5     4     6    1
    6     6     7    1
    7     6     8    1
    8     6     9    1
    9     9    10    1
   10     9    11    1
   11     9    12    1
   12    12    13    1
   13    12    14    1
   14    12    15    1
   15    15    16    1
   16    15    17    1
   17    15    18    1
   18    18    19    1
   19    18    20    2
@<TRIPOS>SUBSTRUCTURE
       1 MOL1            1 RESIDUE      1      MOL     
@<SCITEGIC>MOL_PROPERTY
VConf Rank
SciTegic.value.IntegerValue
838

@<SCITEGIC>MOL_PROPERTY
Conf_Id
SciTegic.value.IntegerValue
87

@<SCITEGIC>MOL_PROPERTY
Delta U+W
SciTegic.value.DoubleValue
0.339

@<SCITEGIC>MOL_PROPERTY
U+W
SciTegic.value.DoubleValue
-51.407

@<SCITEGIC>MOL_PROPERTY
Grad RMS
SciTegic.value.DoubleValue
0.000000

@<SCITEGIC>MOL_PROPERTY
U
SciTegic.value.DoubleValue
10.461

@<SCITEGIC>MOL_PROPERTY
W
SciTegic.value.DoubleValue
-61.867

@<SCITEGIC>MOL_PROPERTY
W(PB)
SciTegic.value.DoubleValue
-64.045

@<SCITEGIC>MOL_PROPERTY
W(SA)
SciTegic.value.DoubleValue
2.178

@<SCITEGIC>MOL_PROPERTY
Valence
SciTegic.value.DoubleValue
9.555

@<SCITEGIC>MOL_PROPERTY
Coulomb
SciTegic.value.DoubleValue
0.483

@<SCITEGIC>MOL_PROPERTY
VdW
SciTegic.value.DoubleValue
0.423

@<SCITEGIC>MOL_PROPERTY
VdW6
SciTegic.value.DoubleValue
-7.223

@<SCITEGIC>MOL_PROPERTY
VdW12
SciTegic.value.DoubleValue
7.646

@<SCITEGIC>MOL_PROPERTY
Bond
SciTegic.value.DoubleValue
0.126

@<SCITEGIC>MOL_PROPERTY
Angle
SciTegic.value.DoubleValue
2.492

@<SCITEGIC>MOL_PROPERTY
Pdih
SciTegic.value.DoubleValue
6.936

@<SCITEGIC>MOL_PROPERTY
Idih
SciTegic.value.DoubleValue
0.001

@<SCITEGIC>MOL_PROPERTY
Tether
SciTegic.value.DoubleValue
0.000

@<TRIPOS>MOLECULE
guest-s22_confgen4.mol2 : confsearch ligand conformer 839
          20          19           1
SMALL
USER_CHARGES
 
@<TRIPOS>ATOM
       1    C1      20.608373   17.033469   23.799652 C.2        1 MOL1        -0.2535
       2    H1      21.652214   17.327017   23.897848 H          1 MOL1         0.0845
       3    H2      20.107751   16.653553   24.688506 H          1 MOL1         0.0845
       4    C2      19.963821   17.136935   22.634508 C.2        1 MOL1        -0.1324
       5    H3      18.921795   16.829557   22.553958 H          1 MOL1         0.0833
       6    C3      20.600240   17.643707   21.357887 C.3        1 MOL1        -0.1813
       7    H4      20.015355   17.319951   20.486665 H          1 MOL1         0.0753
       8    H5      21.584973   17.169694   21.248257 H          1 MOL1         0.0753
       9    C4      20.789596   19.180720   21.327877 C.3        1 MOL1        -0.1855
      10    H6      21.206974   19.526598   22.283439 H          1 MOL1         0.0755
      11    H7      21.547461   19.412106   20.567065 H          1 MOL1         0.0755
      12    C5      19.513716   19.988677   20.980838 C.3        1 MOL1        -0.1855
      13    H8      19.091454   19.630700   20.031845 H          1 MOL1         0.0755
      14    H9      19.803894   21.035099   20.812648 H          1 MOL1         0.0755
      15    C6      18.420631   19.956343   22.079647 C.3        1 MOL1        -0.1958
      16    H10     17.998448   18.950799   22.173040 H          1 MOL1         0.0753
      17    H11     18.851789   20.222219   23.052137 H          1 MOL1         0.0753
      18    C7      17.268582   20.912791   21.793950 C.2        1 MOL1         0.6174
      19    O1      16.335779   20.505923   21.129701 O.co2      1 MOL1        -0.6695
      20    O2      17.343509   22.046449   22.225328 O.co2      1 MOL1        -0.6695
@<TRIPOS>BOND
    1     1     2    1
    2     1     3    1
    3     1     4    2
    4     4     5    1
    5     4     6    1
    6     6     7    1
    7     6     8    1
    8     6     9    1
    9     9    10    1
   10     9    11    1
   11     9    12    1
   12    12    13    1
   13    12    14    1
   14    12    15    1
   15    15    16    1
   16    15    17    1
   17    15    18    1
   18    18    19    1
   19    18    20    2
@<TRIPOS>SUBSTRUCTURE
       1 MOL1            1 RESIDUE      1      MOL     
@<SCITEGIC>MOL_PROPERTY
VConf Rank
SciTegic.value.IntegerValue
839

@<SCITEGIC>MOL_PROPERTY
Conf_Id
SciTegic.value.IntegerValue
51

@<SCITEGIC>MOL_PROPERTY
Delta U+W
SciTegic.value.DoubleValue
1.709

@<SCITEGIC>MOL_PROPERTY
U+W
SciTegic.value.DoubleValue
-50.036

@<SCITEGIC>MOL_PROPERTY
Grad RMS
SciTegic.value.DoubleValue
0.000000

@<SCITEGIC>MOL_PROPERTY
U
SciTegic.value.DoubleValue
10.643

@<SCITEGIC>MOL_PROPERTY
W
SciTegic.value.DoubleValue
-60.679

@<SCITEGIC>MOL_PROPERTY
W(PB)
SciTegic.value.DoubleValue
-62.882

@<SCITEGIC>MOL_PROPERTY
W(SA)
SciTegic.value.DoubleValue
2.203

@<SCITEGIC>MOL_PROPERTY
Valence
SciTegic.value.DoubleValue
11.231

@<SCITEGIC>MOL_PROPERTY
Coulomb
SciTegic.value.DoubleValue
-1.077

@<SCITEGIC>MOL_PROPERTY
VdW
SciTegic.value.DoubleValue
0.489

@<SCITEGIC>MOL_PROPERTY
VdW6
SciTegic.value.DoubleValue
-7.546

@<SCITEGIC>MOL_PROPERTY
VdW12
SciTegic.value.DoubleValue
8.035

@<SCITEGIC>MOL_PROPERTY
Bond
SciTegic.value.DoubleValue
0.159

@<SCITEGIC>MOL_PROPERTY
Angle
SciTegic.value.DoubleValue
3.005

@<SCITEGIC>MOL_PROPERTY
Pdih
SciTegic.value.DoubleValue
8.065

@<SCITEGIC>MOL_PROPERTY
Idih
SciTegic.value.DoubleValue
0.002

@<SCITEGIC>MOL_PROPERTY
Tether
SciTegic.value.DoubleValue
0.000

@<TRIPOS>MOLECULE
guest-s22_confgen4.mol2 : confsearch ligand conformer 840
          20          19           1
SMALL
USER_CHARGES
 
@<TRIPOS>ATOM
       1    C1      20.880624   21.148116   23.459930 C.2        1 MOL1        -0.2535
       2    H1      20.415211   21.057232   24.440005 H          1 MOL1         0.0845
       3    H2      21.132927   22.149186   23.114642 H          1 MOL1         0.0845
       4    C2      21.131006   20.073835   22.706974 C.2        1 MOL1        -0.1324
       5    H3      21.605636   20.184388   21.732654 H          1 MOL1         0.0833
       6    C3      20.818800   18.653881   23.128708 C.3        1 MOL1        -0.1813
       7    H4      21.148408   18.519267   24.167768 H          1 MOL1         0.0753
       8    H5      21.408029   17.942415   22.534940 H          1 MOL1         0.0753
       9    C4      19.313731   18.298450   23.041501 C.3        1 MOL1        -0.1855
      10    H6      19.137841   17.419052   23.675897 H          1 MOL1         0.0755
      11    H7      18.710763   19.107930   23.475210 H          1 MOL1         0.0755
      12    C5      18.804666   17.959868   21.617661 C.3        1 MOL1        -0.1855
      13    H8      17.787083   17.554045   21.703236 H          1 MOL1         0.0755
      14    H9      19.418734   17.159894   21.181772 H          1 MOL1         0.0755
      15    C6      18.767072   19.170380   20.649924 C.3        1 MOL1        -0.1958
      16    H10     18.235548   20.010299   21.112895 H          1 MOL1         0.0753
      17    H11     19.781541   19.511700   20.420934 H          1 MOL1         0.0753
      18    C7      18.082376   18.846903   19.326982 C.2        1 MOL1         0.6174
      19    O1      18.760532   18.397175   18.424354 O.co2      1 MOL1        -0.6695
      20    O2      16.884715   19.033763   19.239956 O.co2      1 MOL1        -0.6695
@<TRIPOS>BOND
    1     1     2    1
    2     1     3    1
    3     1     4    2
    4     4     5    1
    5     4     6    1
    6     6     7    1
    7     6     8    1
    8     6     9    1
    9     9    10    1
   10     9    11    1
   11     9    12    1
   12    12    13    1
   13    12    14    1
   14    12    15    1
   15    15    16    1
   16    15    17    1
   17    15    18    1
   18    18    19    1
   19    18    20    2
@<TRIPOS>SUBSTRUCTURE
       1 MOL1            1 RESIDUE      1      MOL     
@<SCITEGIC>MOL_PROPERTY
VConf Rank
SciTegic.value.IntegerValue
840

@<SCITEGIC>MOL_PROPERTY
Conf_Id
SciTegic.value.IntegerValue
91

@<SCITEGIC>MOL_PROPERTY
Delta U+W
SciTegic.value.DoubleValue
1.604

@<SCITEGIC>MOL_PROPERTY
U+W
SciTegic.value.DoubleValue
-50.141

@<SCITEGIC>MOL_PROPERTY
Grad RMS
SciTegic.value.DoubleValue
0.000000

@<SCITEGIC>MOL_PROPERTY
U
SciTegic.value.DoubleValue
10.644

@<SCITEGIC>MOL_PROPERTY
W
SciTegic.value.DoubleValue
-60.786

@<SCITEGIC>MOL_PROPERTY
W(PB)
SciTegic.value.DoubleValue
-62.965

@<SCITEGIC>MOL_PROPERTY
W(SA)
SciTegic.value.DoubleValue
2.179

@<SCITEGIC>MOL_PROPERTY
Valence
SciTegic.value.DoubleValue
11.230

@<SCITEGIC>MOL_PROPERTY
Coulomb
SciTegic.value.DoubleValue
-1.075

@<SCITEGIC>MOL_PROPERTY
VdW
SciTegic.value.DoubleValue
0.489

@<SCITEGIC>MOL_PROPERTY
VdW6
SciTegic.value.DoubleValue
-7.547

@<SCITEGIC>MOL_PROPERTY
VdW12
SciTegic.value.DoubleValue
8.036

@<SCITEGIC>MOL_PROPERTY
Bond
SciTegic.value.DoubleValue
0.159

@<SCITEGIC>MOL_PROPERTY
Angle
SciTegic.value.DoubleValue
3.006

@<SCITEGIC>MOL_PROPERTY
Pdih
SciTegic.value.DoubleValue
8.064

@<SCITEGIC>MOL_PROPERTY
Idih
SciTegic.value.DoubleValue
0.002

@<SCITEGIC>MOL_PROPERTY
Tether
SciTegic.value.DoubleValue
0.000

@<TRIPOS>MOLECULE
guest-s22_confgen4.mol2 : confsearch ligand conformer 841
          20          19           1
SMALL
USER_CHARGES
 
@<TRIPOS>ATOM
       1    C1      21.471169   18.324817   18.661226 C.2        1 MOL1        -0.2535
       2    H1      20.632959   17.679424   18.403421 H          1 MOL1         0.0845
       3    H2      22.402940   18.176788   18.117933 H          1 MOL1         0.0845
       4    C2      21.365535   19.260894   19.607931 C.2        1 MOL1        -0.1324
       5    H3      22.216959   19.896108   19.851319 H          1 MOL1         0.0833
       6    C3      20.105806   19.524755   20.402351 C.3        1 MOL1        -0.1813
       7    H4      19.245554   19.036437   19.924524 H          1 MOL1         0.0753
       8    H5      19.894086   20.602383   20.408372 H          1 MOL1         0.0753
       9    C4      20.244991   19.016473   21.852574 C.3        1 MOL1        -0.1855
      10    H6      20.460828   17.939133   21.840765 H          1 MOL1         0.0755
      11    H7      21.102700   19.508538   22.331498 H          1 MOL1         0.0755
      12    C5      18.967582   19.280741   22.679315 C.3        1 MOL1        -0.1855
      13    H8      18.109333   18.788468   22.201173 H          1 MOL1         0.0755
      14    H9      18.750494   20.357901   22.690466 H          1 MOL1         0.0755
      15    C6      19.107726   18.768733   24.137604 C.3        1 MOL1        -0.1958
      16    H10     19.318144   17.692802   24.134114 H          1 MOL1         0.0753
      17    H11     19.958709   19.260697   24.623100 H          1 MOL1         0.0753
      18    C7      17.883896   18.991151   25.027596 C.2        1 MOL1         0.6174
      19    O1      17.956633   18.604497   26.177094 O.co2      1 MOL1        -0.6695
      20    O2      16.897032   19.535200   24.570695 O.co2      1 MOL1        -0.6695
@<TRIPOS>BOND
    1     1     2    1
    2     1     3    1
    3     1     4    2
    4     4     5    1
    5     4     6    1
    6     6     7    1
    7     6     8    1
    8     6     9    1
    9     9    10    1
   10     9    11    1
   11     9    12    1
   12    12    13    1
   13    12    14    1
   14    12    15    1
   15    15    16    1
   16    15    17    1
   17    15    18    1
   18    18    19    1
   19    18    20    2
@<TRIPOS>SUBSTRUCTURE
       1 MOL1            1 RESIDUE      1      MOL     
@<SCITEGIC>MOL_PROPERTY
VConf Rank
SciTegic.value.IntegerValue
841

@<SCITEGIC>MOL_PROPERTY
Conf_Id
SciTegic.value.IntegerValue
33

@<SCITEGIC>MOL_PROPERTY
Delta U+W
SciTegic.value.DoubleValue
0.000

@<SCITEGIC>MOL_PROPERTY
U+W
SciTegic.value.DoubleValue
-51.745

@<SCITEGIC>MOL_PROPERTY
Grad RMS
SciTegic.value.DoubleValue
0.000000

@<SCITEGIC>MOL_PROPERTY
U
SciTegic.value.DoubleValue
7.593

@<SCITEGIC>MOL_PROPERTY
W
SciTegic.value.DoubleValue
-59.338

@<SCITEGIC>MOL_PROPERTY
W(PB)
SciTegic.value.DoubleValue
-61.574

@<SCITEGIC>MOL_PROPERTY
W(SA)
SciTegic.value.DoubleValue
2.236

@<SCITEGIC>MOL_PROPERTY
Valence
SciTegic.value.DoubleValue
9.570

@<SCITEGIC>MOL_PROPERTY
Coulomb
SciTegic.value.DoubleValue
-3.091

@<SCITEGIC>MOL_PROPERTY
VdW
SciTegic.value.DoubleValue
1.114

@<SCITEGIC>MOL_PROPERTY
VdW6
SciTegic.value.DoubleValue
-6.064

@<SCITEGIC>MOL_PROPERTY
VdW12
SciTegic.value.DoubleValue
7.178

@<SCITEGIC>MOL_PROPERTY
Bond
SciTegic.value.DoubleValue
0.117

@<SCITEGIC>MOL_PROPERTY
Angle
SciTegic.value.DoubleValue
2.692

@<SCITEGIC>MOL_PROPERTY
Pdih
SciTegic.value.DoubleValue
6.761

@<SCITEGIC>MOL_PROPERTY
Idih
SciTegic.value.DoubleValue
0.000

@<SCITEGIC>MOL_PROPERTY
Tether
SciTegic.value.DoubleValue
0.000

@<TRIPOS>MOLECULE
guest-s22_confgen4.mol2 : confsearch ligand conformer 842
          20          19           1
SMALL
USER_CHARGES
 
@<TRIPOS>ATOM
       1    C1      21.929973   17.383889   24.231567 C.2        1 MOL1        -0.2535
       2    H1      21.370135   17.818269   25.058291 H          1 MOL1         0.0845
       3    H2      22.871175   16.890601   24.468347 H          1 MOL1         0.0845
       4    C2      21.484398   17.453420   22.974466 C.2        1 MOL1        -0.1324
       5    H3      22.060540   17.012803   22.161110 H          1 MOL1         0.0833
       6    C3      20.188549   18.120352   22.569867 C.3        1 MOL1        -0.1813
       7    H4      19.562535   18.301391   23.454134 H          1 MOL1         0.0753
       8    H5      19.624911   17.443994   21.914961 H          1 MOL1         0.0753
       9    C4      20.456063   19.459120   21.846025 C.3        1 MOL1        -0.1855
      10    H6      21.092374   20.085940   22.485983 H          1 MOL1         0.0755
      11    H7      21.027832   19.274224   20.926304 H          1 MOL1         0.0755
      12    C5      19.167589   20.246659   21.508687 C.3        1 MOL1        -0.1855
      13    H8      19.450622   21.227777   21.102739 H          1 MOL1         0.0755
      14    H9      18.601180   20.443946   22.429368 H          1 MOL1         0.0755
      15    C6      18.253713   19.527974   20.482385 C.3        1 MOL1        -0.1958
      16    H10     18.819874   19.287346   19.574672 H          1 MOL1         0.0753
      17    H11     17.879351   18.583456   20.892852 H          1 MOL1         0.0753
      18    C7      17.047400   20.367953   20.078386 C.2        1 MOL1         0.6174
      19    O1      16.033005   20.270986   20.740433 O.co2      1 MOL1        -0.6695
      20    O2      17.160147   21.111949   19.124189 O.co2      1 MOL1        -0.6695
@<TRIPOS>BOND
    1     1     2    1
    2     1     3    1
    3     1     4    2
    4     4     5    1
    5     4     6    1
    6     6     7    1
    7     6     8    1
    8     6     9    1
    9     9    10    1
   10     9    11    1
   11     9    12    1
   12    12    13    1
   13    12    14    1
   14    12    15    1
   15    15    16    1
   16    15    17    1
   17    15    18    1
   18    18    19    1
   19    18    20    2
@<TRIPOS>SUBSTRUCTURE
       1 MOL1            1 RESIDUE      1      MOL     
@<SCITEGIC>MOL_PROPERTY
VConf Rank
SciTegic.value.IntegerValue
842

@<SCITEGIC>MOL_PROPERTY
Conf_Id
SciTegic.value.IntegerValue
37

@<SCITEGIC>MOL_PROPERTY
Delta U+W
SciTegic.value.DoubleValue
-0.384

@<SCITEGIC>MOL_PROPERTY
U+W
SciTegic.value.DoubleValue
-52.130

@<SCITEGIC>MOL_PROPERTY
Grad RMS
SciTegic.value.DoubleValue
0.000000

@<SCITEGIC>MOL_PROPERTY
U
SciTegic.value.DoubleValue
7.491

@<SCITEGIC>MOL_PROPERTY
W
SciTegic.value.DoubleValue
-59.621

@<SCITEGIC>MOL_PROPERTY
W(PB)
SciTegic.value.DoubleValue
-61.853

@<SCITEGIC>MOL_PROPERTY
W(SA)
SciTegic.value.DoubleValue
2.232

@<SCITEGIC>MOL_PROPERTY
Valence
SciTegic.value.DoubleValue
9.604

@<SCITEGIC>MOL_PROPERTY
Coulomb
SciTegic.value.DoubleValue
-2.799

@<SCITEGIC>MOL_PROPERTY
VdW
SciTegic.value.DoubleValue
0.686

@<SCITEGIC>MOL_PROPERTY
VdW6
SciTegic.value.DoubleValue
-6.435

@<SCITEGIC>MOL_PROPERTY
VdW12
SciTegic.value.DoubleValue
7.121

@<SCITEGIC>MOL_PROPERTY
Bond
SciTegic.value.DoubleValue
0.124

@<SCITEGIC>MOL_PROPERTY
Angle
SciTegic.value.DoubleValue
2.493

@<SCITEGIC>MOL_PROPERTY
Pdih
SciTegic.value.DoubleValue
6.986

@<SCITEGIC>MOL_PROPERTY
Idih
SciTegic.value.DoubleValue
0.001

@<SCITEGIC>MOL_PROPERTY
Tether
SciTegic.value.DoubleValue
0.000

@<TRIPOS>MOLECULE
guest-s22_confgen4.mol2 : confsearch ligand conformer 843
          20          19           1
SMALL
USER_CHARGES
 
@<TRIPOS>ATOM
       1    C1      21.365379   17.293419   19.500235 C.2        1 MOL1        -0.2535
       2    H1      21.863578   16.723177   18.718050 H          1 MOL1         0.0845
       3    H2      21.926990   18.112891   19.943636 H          1 MOL1         0.0845
       4    C2      20.121298   16.984915   19.883646 C.2        1 MOL1        -0.1324
       5    H3      19.609476   16.152148   19.401812 H          1 MOL1         0.0833
       6    C3      19.300975   17.684250   20.954633 C.3        1 MOL1        -0.1813
       7    H4      19.006073   16.945411   21.711789 H          1 MOL1         0.0753
       8    H5      18.363348   18.038485   20.505735 H          1 MOL1         0.0753
       9    C4      20.009116   18.869531   21.651504 C.3        1 MOL1        -0.1855
      10    H6      20.938050   18.517480   22.120790 H          1 MOL1         0.0755
      11    H7      20.288375   19.622402   20.901646 H          1 MOL1         0.0755
      12    C5      19.109828   19.523379   22.723318 C.3        1 MOL1        -0.1855
      13    H8      18.826827   18.775079   23.476687 H          1 MOL1         0.0755
      14    H9      18.178483   19.877732   22.260032 H          1 MOL1         0.0755
      15    C6      19.816690   20.710579   23.422593 C.3        1 MOL1        -0.1958
      16    H10     20.742562   20.370928   23.902176 H          1 MOL1         0.0753
      17    H11     20.094282   21.473573   22.685447 H          1 MOL1         0.0753
      18    C7      18.948291   21.373343   24.485897 C.2        1 MOL1         0.6174
      19    O1      19.007452   20.946972   25.622276 O.co2      1 MOL1        -0.6695
      20    O2      18.220986   22.285448   24.145693 O.co2      1 MOL1        -0.6695
@<TRIPOS>BOND
    1     1     2    1
    2     1     3    1
    3     1     4    2
    4     4     5    1
    5     4     6    1
    6     6     7    1
    7     6     8    1
    8     6     9    1
    9     9    10    1
   10     9    11    1
   11     9    12    1
   12    12    13    1
   13    12    14    1
   14    12    15    1
   15    15    16    1
   16    15    17    1
   17    15    18    1
   18    18    19    1
   19    18    20    2
@<TRIPOS>SUBSTRUCTURE
       1 MOL1            1 RESIDUE      1      MOL     
@<SCITEGIC>MOL_PROPERTY
VConf Rank
SciTegic.value.IntegerValue
843

@<SCITEGIC>MOL_PROPERTY
Conf_Id
SciTegic.value.IntegerValue
44

@<SCITEGIC>MOL_PROPERTY
Delta U+W
SciTegic.value.DoubleValue
-1.440

@<SCITEGIC>MOL_PROPERTY
U+W
SciTegic.value.DoubleValue
-53.185

@<SCITEGIC>MOL_PROPERTY
Grad RMS
SciTegic.value.DoubleValue
0.000000

@<SCITEGIC>MOL_PROPERTY
U
SciTegic.value.DoubleValue
6.572

@<SCITEGIC>MOL_PROPERTY
W
SciTegic.value.DoubleValue
-59.757

@<SCITEGIC>MOL_PROPERTY
W(PB)
SciTegic.value.DoubleValue
-62.007

@<SCITEGIC>MOL_PROPERTY
W(SA)
SciTegic.value.DoubleValue
2.249

@<SCITEGIC>MOL_PROPERTY
Valence
SciTegic.value.DoubleValue
7.989

@<SCITEGIC>MOL_PROPERTY
Coulomb
SciTegic.value.DoubleValue
-2.697

@<SCITEGIC>MOL_PROPERTY
VdW
SciTegic.value.DoubleValue
1.281

@<SCITEGIC>MOL_PROPERTY
VdW6
SciTegic.value.DoubleValue
-6.467

@<SCITEGIC>MOL_PROPERTY
VdW12
SciTegic.value.DoubleValue
7.748

@<SCITEGIC>MOL_PROPERTY
Bond
SciTegic.value.DoubleValue
0.136

@<SCITEGIC>MOL_PROPERTY
Angle
SciTegic.value.DoubleValue
2.854

@<SCITEGIC>MOL_PROPERTY
Pdih
SciTegic.value.DoubleValue
4.997

@<SCITEGIC>MOL_PROPERTY
Idih
SciTegic.value.DoubleValue
0.001

@<SCITEGIC>MOL_PROPERTY
Tether
SciTegic.value.DoubleValue
0.000

@<TRIPOS>MOLECULE
guest-s22_confgen4.mol2 : confsearch ligand conformer 844
          20          19           1
SMALL
USER_CHARGES
 
@<TRIPOS>ATOM
       1    C1      20.078308   21.579653   19.571561 C.2        1 MOL1        -0.2535
       2    H1      20.132550   22.182582   20.476609 H          1 MOL1         0.0845
       3    H2      19.914036   22.102156   18.630678 H          1 MOL1         0.0845
       4    C2      20.205110   20.250682   19.609932 C.2        1 MOL1        -0.1324
       5    H3      20.147118   19.665630   18.692333 H          1 MOL1         0.0833
       6    C3      20.435976   19.457216   20.876822 C.3        1 MOL1        -0.1813
       7    H4      20.747852   20.129745   21.686166 H          1 MOL1         0.0753
       8    H5      21.258567   18.746867   20.719723 H          1 MOL1         0.0753
       9    C4      19.160383   18.689721   21.291280 C.3        1 MOL1        -0.1855
      10    H6      18.353058   19.404807   21.501213 H          1 MOL1         0.0755
      11    H7      18.821061   18.079733   20.442835 H          1 MOL1         0.0755
      12    C5      19.366652   17.763023   22.513166 C.3        1 MOL1        -0.1855
      13    H8      20.167276   17.040978   22.300979 H          1 MOL1         0.0755
      14    H9      18.451465   17.174611   22.667137 H          1 MOL1         0.0755
      15    C6      19.692482   18.527892   23.822314 C.3        1 MOL1        -0.1958
      16    H10     20.649461   19.054414   23.734745 H          1 MOL1         0.0753
      17    H11     18.922288   19.282566   24.021475 H          1 MOL1         0.0753
      18    C7      19.778844   17.608880   25.035528 C.2        1 MOL1         0.6174
      19    O1      18.764132   17.400959   25.671030 O.co2      1 MOL1        -0.6695
      20    O2      20.854167   17.109232   25.301509 O.co2      1 MOL1        -0.6695
@<TRIPOS>BOND
    1     1     2    1
    2     1     3    1
    3     1     4    2
    4     4     5    1
    5     4     6    1
    6     6     7    1
    7     6     8    1
    8     6     9    1
    9     9    10    1
   10     9    11    1
   11     9    12    1
   12    12    13    1
   13    12    14    1
   14    12    15    1
   15    15    16    1
   16    15    17    1
   17    15    18    1
   18    18    19    1
   19    18    20    2
@<TRIPOS>SUBSTRUCTURE
       1 MOL1            1 RESIDUE      1      MOL     
@<SCITEGIC>MOL_PROPERTY
VConf Rank
SciTegic.value.IntegerValue
844

@<SCITEGIC>MOL_PROPERTY
Conf_Id
SciTegic.value.IntegerValue
38

@<SCITEGIC>MOL_PROPERTY
Delta U+W
SciTegic.value.DoubleValue
-0.381

@<SCITEGIC>MOL_PROPERTY
U+W
SciTegic.value.DoubleValue
-52.126

@<SCITEGIC>MOL_PROPERTY
Grad RMS
SciTegic.value.DoubleValue
0.000000

@<SCITEGIC>MOL_PROPERTY
U
SciTegic.value.DoubleValue
7.601

@<SCITEGIC>MOL_PROPERTY
W
SciTegic.value.DoubleValue
-59.727

@<SCITEGIC>MOL_PROPERTY
W(PB)
SciTegic.value.DoubleValue
-61.964

@<SCITEGIC>MOL_PROPERTY
W(SA)
SciTegic.value.DoubleValue
2.236

@<SCITEGIC>MOL_PROPERTY
Valence
SciTegic.value.DoubleValue
9.602

@<SCITEGIC>MOL_PROPERTY
Coulomb
SciTegic.value.DoubleValue
-2.686

@<SCITEGIC>MOL_PROPERTY
VdW
SciTegic.value.DoubleValue
0.685

@<SCITEGIC>MOL_PROPERTY
VdW6
SciTegic.value.DoubleValue
-6.453

@<SCITEGIC>MOL_PROPERTY
VdW12
SciTegic.value.DoubleValue
7.139

@<SCITEGIC>MOL_PROPERTY
Bond
SciTegic.value.DoubleValue
0.125

@<SCITEGIC>MOL_PROPERTY
Angle
SciTegic.value.DoubleValue
2.485

@<SCITEGIC>MOL_PROPERTY
Pdih
SciTegic.value.DoubleValue
6.991

@<SCITEGIC>MOL_PROPERTY
Idih
SciTegic.value.DoubleValue
0.001

@<SCITEGIC>MOL_PROPERTY
Tether
SciTegic.value.DoubleValue
0.000

@<TRIPOS>MOLECULE
guest-s22_confgen4.mol2 : confsearch ligand conformer 845
          20          19           1
SMALL
USER_CHARGES
 
@<TRIPOS>ATOM
       1    C1      17.056907   17.824010   20.125742 C.2        1 MOL1        -0.2535
       2    H1      16.565233   17.413978   21.006485 H          1 MOL1         0.0845
       3    H2      16.447035   17.976110   19.236816 H          1 MOL1         0.0845
       4    C2      18.356454   18.131908   20.132015 C.2        1 MOL1        -0.1324
       5    H3      18.829211   18.542241   19.239946 H          1 MOL1         0.0833
       6    C3      19.265548   17.948041   21.326749 C.3        1 MOL1        -0.1813
       7    H4      20.183867   17.433366   21.013820 H          1 MOL1         0.0753
       8    H5      18.783097   17.306236   22.076462 H          1 MOL1         0.0753
       9    C4      19.626018   19.305113   21.966615 C.3        1 MOL1        -0.1855
      10    H6      20.110469   19.944193   21.215406 H          1 MOL1         0.0755
      11    H7      18.704750   19.819014   22.273931 H          1 MOL1         0.0755
      12    C5      20.557544   19.135295   23.187988 C.3        1 MOL1        -0.1855
      13    H8      21.484710   18.630940   22.881905 H          1 MOL1         0.0755
      14    H9      20.071649   18.482894   23.926136 H          1 MOL1         0.0755
      15    C6      20.907069   20.486619   23.863748 C.3        1 MOL1        -0.1958
      16    H10     19.989948   21.015466   24.150222 H          1 MOL1         0.0753
      17    H11     21.467834   20.300384   24.787240 H          1 MOL1         0.0753
      18    C7      21.752966   21.413607   22.995407 C.2        1 MOL1         0.6174
      19    O1      21.211754   22.370709   22.477703 O.co2      1 MOL1        -0.6695
      20    O2      22.934649   21.159109   22.869103 O.co2      1 MOL1        -0.6695
@<TRIPOS>BOND
    1     1     2    1
    2     1     3    1
    3     1     4    2
    4     4     5    1
    5     4     6    1
    6     6     7    1
    7     6     8    1
    8     6     9    1
    9     9    10    1
   10     9    11    1
   11     9    12    1
   12    12    13    1
   13    12    14    1
   14    12    15    1
   15    15    16    1
   16    15    17    1
   17    15    18    1
   18    18    19    1
   19    18    20    2
@<TRIPOS>SUBSTRUCTURE
       1 MOL1            1 RESIDUE      1      MOL     
@<SCITEGIC>MOL_PROPERTY
VConf Rank
SciTegic.value.IntegerValue
845

@<SCITEGIC>MOL_PROPERTY
Conf_Id
SciTegic.value.IntegerValue
58

@<SCITEGIC>MOL_PROPERTY
Delta U+W
SciTegic.value.DoubleValue
0.019

@<SCITEGIC>MOL_PROPERTY
U+W
SciTegic.value.DoubleValue
-51.727

@<SCITEGIC>MOL_PROPERTY
Grad RMS
SciTegic.value.DoubleValue
0.000000

@<SCITEGIC>MOL_PROPERTY
U
SciTegic.value.DoubleValue
8.963

@<SCITEGIC>MOL_PROPERTY
W
SciTegic.value.DoubleValue
-60.690

@<SCITEGIC>MOL_PROPERTY
W(PB)
SciTegic.value.DoubleValue
-62.934

@<SCITEGIC>MOL_PROPERTY
W(SA)
SciTegic.value.DoubleValue
2.244

@<SCITEGIC>MOL_PROPERTY
Valence
SciTegic.value.DoubleValue
9.327

@<SCITEGIC>MOL_PROPERTY
Coulomb
SciTegic.value.DoubleValue
-0.780

@<SCITEGIC>MOL_PROPERTY
VdW
SciTegic.value.DoubleValue
0.417

@<SCITEGIC>MOL_PROPERTY
VdW6
SciTegic.value.DoubleValue
-6.635

@<SCITEGIC>MOL_PROPERTY
VdW12
SciTegic.value.DoubleValue
7.052

@<SCITEGIC>MOL_PROPERTY
Bond
SciTegic.value.DoubleValue
0.105

@<SCITEGIC>MOL_PROPERTY
Angle
SciTegic.value.DoubleValue
2.399

@<SCITEGIC>MOL_PROPERTY
Pdih
SciTegic.value.DoubleValue
6.822

@<SCITEGIC>MOL_PROPERTY
Idih
SciTegic.value.DoubleValue
0.000

@<SCITEGIC>MOL_PROPERTY
Tether
SciTegic.value.DoubleValue
0.000

@<TRIPOS>MOLECULE
guest-s22_confgen4.mol2 : confsearch ligand conformer 846
          20          19           1
SMALL
USER_CHARGES
 
@<TRIPOS>ATOM
       1    C1      21.859547   18.951171   19.185812 C.2        1 MOL1        -0.2535
       2    H1      21.025568   19.035798   18.490907 H          1 MOL1         0.0845
       3    H2      22.771496   18.482955   18.819218 H          1 MOL1         0.0845
       4    C2      21.770685   19.400433   20.440377 C.2        1 MOL1        -0.1324
       5    H3      22.616946   19.305157   21.120395 H          1 MOL1         0.0833
       6    C3      20.539354   20.061164   21.019083 C.3        1 MOL1        -0.1813
       7    H4      19.846347   20.344249   20.215127 H          1 MOL1         0.0753
       8    H5      20.826676   20.989683   21.530380 H          1 MOL1         0.0753
       9    C4      19.819815   19.125275   22.012757 C.3        1 MOL1        -0.1855
      10    H6      19.538233   18.195771   21.498941 H          1 MOL1         0.0755
      11    H7      20.514342   18.845507   22.816992 H          1 MOL1         0.0755
      12    C5      18.560125   19.786743   22.616056 C.3        1 MOL1        -0.1855
      13    H8      17.879359   20.076868   21.804287 H          1 MOL1         0.0755
      14    H9      18.839755   20.711407   23.139982 H          1 MOL1         0.0755
      15    C6      17.805526   18.850044   23.594866 C.3        1 MOL1        -0.1958
      16    H10     16.863316   19.320599   23.899490 H          1 MOL1         0.0753
      17    H11     17.543760   17.910125   23.093978 H          1 MOL1         0.0753
      18    C7      18.584604   18.524158   24.865969 C.2        1 MOL1         0.6174
      19    O1      18.660061   19.379496   25.726085 O.co2      1 MOL1        -0.6695
      20    O2      19.085569   17.421594   24.967735 O.co2      1 MOL1        -0.6695
@<TRIPOS>BOND
    1     1     2    1
    2     1     3    1
    3     1     4    2
    4     4     5    1
    5     4     6    1
    6     6     7    1
    7     6     8    1
    8     6     9    1
    9     9    10    1
   10     9    11    1
   11     9    12    1
   12    12    13    1
   13    12    14    1
   14    12    15    1
   15    15    16    1
   16    15    17    1
   17    15    18    1
   18    18    19    1
   19    18    20    2
@<TRIPOS>SUBSTRUCTURE
       1 MOL1            1 RESIDUE      1      MOL     
@<SCITEGIC>MOL_PROPERTY
VConf Rank
SciTegic.value.IntegerValue
846

@<SCITEGIC>MOL_PROPERTY
Conf_Id
SciTegic.value.IntegerValue
54

@<SCITEGIC>MOL_PROPERTY
Delta U+W
SciTegic.value.DoubleValue
-0.048

@<SCITEGIC>MOL_PROPERTY
U+W
SciTegic.value.DoubleValue
-51.793

@<SCITEGIC>MOL_PROPERTY
Grad RMS
SciTegic.value.DoubleValue
0.000000

@<SCITEGIC>MOL_PROPERTY
U
SciTegic.value.DoubleValue
8.964

@<SCITEGIC>MOL_PROPERTY
W
SciTegic.value.DoubleValue
-60.756

@<SCITEGIC>MOL_PROPERTY
W(PB)
SciTegic.value.DoubleValue
-63.007

@<SCITEGIC>MOL_PROPERTY
W(SA)
SciTegic.value.DoubleValue
2.251

@<SCITEGIC>MOL_PROPERTY
Valence
SciTegic.value.DoubleValue
9.327

@<SCITEGIC>MOL_PROPERTY
Coulomb
SciTegic.value.DoubleValue
-0.780

@<SCITEGIC>MOL_PROPERTY
VdW
SciTegic.value.DoubleValue
0.417

@<SCITEGIC>MOL_PROPERTY
VdW6
SciTegic.value.DoubleValue
-6.635

@<SCITEGIC>MOL_PROPERTY
VdW12
SciTegic.value.DoubleValue
7.052

@<SCITEGIC>MOL_PROPERTY
Bond
SciTegic.value.DoubleValue
0.105

@<SCITEGIC>MOL_PROPERTY
Angle
SciTegic.value.DoubleValue
2.399

@<SCITEGIC>MOL_PROPERTY
Pdih
SciTegic.value.DoubleValue
6.822

@<SCITEGIC>MOL_PROPERTY
Idih
SciTegic.value.DoubleValue
0.000

@<SCITEGIC>MOL_PROPERTY
Tether
SciTegic.value.DoubleValue
0.000

@<TRIPOS>MOLECULE
guest-s22_confgen4.mol2 : confsearch ligand conformer 847
          20          19           1
SMALL
USER_CHARGES
 
@<TRIPOS>ATOM
       1    C1      18.795434   22.278057   22.526372 C.2        1 MOL1        -0.2535
       2    H1      17.932836   22.722590   23.019831 H          1 MOL1         0.0845
       3    H2      19.753998   22.781103   22.643026 H          1 MOL1         0.0845
       4    C2      18.678740   21.157467   21.809201 C.2        1 MOL1        -0.1324
       5    H3      17.709141   20.671956   21.702389 H          1 MOL1         0.0833
       6    C3      19.830549   20.487312   21.090817 C.3        1 MOL1        -0.1813
       7    H4      20.646672   21.208323   20.947231 H          1 MOL1         0.0753
       8    H5      19.515095   20.176490   20.085867 H          1 MOL1         0.0753
       9    C4      20.378712   19.267763   21.865683 C.3        1 MOL1        -0.1855
      10    H6      21.291473   18.915471   21.365941 H          1 MOL1         0.0755
      11    H7      20.676279   19.580466   22.876033 H          1 MOL1         0.0755
      12    C5      19.361916   18.104908   21.955101 C.3        1 MOL1        -0.1855
      13    H8      19.053043   17.801708   20.945099 H          1 MOL1         0.0755
      14    H9      18.456777   18.448387   22.473021 H          1 MOL1         0.0755
      15    C6      19.929123   16.874552   22.709875 C.3        1 MOL1        -0.1958
      16    H10     20.273109   17.168705   23.708864 H          1 MOL1         0.0753
      17    H11     19.133422   16.134128   22.853364 H          1 MOL1         0.0753
      18    C7      21.076315   16.176184   21.985260 C.2        1 MOL1         0.6174
      19    O1      22.206292   16.342876   22.400489 O.co2      1 MOL1        -0.6695
      20    O2      20.807274   15.474516   21.030067 O.co2      1 MOL1        -0.6695
@<TRIPOS>BOND
    1     1     2    1
    2     1     3    1
    3     1     4    2
    4     4     5    1
    5     4     6    1
    6     6     7    1
    7     6     8    1
    8     6     9    1
    9     9    10    1
   10     9    11    1
   11     9    12    1
   12    12    13    1
   13    12    14    1
   14    12    15    1
   15    15    16    1
   16    15    17    1
   17    15    18    1
   18    18    19    1
   19    18    20    2
@<TRIPOS>SUBSTRUCTURE
       1 MOL1            1 RESIDUE      1      MOL     
@<SCITEGIC>MOL_PROPERTY
VConf Rank
SciTegic.value.IntegerValue
847

@<SCITEGIC>MOL_PROPERTY
Conf_Id
SciTegic.value.IntegerValue
27

@<SCITEGIC>MOL_PROPERTY
Delta U+W
SciTegic.value.DoubleValue
0.478

@<SCITEGIC>MOL_PROPERTY
U+W
SciTegic.value.DoubleValue
-51.267

@<SCITEGIC>MOL_PROPERTY
Grad RMS
SciTegic.value.DoubleValue
0.000000

@<SCITEGIC>MOL_PROPERTY
U
SciTegic.value.DoubleValue
9.192

@<SCITEGIC>MOL_PROPERTY
W
SciTegic.value.DoubleValue
-60.459

@<SCITEGIC>MOL_PROPERTY
W(PB)
SciTegic.value.DoubleValue
-62.649

@<SCITEGIC>MOL_PROPERTY
W(SA)
SciTegic.value.DoubleValue
2.190

@<SCITEGIC>MOL_PROPERTY
Valence
SciTegic.value.DoubleValue
9.572

@<SCITEGIC>MOL_PROPERTY
Coulomb
SciTegic.value.DoubleValue
-0.884

@<SCITEGIC>MOL_PROPERTY
VdW
SciTegic.value.DoubleValue
0.504

@<SCITEGIC>MOL_PROPERTY
VdW6
SciTegic.value.DoubleValue
-7.168

@<SCITEGIC>MOL_PROPERTY
VdW12
SciTegic.value.DoubleValue
7.672

@<SCITEGIC>MOL_PROPERTY
Bond
SciTegic.value.DoubleValue
0.127

@<SCITEGIC>MOL_PROPERTY
Angle
SciTegic.value.DoubleValue
2.504

@<SCITEGIC>MOL_PROPERTY
Pdih
SciTegic.value.DoubleValue
6.941

@<SCITEGIC>MOL_PROPERTY
Idih
SciTegic.value.DoubleValue
0.001

@<SCITEGIC>MOL_PROPERTY
Tether
SciTegic.value.DoubleValue
0.000

@<TRIPOS>MOLECULE
guest-s22_confgen4.mol2 : confsearch ligand conformer 848
          20          19           1
SMALL
USER_CHARGES
 
@<TRIPOS>ATOM
       1    C1      17.124717   19.835883   20.020618 C.2        1 MOL1        -0.2535
       2    H1      16.231877   19.337156   20.394266 H          1 MOL1         0.0845
       3    H2      17.148494   20.095479   18.963621 H          1 MOL1         0.0845
       4    C2      18.154156   20.117074   20.823652 C.2        1 MOL1        -0.1324
       5    H3      19.037062   20.619610   20.429662 H          1 MOL1         0.0833
       6    C3      18.189184   19.792478   22.301897 C.3        1 MOL1        -0.1813
       7    H4      17.166896   19.630876   22.669821 H          1 MOL1         0.0753
       8    H5      18.586088   20.648614   22.863644 H          1 MOL1         0.0753
       9    C4      19.030369   18.532733   22.607691 C.3        1 MOL1        -0.1855
      10    H6      18.908634   18.275255   23.668711 H          1 MOL1         0.0755
      11    H7      18.638395   17.683562   22.031000 H          1 MOL1         0.0755
      12    C5      20.533510   18.724727   22.301514 C.3        1 MOL1        -0.1855
      13    H8      20.917779   19.590112   22.859012 H          1 MOL1         0.0755
      14    H9      20.673862   18.944341   21.234390 H          1 MOL1         0.0755
      15    C6      21.360986   17.469292   22.671956 C.3        1 MOL1        -0.1958
      16    H10     21.247929   17.241843   23.738737 H          1 MOL1         0.0753
      17    H11     20.997026   16.598163   22.114035 H          1 MOL1         0.0753
      18    C7      22.847902   17.632766   22.378013 C.2        1 MOL1         0.6174
      19    O1      23.255639   17.303662   21.281609 O.co2      1 MOL1        -0.6695
      20    O2      23.556165   18.101356   23.247200 O.co2      1 MOL1        -0.6695
@<TRIPOS>BOND
    1     1     2    1
    2     1     3    1
    3     1     4    2
    4     4     5    1
    5     4     6    1
    6     6     7    1
    7     6     8    1
    8     6     9    1
    9     9    10    1
   10     9    11    1
   11     9    12    1
   12    12    13    1
   13    12    14    1
   14    12    15    1
   15    15    16    1
   16    15    17    1
   17    15    18    1
   18    18    19    1
   19    18    20    2
@<TRIPOS>SUBSTRUCTURE
       1 MOL1            1 RESIDUE      1      MOL     
@<SCITEGIC>MOL_PROPERTY
VConf Rank
SciTegic.value.IntegerValue
848

@<SCITEGIC>MOL_PROPERTY
Conf_Id
SciTegic.value.IntegerValue
41

@<SCITEGIC>MOL_PROPERTY
Delta U+W
SciTegic.value.DoubleValue
-0.634

@<SCITEGIC>MOL_PROPERTY
U+W
SciTegic.value.DoubleValue
-52.379

@<SCITEGIC>MOL_PROPERTY
Grad RMS
SciTegic.value.DoubleValue
0.000000

@<SCITEGIC>MOL_PROPERTY
U
SciTegic.value.DoubleValue
7.828

@<SCITEGIC>MOL_PROPERTY
W
SciTegic.value.DoubleValue
-60.207

@<SCITEGIC>MOL_PROPERTY
W(PB)
SciTegic.value.DoubleValue
-62.449

@<SCITEGIC>MOL_PROPERTY
W(SA)
SciTegic.value.DoubleValue
2.242

@<SCITEGIC>MOL_PROPERTY
Valence
SciTegic.value.DoubleValue
9.300

@<SCITEGIC>MOL_PROPERTY
Coulomb
SciTegic.value.DoubleValue
-2.080

@<SCITEGIC>MOL_PROPERTY
VdW
SciTegic.value.DoubleValue
0.608

@<SCITEGIC>MOL_PROPERTY
VdW6
SciTegic.value.DoubleValue
-6.341

@<SCITEGIC>MOL_PROPERTY
VdW12
SciTegic.value.DoubleValue
6.949

@<SCITEGIC>MOL_PROPERTY
Bond
SciTegic.value.DoubleValue
0.103

@<SCITEGIC>MOL_PROPERTY
Angle
SciTegic.value.DoubleValue
2.334

@<SCITEGIC>MOL_PROPERTY
Pdih
SciTegic.value.DoubleValue
6.862

@<SCITEGIC>MOL_PROPERTY
Idih
SciTegic.value.DoubleValue
0.001

@<SCITEGIC>MOL_PROPERTY
Tether
SciTegic.value.DoubleValue
0.000

@<TRIPOS>MOLECULE
guest-s22_confgen4.mol2 : confsearch ligand conformer 849
          20          19           1
SMALL
USER_CHARGES
 
@<TRIPOS>ATOM
       1    C1      19.368806   19.741073   18.820521 C.2        1 MOL1        -0.2535
       2    H1      19.774654   20.153836   17.898484 H          1 MOL1         0.0845
       3    H2      18.458469   19.148365   18.746116 H          1 MOL1         0.0845
       4    C2      19.968583   19.953971   19.994684 C.2        1 MOL1        -0.1324
       5    H3      20.879612   20.549679   20.047808 H          1 MOL1         0.0833
       6    C3      19.464141   19.415014   21.314784 C.3        1 MOL1        -0.1813
       7    H4      18.430569   19.058479   21.209969 H          1 MOL1         0.0753
       8    H5      19.448341   20.227799   22.052405 H          1 MOL1         0.0753
       9    C4      20.359062   18.262007   21.821606 C.3        1 MOL1        -0.1855
      10    H6      20.443372   17.504533   21.030225 H          1 MOL1         0.0755
      11    H7      21.376421   18.637328   21.998733 H          1 MOL1         0.0755
      12    C5      19.821038   17.578396   23.102776 C.3        1 MOL1        -0.1855
      13    H8      20.470308   16.726602   23.348298 H          1 MOL1         0.0755
      14    H9      18.826988   17.158290   22.898371 H          1 MOL1         0.0755
      15    C6      19.734383   18.512107   24.340958 C.3        1 MOL1        -0.1958
      16    H10     19.034487   19.335129   24.157152 H          1 MOL1         0.0753
      17    H11     19.334209   17.949363   25.192360 H          1 MOL1         0.0753
      18    C7      21.075067   19.098208   24.774307 C.2        1 MOL1         0.6174
      19    O1      21.879319   18.356831   25.304348 O.co2      1 MOL1        -0.6695
      20    O2      21.273372   20.282570   24.587454 O.co2      1 MOL1        -0.6695
@<TRIPOS>BOND
    1     1     2    1
    2     1     3    1
    3     1     4    2
    4     4     5    1
    5     4     6    1
    6     6     7    1
    7     6     8    1
    8     6     9    1
    9     9    10    1
   10     9    11    1
   11     9    12    1
   12    12    13    1
   13    12    14    1
   14    12    15    1
   15    15    16    1
   16    15    17    1
   17    15    18    1
   18    18    19    1
   19    18    20    2
@<TRIPOS>SUBSTRUCTURE
       1 MOL1            1 RESIDUE      1      MOL     
@<SCITEGIC>MOL_PROPERTY
VConf Rank
SciTegic.value.IntegerValue
849

@<SCITEGIC>MOL_PROPERTY
Conf_Id
SciTegic.value.IntegerValue
84

@<SCITEGIC>MOL_PROPERTY
Delta U+W
SciTegic.value.DoubleValue
0.942

@<SCITEGIC>MOL_PROPERTY
U+W
SciTegic.value.DoubleValue
-50.803

@<SCITEGIC>MOL_PROPERTY
Grad RMS
SciTegic.value.DoubleValue
0.000000

@<SCITEGIC>MOL_PROPERTY
U
SciTegic.value.DoubleValue
10.196

@<SCITEGIC>MOL_PROPERTY
W
SciTegic.value.DoubleValue
-60.999

@<SCITEGIC>MOL_PROPERTY
W(PB)
SciTegic.value.DoubleValue
-63.182

@<SCITEGIC>MOL_PROPERTY
W(SA)
SciTegic.value.DoubleValue
2.182

@<SCITEGIC>MOL_PROPERTY
Valence
SciTegic.value.DoubleValue
9.837

@<SCITEGIC>MOL_PROPERTY
Coulomb
SciTegic.value.DoubleValue
0.032

@<SCITEGIC>MOL_PROPERTY
VdW
SciTegic.value.DoubleValue
0.328

@<SCITEGIC>MOL_PROPERTY
VdW6
SciTegic.value.DoubleValue
-7.642

@<SCITEGIC>MOL_PROPERTY
VdW12
SciTegic.value.DoubleValue
7.969

@<SCITEGIC>MOL_PROPERTY
Bond
SciTegic.value.DoubleValue
0.151

@<SCITEGIC>MOL_PROPERTY
Angle
SciTegic.value.DoubleValue
2.748

@<SCITEGIC>MOL_PROPERTY
Pdih
SciTegic.value.DoubleValue
6.937

@<SCITEGIC>MOL_PROPERTY
Idih
SciTegic.value.DoubleValue
0.001

@<SCITEGIC>MOL_PROPERTY
Tether
SciTegic.value.DoubleValue
0.000

@<TRIPOS>MOLECULE
guest-s22_confgen4.mol2 : confsearch ligand conformer 850
          20          19           1
SMALL
USER_CHARGES
 
@<TRIPOS>ATOM
       1    C1      21.693893   16.642333   23.135147 C.2        1 MOL1        -0.2535
       2    H1      22.445036   16.326086   23.856974 H          1 MOL1         0.0845
       3    H2      20.865529   15.962134   22.943512 H          1 MOL1         0.0845
       4    C2      21.787371   17.820496   22.513170 C.2        1 MOL1        -0.1324
       5    H3      22.624267   18.487186   22.719967 H          1 MOL1         0.0833
       6    C3      20.784862   18.326024   21.499719 C.3        1 MOL1        -0.1813
       7    H4      20.135077   17.505662   21.165690 H          1 MOL1         0.0753
       8    H5      21.314724   18.691909   20.610081 H          1 MOL1         0.0753
       9    C4      19.919109   19.459043   22.089465 C.3        1 MOL1        -0.1855
      10    H6      19.397078   19.087976   22.982477 H          1 MOL1         0.0755
      11    H7      20.568033   20.281645   22.420030 H          1 MOL1         0.0755
      12    C5      18.891099   19.989420   21.064658 C.3        1 MOL1        -0.1855
      13    H8      18.231110   19.171952   20.742363 H          1 MOL1         0.0755
      14    H9      19.420721   20.340097   20.168501 H          1 MOL1         0.0755
      15    C6      18.032051   21.151047   21.628168 C.3        1 MOL1        -0.1958
      16    H10     18.678361   21.964540   21.979402 H          1 MOL1         0.0753
      17    H11     17.406307   21.565266   20.828893 H          1 MOL1         0.0753
      18    C7      17.103767   20.739842   22.767507 C.2        1 MOL1         0.6174
      19    O1      17.402510   21.065235   23.899692 O.co2      1 MOL1        -0.6695
      20    O2      16.098669   20.115519   22.489825 O.co2      1 MOL1        -0.6695
@<TRIPOS>BOND
    1     1     2    1
    2     1     3    1
    3     1     4    2
    4     4     5    1
    5     4     6    1
    6     6     7    1
    7     6     8    1
    8     6     9    1
    9     9    10    1
   10     9    11    1
   11     9    12    1
   12    12    13    1
   13    12    14    1
   14    12    15    1
   15    15    16    1
   16    15    17    1
   17    15    18    1
   18    18    19    1
   19    18    20    2
@<TRIPOS>SUBSTRUCTURE
       1 MOL1            1 RESIDUE      1      MOL     
@<SCITEGIC>MOL_PROPERTY
VConf Rank
SciTegic.value.IntegerValue
850

@<SCITEGIC>MOL_PROPERTY
Conf_Id
SciTegic.value.IntegerValue
81

@<SCITEGIC>MOL_PROPERTY
Delta U+W
SciTegic.value.DoubleValue
-0.051

@<SCITEGIC>MOL_PROPERTY
U+W
SciTegic.value.DoubleValue
-51.796

@<SCITEGIC>MOL_PROPERTY
Grad RMS
SciTegic.value.DoubleValue
0.000000

@<SCITEGIC>MOL_PROPERTY
U
SciTegic.value.DoubleValue
9.412

@<SCITEGIC>MOL_PROPERTY
W
SciTegic.value.DoubleValue
-61.209

@<SCITEGIC>MOL_PROPERTY
W(PB)
SciTegic.value.DoubleValue
-63.452

@<SCITEGIC>MOL_PROPERTY
W(SA)
SciTegic.value.DoubleValue
2.243

@<SCITEGIC>MOL_PROPERTY
Valence
SciTegic.value.DoubleValue
9.329

@<SCITEGIC>MOL_PROPERTY
Coulomb
SciTegic.value.DoubleValue
-0.323

@<SCITEGIC>MOL_PROPERTY
VdW
SciTegic.value.DoubleValue
0.406

@<SCITEGIC>MOL_PROPERTY
VdW6
SciTegic.value.DoubleValue
-6.640

@<SCITEGIC>MOL_PROPERTY
VdW12
SciTegic.value.DoubleValue
7.046

@<SCITEGIC>MOL_PROPERTY
Bond
SciTegic.value.DoubleValue
0.105

@<SCITEGIC>MOL_PROPERTY
Angle
SciTegic.value.DoubleValue
2.401

@<SCITEGIC>MOL_PROPERTY
Pdih
SciTegic.value.DoubleValue
6.823

@<SCITEGIC>MOL_PROPERTY
Idih
SciTegic.value.DoubleValue
0.000

@<SCITEGIC>MOL_PROPERTY
Tether
SciTegic.value.DoubleValue
0.000

@<TRIPOS>MOLECULE
guest-s22_confgen4.mol2 : confsearch ligand conformer 851
          20          19           1
SMALL
USER_CHARGES
 
@<TRIPOS>ATOM
       1    C1      17.130860   17.041966   22.069137 C.2        1 MOL1        -0.2535
       2    H1      16.223371   17.641955   22.025127 H          1 MOL1         0.0845
       3    H2      17.039719   15.978766   21.853626 H          1 MOL1         0.0845
       4    C2      18.312329   17.585851   22.372447 C.2        1 MOL1        -0.1324
       5    H3      19.208273   16.967121   22.413467 H          1 MOL1         0.0833
       6    C3      18.514880   19.052355   22.688461 C.3        1 MOL1        -0.1813
       7    H4      19.159822   19.162140   23.569897 H          1 MOL1         0.0753
       8    H5      17.553945   19.508147   22.962452 H          1 MOL1         0.0753
       9    C4      19.108074   19.837944   21.494443 C.3        1 MOL1        -0.1855
      10    H6      18.404413   19.785941   20.652426 H          1 MOL1         0.0755
      11    H7      19.178432   20.899933   21.766839 H          1 MOL1         0.0755
      12    C5      20.496410   19.339911   21.016346 C.3        1 MOL1        -0.1855
      13    H8      20.809423   19.944904   20.154262 H          1 MOL1         0.0755
      14    H9      20.408984   18.309242   20.647872 H          1 MOL1         0.0755
      15    C6      21.609038   19.401939   22.098197 C.3        1 MOL1        -0.1958
      16    H10     21.363544   18.747956   22.942637 H          1 MOL1         0.0753
      17    H11     22.547371   19.024054   21.675891 H          1 MOL1         0.0753
      18    C7      21.882861   20.805683   22.630238 C.2        1 MOL1         0.6174
      19    O1      21.529770   21.072065   23.762250 O.co2      1 MOL1        -0.6695
      20    O2      22.458711   21.591167   21.903002 O.co2      1 MOL1        -0.6695
@<TRIPOS>BOND
    1     1     2    1
    2     1     3    1
    3     1     4    2
    4     4     5    1
    5     4     6    1
    6     6     7    1
    7     6     8    1
    8     6     9    1
    9     9    10    1
   10     9    11    1
   11     9    12    1
   12    12    13    1
   13    12    14    1
   14    12    15    1
   15    15    16    1
   16    15    17    1
   17    15    18    1
   18    18    19    1
   19    18    20    2
@<TRIPOS>SUBSTRUCTURE
       1 MOL1            1 RESIDUE      1      MOL     
@<SCITEGIC>MOL_PROPERTY
VConf Rank
SciTegic.value.IntegerValue
851

@<SCITEGIC>MOL_PROPERTY
Conf_Id
SciTegic.value.IntegerValue
86

@<SCITEGIC>MOL_PROPERTY
Delta U+W
SciTegic.value.DoubleValue
1.248

@<SCITEGIC>MOL_PROPERTY
U+W
SciTegic.value.DoubleValue
-50.498

@<SCITEGIC>MOL_PROPERTY
Grad RMS
SciTegic.value.DoubleValue
0.000000

@<SCITEGIC>MOL_PROPERTY
U
SciTegic.value.DoubleValue
10.404

@<SCITEGIC>MOL_PROPERTY
W
SciTegic.value.DoubleValue
-60.901

@<SCITEGIC>MOL_PROPERTY
W(PB)
SciTegic.value.DoubleValue
-63.061

@<SCITEGIC>MOL_PROPERTY
W(SA)
SciTegic.value.DoubleValue
2.159

@<SCITEGIC>MOL_PROPERTY
Valence
SciTegic.value.DoubleValue
10.021

@<SCITEGIC>MOL_PROPERTY
Coulomb
SciTegic.value.DoubleValue
0.094

@<SCITEGIC>MOL_PROPERTY
VdW
SciTegic.value.DoubleValue
0.289

@<SCITEGIC>MOL_PROPERTY
VdW6
SciTegic.value.DoubleValue
-8.409

@<SCITEGIC>MOL_PROPERTY
VdW12
SciTegic.value.DoubleValue
8.698

@<SCITEGIC>MOL_PROPERTY
Bond
SciTegic.value.DoubleValue
0.179

@<SCITEGIC>MOL_PROPERTY
Angle
SciTegic.value.DoubleValue
2.939

@<SCITEGIC>MOL_PROPERTY
Pdih
SciTegic.value.DoubleValue
6.902

@<SCITEGIC>MOL_PROPERTY
Idih
SciTegic.value.DoubleValue
0.001

@<SCITEGIC>MOL_PROPERTY
Tether
SciTegic.value.DoubleValue
0.000

@<TRIPOS>MOLECULE
guest-s22_confgen4.mol2 : confsearch ligand conformer 852
          20          19           1
SMALL
USER_CHARGES
 
@<TRIPOS>ATOM
       1    C1      17.662579   17.012865   21.030581 C.2        1 MOL1        -0.2535
       2    H1      17.242893   16.057831   21.341832 H          1 MOL1         0.0845
       3    H2      16.973284   17.846271   20.905167 H          1 MOL1         0.0845
       4    C2      18.973273   17.153606   20.815407 C.2        1 MOL1        -0.1324
       5    H3      19.646541   16.307252   20.948766 H          1 MOL1         0.0833
       6    C3      19.628866   18.447704   20.382323 C.3        1 MOL1        -0.1813
       7    H4      18.871122   19.182447   20.077957 H          1 MOL1         0.0753
       8    H5      20.248369   18.256630   19.496024 H          1 MOL1         0.0753
       9    C4      20.518841   19.053998   21.490661 C.3        1 MOL1        -0.1855
      10    H6      21.274526   18.318368   21.798412 H          1 MOL1         0.0755
      11    H7      21.067108   19.909859   21.073631 H          1 MOL1         0.0755
      12    C5      19.705643   19.516685   22.722825 C.3        1 MOL1        -0.1855
      13    H8      19.162399   18.660624   23.144862 H          1 MOL1         0.0755
      14    H9      18.947432   20.249562   22.414021 H          1 MOL1         0.0755
      15    C6      20.599043   20.135570   23.829103 C.3        1 MOL1        -0.1958
      16    H10     19.993454   20.331616   24.721722 H          1 MOL1         0.0753
      17    H11     21.381024   19.425991   24.125380 H          1 MOL1         0.0753
      18    C7      21.260749   21.451100   23.428789 C.2        1 MOL1         0.6174
      19    O1      20.576821   22.455708   23.417220 O.co2      1 MOL1        -0.6695
      20    O2      22.443740   21.439471   23.150430 O.co2      1 MOL1        -0.6695
@<TRIPOS>BOND
    1     1     2    1
    2     1     3    1
    3     1     4    2
    4     4     5    1
    5     4     6    1
    6     6     7    1
    7     6     8    1
    8     6     9    1
    9     9    10    1
   10     9    11    1
   11     9    12    1
   12    12    13    1
   13    12    14    1
   14    12    15    1
   15    15    16    1
   16    15    17    1
   17    15    18    1
   18    18    19    1
   19    18    20    2
@<TRIPOS>SUBSTRUCTURE
       1 MOL1            1 RESIDUE      1      MOL     
@<SCITEGIC>MOL_PROPERTY
VConf Rank
SciTegic.value.IntegerValue
852

@<SCITEGIC>MOL_PROPERTY
Conf_Id
SciTegic.value.IntegerValue
28

@<SCITEGIC>MOL_PROPERTY
Delta U+W
SciTegic.value.DoubleValue
0.446

@<SCITEGIC>MOL_PROPERTY
U+W
SciTegic.value.DoubleValue
-51.299

@<SCITEGIC>MOL_PROPERTY
Grad RMS
SciTegic.value.DoubleValue
0.000000

@<SCITEGIC>MOL_PROPERTY
U
SciTegic.value.DoubleValue
9.295

@<SCITEGIC>MOL_PROPERTY
W
SciTegic.value.DoubleValue
-60.594

@<SCITEGIC>MOL_PROPERTY
W(PB)
SciTegic.value.DoubleValue
-62.806

@<SCITEGIC>MOL_PROPERTY
W(SA)
SciTegic.value.DoubleValue
2.212

@<SCITEGIC>MOL_PROPERTY
Valence
SciTegic.value.DoubleValue
9.495

@<SCITEGIC>MOL_PROPERTY
Coulomb
SciTegic.value.DoubleValue
-0.610

@<SCITEGIC>MOL_PROPERTY
VdW
SciTegic.value.DoubleValue
0.409

@<SCITEGIC>MOL_PROPERTY
VdW6
SciTegic.value.DoubleValue
-7.332

@<SCITEGIC>MOL_PROPERTY
VdW12
SciTegic.value.DoubleValue
7.741

@<SCITEGIC>MOL_PROPERTY
Bond
SciTegic.value.DoubleValue
0.126

@<SCITEGIC>MOL_PROPERTY
Angle
SciTegic.value.DoubleValue
2.497

@<SCITEGIC>MOL_PROPERTY
Pdih
SciTegic.value.DoubleValue
6.872

@<SCITEGIC>MOL_PROPERTY
Idih
SciTegic.value.DoubleValue
0.000

@<SCITEGIC>MOL_PROPERTY
Tether
SciTegic.value.DoubleValue
0.000

@<TRIPOS>MOLECULE
guest-s22_confgen4.mol2 : confsearch ligand conformer 853
          20          19           1
SMALL
USER_CHARGES
 
@<TRIPOS>ATOM
       1    C1      21.892140   17.240778   23.352538 C.2        1 MOL1        -0.2535
       2    H1      22.434815   18.135310   23.054526 H          1 MOL1         0.0845
       3    H2      22.448587   16.493207   23.915250 H          1 MOL1         0.0845
       4    C2      20.601594   17.051230   23.054986 C.2        1 MOL1        -0.1324
       5    H3      20.111339   16.135011   23.383213 H          1 MOL1         0.0833
       6    C3      19.698901   17.996835   22.280109 C.3        1 MOL1        -0.1813
       7    H4      18.876930   18.307395   22.937814 H          1 MOL1         0.0753
       8    H5      19.230581   17.440028   21.457677 H          1 MOL1         0.0753
       9    C4      20.405618   19.248159   21.702752 C.3        1 MOL1        -0.1855
      10    H6      20.802048   19.860270   22.524541 H          1 MOL1         0.0755
      11    H7      21.269269   18.927152   21.104626 H          1 MOL1         0.0755
      12    C5      19.489619   20.114820   20.803361 C.3        1 MOL1        -0.1855
      13    H8      19.137241   19.510440   19.956636 H          1 MOL1         0.0755
      14    H9      20.087577   20.929231   20.371401 H          1 MOL1         0.0755
      15    C6      18.264944   20.730555   21.533909 C.3        1 MOL1        -0.1958
      16    H10     17.672733   21.314238   20.819586 H          1 MOL1         0.0753
      17    H11     17.603939   19.943208   21.913454 H          1 MOL1         0.0753
      18    C7      18.629398   21.661384   22.687007 C.2        1 MOL1         0.6174
      19    O1      19.125712   22.738042   22.418806 O.co2      1 MOL1        -0.6695
      20    O2      18.388718   21.295453   23.820596 O.co2      1 MOL1        -0.6695
@<TRIPOS>BOND
    1     1     2    1
    2     1     3    1
    3     1     4    2
    4     4     5    1
    5     4     6    1
    6     6     7    1
    7     6     8    1
    8     6     9    1
    9     9    10    1
   10     9    11    1
   11     9    12    1
   12    12    13    1
   13    12    14    1
   14    12    15    1
   15    15    16    1
   16    15    17    1
   17    15    18    1
   18    18    19    1
   19    18    20    2
@<TRIPOS>SUBSTRUCTURE
       1 MOL1            1 RESIDUE      1      MOL     
@<SCITEGIC>MOL_PROPERTY
VConf Rank
SciTegic.value.IntegerValue
853

@<SCITEGIC>MOL_PROPERTY
Conf_Id
SciTegic.value.IntegerValue
53

@<SCITEGIC>MOL_PROPERTY
Delta U+W
SciTegic.value.DoubleValue
0.549

@<SCITEGIC>MOL_PROPERTY
U+W
SciTegic.value.DoubleValue
-51.197

@<SCITEGIC>MOL_PROPERTY
Grad RMS
SciTegic.value.DoubleValue
0.000000

@<SCITEGIC>MOL_PROPERTY
U
SciTegic.value.DoubleValue
10.870

@<SCITEGIC>MOL_PROPERTY
W
SciTegic.value.DoubleValue
-62.067

@<SCITEGIC>MOL_PROPERTY
W(PB)
SciTegic.value.DoubleValue
-64.228

@<SCITEGIC>MOL_PROPERTY
W(SA)
SciTegic.value.DoubleValue
2.161

@<SCITEGIC>MOL_PROPERTY
Valence
SciTegic.value.DoubleValue
8.803

@<SCITEGIC>MOL_PROPERTY
Coulomb
SciTegic.value.DoubleValue
1.020

@<SCITEGIC>MOL_PROPERTY
VdW
SciTegic.value.DoubleValue
1.048

@<SCITEGIC>MOL_PROPERTY
VdW6
SciTegic.value.DoubleValue
-8.312

@<SCITEGIC>MOL_PROPERTY
VdW12
SciTegic.value.DoubleValue
9.360

@<SCITEGIC>MOL_PROPERTY
Bond
SciTegic.value.DoubleValue
0.212

@<SCITEGIC>MOL_PROPERTY
Angle
SciTegic.value.DoubleValue
3.379

@<SCITEGIC>MOL_PROPERTY
Pdih
SciTegic.value.DoubleValue
5.211

@<SCITEGIC>MOL_PROPERTY
Idih
SciTegic.value.DoubleValue
0.001

@<SCITEGIC>MOL_PROPERTY
Tether
SciTegic.value.DoubleValue
0.000

@<TRIPOS>MOLECULE
guest-s22_confgen4.mol2 : confsearch ligand conformer 854
          20          19           1
SMALL
USER_CHARGES
 
@<TRIPOS>ATOM
       1    C1      20.415536   21.018583   23.722159 C.2        1 MOL1        -0.2535
       2    H1      19.576116   20.612650   24.282418 H          1 MOL1         0.0845
       3    H2      20.612175   22.083858   23.829142 H          1 MOL1         0.0845
       4    C2      21.184316   20.254949   22.938261 C.2        1 MOL1        -0.1324
       5    H3      22.015037   20.711349   22.400764 H          1 MOL1         0.0833
       6    C3      21.022053   18.763869   22.692817 C.3        1 MOL1        -0.1813
       7    H4      21.727298   18.222474   23.336961 H          1 MOL1         0.0753
       8    H5      21.345112   18.533175   21.669590 H          1 MOL1         0.0753
       9    C4      19.595515   18.193663   22.906422 C.3        1 MOL1        -0.1855
      10    H6      19.630735   17.104145   22.770224 H          1 MOL1         0.0755
      11    H7      19.292296   18.350256   23.949907 H          1 MOL1         0.0755
      12    C5      18.512547   18.781827   21.964032 C.3        1 MOL1        -0.1855
      13    H8      18.414816   19.860488   22.141501 H          1 MOL1         0.0755
      14    H9      17.541111   18.340937   22.226606 H          1 MOL1         0.0755
      15    C6      18.774801   18.541804   20.452102 C.3        1 MOL1        -0.1958
      16    H10     17.965093   18.993790   19.867596 H          1 MOL1         0.0753
      17    H11     19.698792   19.039854   20.137158 H          1 MOL1         0.0753
      18    C7      18.852574   17.069715   20.057981 C.2        1 MOL1         0.6174
      19    O1      19.937006   16.609467   19.759092 O.co2      1 MOL1        -0.6695
      20    O2      17.821638   16.425934   20.042972 O.co2      1 MOL1        -0.6695
@<TRIPOS>BOND
    1     1     2    1
    2     1     3    1
    3     1     4    2
    4     4     5    1
    5     4     6    1
    6     6     7    1
    7     6     8    1
    8     6     9    1
    9     9    10    1
   10     9    11    1
   11     9    12    1
   12    12    13    1
   13    12    14    1
   14    12    15    1
   15    15    16    1
   16    15    17    1
   17    15    18    1
   18    18    19    1
   19    18    20    2
@<TRIPOS>SUBSTRUCTURE
       1 MOL1            1 RESIDUE      1      MOL     
@<SCITEGIC>MOL_PROPERTY
VConf Rank
SciTegic.value.IntegerValue
854

@<SCITEGIC>MOL_PROPERTY
Conf_Id
SciTegic.value.IntegerValue
66

@<SCITEGIC>MOL_PROPERTY
Delta U+W
SciTegic.value.DoubleValue
1.737

@<SCITEGIC>MOL_PROPERTY
U+W
SciTegic.value.DoubleValue
-50.008

@<SCITEGIC>MOL_PROPERTY
Grad RMS
SciTegic.value.DoubleValue
0.000000

@<SCITEGIC>MOL_PROPERTY
U
SciTegic.value.DoubleValue
11.091

@<SCITEGIC>MOL_PROPERTY
W
SciTegic.value.DoubleValue
-61.099

@<SCITEGIC>MOL_PROPERTY
W(PB)
SciTegic.value.DoubleValue
-63.213

@<SCITEGIC>MOL_PROPERTY
W(SA)
SciTegic.value.DoubleValue
2.114

@<SCITEGIC>MOL_PROPERTY
Valence
SciTegic.value.DoubleValue
9.664

@<SCITEGIC>MOL_PROPERTY
Coulomb
SciTegic.value.DoubleValue
0.658

@<SCITEGIC>MOL_PROPERTY
VdW
SciTegic.value.DoubleValue
0.769

@<SCITEGIC>MOL_PROPERTY
VdW6
SciTegic.value.DoubleValue
-9.171

@<SCITEGIC>MOL_PROPERTY
VdW12
SciTegic.value.DoubleValue
9.940

@<SCITEGIC>MOL_PROPERTY
Bond
SciTegic.value.DoubleValue
0.244

@<SCITEGIC>MOL_PROPERTY
Angle
SciTegic.value.DoubleValue
3.658

@<SCITEGIC>MOL_PROPERTY
Pdih
SciTegic.value.DoubleValue
5.762

@<SCITEGIC>MOL_PROPERTY
Idih
SciTegic.value.DoubleValue
0.001

@<SCITEGIC>MOL_PROPERTY
Tether
SciTegic.value.DoubleValue
0.000

@<TRIPOS>MOLECULE
guest-s22_confgen4.mol2 : confsearch ligand conformer 855
          20          19           1
SMALL
USER_CHARGES
 
@<TRIPOS>ATOM
       1    C1      20.391402   21.598840   21.525693 C.2        1 MOL1        -0.2535
       2    H1      19.590745   21.749357   22.246440 H          1 MOL1         0.0845
       3    H2      21.243285   22.273807   21.586132 H          1 MOL1         0.0845
       4    C2      20.344095   20.636841   20.597684 C.2        1 MOL1        -0.1324
       5    H3      21.173298   20.532319   19.898515 H          1 MOL1         0.0833
       6    C3      19.227449   19.624558   20.400244 C.3        1 MOL1        -0.1813
       7    H4      19.663531   18.676168   20.062546 H          1 MOL1         0.0753
       8    H5      18.597591   19.956764   19.564481 H          1 MOL1         0.0753
       9    C4      18.330409   19.354357   21.636622 C.3        1 MOL1        -0.1855
      10    H6      17.844285   20.289089   21.945577 H          1 MOL1         0.0755
      11    H7      17.515048   18.681065   21.339144 H          1 MOL1         0.0755
      12    C5      19.069047   18.733555   22.849766 C.3        1 MOL1        -0.1855
      13    H8      18.364717   18.664819   23.690227 H          1 MOL1         0.0755
      14    H9      19.878861   19.396742   23.181401 H          1 MOL1         0.0755
      15    C6      19.645518   17.321700   22.568227 C.3        1 MOL1        -0.1958
      16    H10     18.858722   16.659767   22.187509 H          1 MOL1         0.0753
      17    H11     20.429010   17.371610   21.803707 H          1 MOL1         0.0753
      18    C7      20.248376   16.672791   23.809084 C.2        1 MOL1         0.6174
      19    O1      21.431495   16.841670   24.029221 O.co2      1 MOL1        -0.6695
      20    O2      19.515213   16.026560   24.531435 O.co2      1 MOL1        -0.6695
@<TRIPOS>BOND
    1     1     2    1
    2     1     3    1
    3     1     4    2
    4     4     5    1
    5     4     6    1
    6     6     7    1
    7     6     8    1
    8     6     9    1
    9     9    10    1
   10     9    11    1
   11     9    12    1
   12    12    13    1
   13    12    14    1
   14    12    15    1
   15    15    16    1
   16    15    17    1
   17    15    18    1
   18    18    19    1
   19    18    20    2
@<TRIPOS>SUBSTRUCTURE
       1 MOL1            1 RESIDUE      1      MOL     
@<SCITEGIC>MOL_PROPERTY
VConf Rank
SciTegic.value.IntegerValue
855

@<SCITEGIC>MOL_PROPERTY
Conf_Id
SciTegic.value.IntegerValue
64

@<SCITEGIC>MOL_PROPERTY
Delta U+W
SciTegic.value.DoubleValue
0.366

@<SCITEGIC>MOL_PROPERTY
U+W
SciTegic.value.DoubleValue
-51.379

@<SCITEGIC>MOL_PROPERTY
Grad RMS
SciTegic.value.DoubleValue
0.000000

@<SCITEGIC>MOL_PROPERTY
U
SciTegic.value.DoubleValue
10.000

@<SCITEGIC>MOL_PROPERTY
W
SciTegic.value.DoubleValue
-61.379

@<SCITEGIC>MOL_PROPERTY
W(PB)
SciTegic.value.DoubleValue
-63.541

@<SCITEGIC>MOL_PROPERTY
W(SA)
SciTegic.value.DoubleValue
2.162

@<SCITEGIC>MOL_PROPERTY
Valence
SciTegic.value.DoubleValue
9.398

@<SCITEGIC>MOL_PROPERTY
Coulomb
SciTegic.value.DoubleValue
-0.504

@<SCITEGIC>MOL_PROPERTY
VdW
SciTegic.value.DoubleValue
1.105

@<SCITEGIC>MOL_PROPERTY
VdW6
SciTegic.value.DoubleValue
-7.975

@<SCITEGIC>MOL_PROPERTY
VdW12
SciTegic.value.DoubleValue
9.080

@<SCITEGIC>MOL_PROPERTY
Bond
SciTegic.value.DoubleValue
0.216

@<SCITEGIC>MOL_PROPERTY
Angle
SciTegic.value.DoubleValue
3.417

@<SCITEGIC>MOL_PROPERTY
Pdih
SciTegic.value.DoubleValue
5.765

@<SCITEGIC>MOL_PROPERTY
Idih
SciTegic.value.DoubleValue
0.001

@<SCITEGIC>MOL_PROPERTY
Tether
SciTegic.value.DoubleValue
0.000

@<TRIPOS>MOLECULE
guest-s22_confgen4.mol2 : confsearch ligand conformer 856
          20          19           1
SMALL
USER_CHARGES
 
@<TRIPOS>ATOM
       1    C1      22.295880   19.988523   20.420555 C.2        1 MOL1        -0.2535
       2    H1      21.610904   20.557827   19.794361 H          1 MOL1         0.0845
       3    H2      23.116413   19.472390   19.925140 H          1 MOL1         0.0845
       4    C2      22.136719   19.920195   21.744946 C.2        1 MOL1        -0.1324
       5    H3      22.832225   19.342765   22.353417 H          1 MOL1         0.0833
       6    C3      21.021913   20.608914   22.503136 C.3        1 MOL1        -0.1813
       7    H4      20.497058   21.323370   21.854481 H          1 MOL1         0.0753
       8    H5      21.455512   21.196228   23.323440 H          1 MOL1         0.0753
       9    C4      20.006172   19.604228   23.092049 C.3        1 MOL1        -0.1855
      10    H6      20.531318   18.889291   23.740253 H          1 MOL1         0.0755
      11    H7      19.299110   20.148990   23.732503 H          1 MOL1         0.0755
      12    C5      19.219956   18.842198   22.000831 C.3        1 MOL1        -0.1855
      13    H8      19.914472   18.271242   21.369257 H          1 MOL1         0.0755
      14    H9      18.709457   19.559563   21.343514 H          1 MOL1         0.0755
      15    C6      18.176546   17.874707   22.611795 C.3        1 MOL1        -0.1958
      16    H10     18.673138   17.143926   23.261367 H          1 MOL1         0.0753
      17    H11     17.463433   18.429547   23.233172 H          1 MOL1         0.0753
      18    C7      17.387773   17.110448   21.554516 C.2        1 MOL1         0.6174
      19    O1      16.373589   17.617696   21.117618 O.co2      1 MOL1        -0.6695
      20    O2      17.815541   16.034566   21.185484 O.co2      1 MOL1        -0.6695
@<TRIPOS>BOND
    1     1     2    1
    2     1     3    1
    3     1     4    2
    4     4     5    1
    5     4     6    1
    6     6     7    1
    7     6     8    1
    8     6     9    1
    9     9    10    1
   10     9    11    1
   11     9    12    1
   12    12    13    1
   13    12    14    1
   14    12    15    1
   15    15    16    1
   16    15    17    1
   17    15    18    1
   18    18    19    1
   19    18    20    2
@<TRIPOS>SUBSTRUCTURE
       1 MOL1            1 RESIDUE      1      MOL     
@<SCITEGIC>MOL_PROPERTY
VConf Rank
SciTegic.value.IntegerValue
856

@<SCITEGIC>MOL_PROPERTY
Conf_Id
SciTegic.value.IntegerValue
42

@<SCITEGIC>MOL_PROPERTY
Delta U+W
SciTegic.value.DoubleValue
-0.601

@<SCITEGIC>MOL_PROPERTY
U+W
SciTegic.value.DoubleValue
-52.347

@<SCITEGIC>MOL_PROPERTY
Grad RMS
SciTegic.value.DoubleValue
0.000000

@<SCITEGIC>MOL_PROPERTY
U
SciTegic.value.DoubleValue
8.428

@<SCITEGIC>MOL_PROPERTY
W
SciTegic.value.DoubleValue
-60.774

@<SCITEGIC>MOL_PROPERTY
W(PB)
SciTegic.value.DoubleValue
-62.982

@<SCITEGIC>MOL_PROPERTY
W(SA)
SciTegic.value.DoubleValue
2.208

@<SCITEGIC>MOL_PROPERTY
Valence
SciTegic.value.DoubleValue
9.231

@<SCITEGIC>MOL_PROPERTY
Coulomb
SciTegic.value.DoubleValue
-1.304

@<SCITEGIC>MOL_PROPERTY
VdW
SciTegic.value.DoubleValue
0.501

@<SCITEGIC>MOL_PROPERTY
VdW6
SciTegic.value.DoubleValue
-6.515

@<SCITEGIC>MOL_PROPERTY
VdW12
SciTegic.value.DoubleValue
7.016

@<SCITEGIC>MOL_PROPERTY
Bond
SciTegic.value.DoubleValue
0.103

@<SCITEGIC>MOL_PROPERTY
Angle
SciTegic.value.DoubleValue
2.328

@<SCITEGIC>MOL_PROPERTY
Pdih
SciTegic.value.DoubleValue
6.799

@<SCITEGIC>MOL_PROPERTY
Idih
SciTegic.value.DoubleValue
0.000

@<SCITEGIC>MOL_PROPERTY
Tether
SciTegic.value.DoubleValue
0.000

@<TRIPOS>MOLECULE
guest-s22_confgen4.mol2 : confsearch ligand conformer 857
          20          19           1
SMALL
USER_CHARGES
 
@<TRIPOS>ATOM
       1    C1      16.765106   19.083143   21.287079 C.2        1 MOL1        -0.2535
       2    H1      16.492226   19.984360   21.833649 H          1 MOL1         0.0845
       3    H2      16.049093   18.263139   21.283324 H          1 MOL1         0.0845
       4    C2      17.933651   18.982033   20.648092 C.2        1 MOL1        -0.1324
       5    H3      18.188771   18.069950   20.109184 H          1 MOL1         0.0833
       6    C3      18.978382   20.077012   20.609843 C.3        1 MOL1        -0.1813
       7    H4      18.567840   21.017173   21.002477 H          1 MOL1         0.0753
       8    H5      19.255449   20.272338   19.565386 H          1 MOL1         0.0753
       9    C4      20.251261   19.699382   21.400499 C.3        1 MOL1        -0.1855
      10    H6      20.663979   18.762383   21.001708 H          1 MOL1         0.0755
      11    H7      21.014331   20.472290   21.235943 H          1 MOL1         0.0755
      12    C5      19.990527   19.557344   22.918758 C.3        1 MOL1        -0.1855
      13    H8      19.259157   18.757785   23.100849 H          1 MOL1         0.0755
      14    H9      19.542760   20.486017   23.297309 H          1 MOL1         0.0755
      15    C6      21.283963   19.257774   23.720072 C.3        1 MOL1        -0.1958
      16    H10     22.035260   20.034182   23.531738 H          1 MOL1         0.0753
      17    H11     21.063673   19.282997   24.793770 H          1 MOL1         0.0753
      18    C7      21.902445   17.897098   23.412092 C.2        1 MOL1         0.6174
      19    O1      22.884491   17.859533   22.697011 O.co2      1 MOL1        -0.6695
      20    O2      21.395605   16.911620   23.911133 O.co2      1 MOL1        -0.6695
@<TRIPOS>BOND
    1     1     2    1
    2     1     3    1
    3     1     4    2
    4     4     5    1
    5     4     6    1
    6     6     7    1
    7     6     8    1
    8     6     9    1
    9     9    10    1
   10     9    11    1
   11     9    12    1
   12    12    13    1
   13    12    14    1
   14    12    15    1
   15    15    16    1
   16    15    17    1
   17    15    18    1
   18    18    19    1
   19    18    20    2
@<TRIPOS>SUBSTRUCTURE
       1 MOL1            1 RESIDUE      1      MOL     
@<SCITEGIC>MOL_PROPERTY
VConf Rank
SciTegic.value.IntegerValue
857

@<SCITEGIC>MOL_PROPERTY
Conf_Id
SciTegic.value.IntegerValue
68

@<SCITEGIC>MOL_PROPERTY
Delta U+W
SciTegic.value.DoubleValue
0.492

@<SCITEGIC>MOL_PROPERTY
U+W
SciTegic.value.DoubleValue
-51.253

@<SCITEGIC>MOL_PROPERTY
Grad RMS
SciTegic.value.DoubleValue
0.000000

@<SCITEGIC>MOL_PROPERTY
U
SciTegic.value.DoubleValue
10.179

@<SCITEGIC>MOL_PROPERTY
W
SciTegic.value.DoubleValue
-61.432

@<SCITEGIC>MOL_PROPERTY
W(PB)
SciTegic.value.DoubleValue
-63.627

@<SCITEGIC>MOL_PROPERTY
W(SA)
SciTegic.value.DoubleValue
2.195

@<SCITEGIC>MOL_PROPERTY
Valence
SciTegic.value.DoubleValue
9.483

@<SCITEGIC>MOL_PROPERTY
Coulomb
SciTegic.value.DoubleValue
0.361

@<SCITEGIC>MOL_PROPERTY
VdW
SciTegic.value.DoubleValue
0.335

@<SCITEGIC>MOL_PROPERTY
VdW6
SciTegic.value.DoubleValue
-7.385

@<SCITEGIC>MOL_PROPERTY
VdW12
SciTegic.value.DoubleValue
7.720

@<SCITEGIC>MOL_PROPERTY
Bond
SciTegic.value.DoubleValue
0.125

@<SCITEGIC>MOL_PROPERTY
Angle
SciTegic.value.DoubleValue
2.487

@<SCITEGIC>MOL_PROPERTY
Pdih
SciTegic.value.DoubleValue
6.870

@<SCITEGIC>MOL_PROPERTY
Idih
SciTegic.value.DoubleValue
0.001

@<SCITEGIC>MOL_PROPERTY
Tether
SciTegic.value.DoubleValue
0.000

@<TRIPOS>MOLECULE
guest-s22_confgen4.mol2 : confsearch ligand conformer 858
          20          19           1
SMALL
USER_CHARGES
 
@<TRIPOS>ATOM
       1    C1      16.877709   17.771552   21.559193 C.2        1 MOL1        -0.2535
       2    H1      17.190596   16.797014   21.187888 H          1 MOL1         0.0845
       3    H2      15.943156   18.177480   21.175772 H          1 MOL1         0.0845
       4    C2      17.610704   18.447517   22.447723 C.2        1 MOL1        -0.1324
       5    H3      17.277620   19.420315   22.808229 H          1 MOL1         0.0833
       6    C3      18.915102   17.944383   23.028397 C.3        1 MOL1        -0.1813
       7    H4      18.987829   16.857271   22.889048 H          1 MOL1         0.0753
       8    H5      18.933099   18.117028   24.112771 H          1 MOL1         0.0753
       9    C4      20.146072   18.610743   22.373524 C.3        1 MOL1        -0.1855
      10    H6      21.054720   18.114224   22.740367 H          1 MOL1         0.0755
      11    H7      20.115014   18.443696   21.287831 H          1 MOL1         0.0755
      12    C5      20.239852   20.125914   22.672176 C.3        1 MOL1        -0.1855
      13    H8      20.220276   20.282972   23.759034 H          1 MOL1         0.0755
      14    H9      19.363625   20.645537   22.261039 H          1 MOL1         0.0755
      15    C6      21.527939   20.767470   22.094168 C.3        1 MOL1        -0.1958
      16    H10     21.601971   21.808048   22.431396 H          1 MOL1         0.0753
      17    H11     22.414913   20.246647   22.474673 H          1 MOL1         0.0753
      18    C7      21.585371   20.776118   20.569221 C.2        1 MOL1         0.6174
      19    O1      20.928592   21.609462   19.976528 O.co2      1 MOL1        -0.6695
      20    O2      22.299317   19.963399   20.015242 O.co2      1 MOL1        -0.6695
@<TRIPOS>BOND
    1     1     2    1
    2     1     3    1
    3     1     4    2
    4     4     5    1
    5     4     6    1
    6     6     7    1
    7     6     8    1
    8     6     9    1
    9     9    10    1
   10     9    11    1
   11     9    12    1
   12    12    13    1
   13    12    14    1
   14    12    15    1
   15    15    16    1
   16    15    17    1
   17    15    18    1
   18    18    19    1
   19    18    20    2
@<TRIPOS>SUBSTRUCTURE
       1 MOL1            1 RESIDUE      1      MOL     
@<SCITEGIC>MOL_PROPERTY
VConf Rank
SciTegic.value.IntegerValue
858

@<SCITEGIC>MOL_PROPERTY
Conf_Id
SciTegic.value.IntegerValue
87

@<SCITEGIC>MOL_PROPERTY
Delta U+W
SciTegic.value.DoubleValue
0.339

@<SCITEGIC>MOL_PROPERTY
U+W
SciTegic.value.DoubleValue
-51.407

@<SCITEGIC>MOL_PROPERTY
Grad RMS
SciTegic.value.DoubleValue
0.000000

@<SCITEGIC>MOL_PROPERTY
U
SciTegic.value.DoubleValue
10.461

@<SCITEGIC>MOL_PROPERTY
W
SciTegic.value.DoubleValue
-61.867

@<SCITEGIC>MOL_PROPERTY
W(PB)
SciTegic.value.DoubleValue
-64.045

@<SCITEGIC>MOL_PROPERTY
W(SA)
SciTegic.value.DoubleValue
2.178

@<SCITEGIC>MOL_PROPERTY
Valence
SciTegic.value.DoubleValue
9.555

@<SCITEGIC>MOL_PROPERTY
Coulomb
SciTegic.value.DoubleValue
0.483

@<SCITEGIC>MOL_PROPERTY
VdW
SciTegic.value.DoubleValue
0.423

@<SCITEGIC>MOL_PROPERTY
VdW6
SciTegic.value.DoubleValue
-7.223

@<SCITEGIC>MOL_PROPERTY
VdW12
SciTegic.value.DoubleValue
7.646

@<SCITEGIC>MOL_PROPERTY
Bond
SciTegic.value.DoubleValue
0.126

@<SCITEGIC>MOL_PROPERTY
Angle
SciTegic.value.DoubleValue
2.492

@<SCITEGIC>MOL_PROPERTY
Pdih
SciTegic.value.DoubleValue
6.936

@<SCITEGIC>MOL_PROPERTY
Idih
SciTegic.value.DoubleValue
0.001

@<SCITEGIC>MOL_PROPERTY
Tether
SciTegic.value.DoubleValue
0.000

@<TRIPOS>MOLECULE
guest-s22_confgen4.mol2 : confsearch ligand conformer 859
          20          19           1
SMALL
USER_CHARGES
 
@<TRIPOS>ATOM
       1    C1      20.367707   21.643700   22.070275 C.2        1 MOL1        -0.2535
       2    H1      20.973793   21.687259   22.973701 H          1 MOL1         0.0845
       3    H2      20.670043   22.268972   21.232034 H          1 MOL1         0.0845
       4    C2      19.294985   20.852125   21.990349 C.2        1 MOL1        -0.1324
       5    H3      18.695801   20.829087   21.080823 H          1 MOL1         0.0833
       6    C3      18.810485   19.967593   23.119273 C.3        1 MOL1        -0.1813
       7    H4      17.759199   19.691821   22.962169 H          1 MOL1         0.0753
       8    H5      18.829577   20.550144   24.050228 H          1 MOL1         0.0753
       9    C4      19.668462   18.693726   23.320039 C.3        1 MOL1        -0.1855
      10    H6      20.736053   18.951166   23.289902 H          1 MOL1         0.0755
      11    H7      19.478493   18.315797   24.333851 H          1 MOL1         0.0755
      12    C5      19.370256   17.542867   22.326209 C.3        1 MOL1        -0.1855
      13    H8      18.299559   17.297655   22.348980 H          1 MOL1         0.0755
      14    H9      19.898777   16.643655   22.672002 H          1 MOL1         0.0755
      15    C6      19.804801   17.832894   20.866649 C.3        1 MOL1        -0.1958
      16    H10     19.192937   18.630866   20.434282 H          1 MOL1         0.0753
      17    H11     20.848046   18.169488   20.840797 H          1 MOL1         0.0753
      18    C7      19.676817   16.614278   19.959882 C.2        1 MOL1         0.6174
      19    O1      18.615576   16.425003   19.398784 O.co2      1 MOL1        -0.6695
      20    O2      20.634988   15.874212   19.854567 O.co2      1 MOL1        -0.6695
@<TRIPOS>BOND
    1     1     2    1
    2     1     3    1
    3     1     4    2
    4     4     5    1
    5     4     6    1
    6     6     7    1
    7     6     8    1
    8     6     9    1
    9     9    10    1
   10     9    11    1
   11     9    12    1
   12    12    13    1
   13    12    14    1
   14    12    15    1
   15    15    16    1
   16    15    17    1
   17    15    18    1
   18    18    19    1
   19    18    20    2
@<TRIPOS>SUBSTRUCTURE
       1 MOL1            1 RESIDUE      1      MOL     
@<SCITEGIC>MOL_PROPERTY
VConf Rank
SciTegic.value.IntegerValue
859

@<SCITEGIC>MOL_PROPERTY
Conf_Id
SciTegic.value.IntegerValue
51

@<SCITEGIC>MOL_PROPERTY
Delta U+W
SciTegic.value.DoubleValue
1.709

@<SCITEGIC>MOL_PROPERTY
U+W
SciTegic.value.DoubleValue
-50.036

@<SCITEGIC>MOL_PROPERTY
Grad RMS
SciTegic.value.DoubleValue
0.000000

@<SCITEGIC>MOL_PROPERTY
U
SciTegic.value.DoubleValue
10.643

@<SCITEGIC>MOL_PROPERTY
W
SciTegic.value.DoubleValue
-60.679

@<SCITEGIC>MOL_PROPERTY
W(PB)
SciTegic.value.DoubleValue
-62.882

@<SCITEGIC>MOL_PROPERTY
W(SA)
SciTegic.value.DoubleValue
2.203

@<SCITEGIC>MOL_PROPERTY
Valence
SciTegic.value.DoubleValue
11.231

@<SCITEGIC>MOL_PROPERTY
Coulomb
SciTegic.value.DoubleValue
-1.077

@<SCITEGIC>MOL_PROPERTY
VdW
SciTegic.value.DoubleValue
0.489

@<SCITEGIC>MOL_PROPERTY
VdW6
SciTegic.value.DoubleValue
-7.546

@<SCITEGIC>MOL_PROPERTY
VdW12
SciTegic.value.DoubleValue
8.035

@<SCITEGIC>MOL_PROPERTY
Bond
SciTegic.value.DoubleValue
0.159

@<SCITEGIC>MOL_PROPERTY
Angle
SciTegic.value.DoubleValue
3.005

@<SCITEGIC>MOL_PROPERTY
Pdih
SciTegic.value.DoubleValue
8.065

@<SCITEGIC>MOL_PROPERTY
Idih
SciTegic.value.DoubleValue
0.002

@<SCITEGIC>MOL_PROPERTY
Tether
SciTegic.value.DoubleValue
0.000

@<TRIPOS>MOLECULE
guest-s22_confgen4.mol2 : confsearch ligand conformer 860
          20          19           1
SMALL
USER_CHARGES
 
@<TRIPOS>ATOM
       1    C1      18.710944   20.982306   20.032821 C.2        1 MOL1        -0.2535
       2    H1      18.342744   21.804988   20.643591 H          1 MOL1         0.0845
       3    H2      18.174343   20.761218   19.111843 H          1 MOL1         0.0845
       4    C2      19.778627   20.268362   20.398948 C.2        1 MOL1        -0.1324
       5    H3      20.137353   19.454533   19.769827 H          1 MOL1         0.0833
       6    C3      20.578731   20.527975   21.657533 C.3        1 MOL1        -0.1813
       7    H4      20.752637   21.609173   21.742241 H          1 MOL1         0.0753
       8    H5      21.574333   20.071787   21.576270 H          1 MOL1         0.0753
       9    C4      19.876458   20.041331   22.949493 C.3        1 MOL1        -0.1855
      10    H6      20.332634   20.566906   23.799440 H          1 MOL1         0.0755
      11    H7      18.820451   20.344133   22.939990 H          1 MOL1         0.0755
      12    C5      19.991474   18.520151   23.221319 C.3        1 MOL1        -0.1855
      13    H8      19.620655   18.322794   24.236716 H          1 MOL1         0.0755
      14    H9      21.047902   18.218539   23.216099 H          1 MOL1         0.0755
      15    C6      19.194318   17.633820   22.230243 C.3        1 MOL1        -0.1958
      16    H10     18.158100   17.984623   22.156000 H          1 MOL1         0.0753
      17    H11     19.630775   17.688846   21.227966 H          1 MOL1         0.0753
      18    C7      19.170030   16.165784   22.640001 C.2        1 MOL1         0.6174
      19    O1      20.069975   15.446639   22.252938 O.co2      1 MOL1        -0.6695
      20    O2      18.262760   15.783869   23.352661 O.co2      1 MOL1        -0.6695
@<TRIPOS>BOND
    1     1     2    1
    2     1     3    1
    3     1     4    2
    4     4     5    1
    5     4     6    1
    6     6     7    1
    7     6     8    1
    8     6     9    1
    9     9    10    1
   10     9    11    1
   11     9    12    1
   12    12    13    1
   13    12    14    1
   14    12    15    1
   15    15    16    1
   16    15    17    1
   17    15    18    1
   18    18    19    1
   19    18    20    2
@<TRIPOS>SUBSTRUCTURE
       1 MOL1            1 RESIDUE      1      MOL     
@<SCITEGIC>MOL_PROPERTY
VConf Rank
SciTegic.value.IntegerValue
860

@<SCITEGIC>MOL_PROPERTY
Conf_Id
SciTegic.value.IntegerValue
91

@<SCITEGIC>MOL_PROPERTY
Delta U+W
SciTegic.value.DoubleValue
1.604

@<SCITEGIC>MOL_PROPERTY
U+W
SciTegic.value.DoubleValue
-50.141

@<SCITEGIC>MOL_PROPERTY
Grad RMS
SciTegic.value.DoubleValue
0.000000

@<SCITEGIC>MOL_PROPERTY
U
SciTegic.value.DoubleValue
10.644

@<SCITEGIC>MOL_PROPERTY
W
SciTegic.value.DoubleValue
-60.786

@<SCITEGIC>MOL_PROPERTY
W(PB)
SciTegic.value.DoubleValue
-62.965

@<SCITEGIC>MOL_PROPERTY
W(SA)
SciTegic.value.DoubleValue
2.179

@<SCITEGIC>MOL_PROPERTY
Valence
SciTegic.value.DoubleValue
11.230

@<SCITEGIC>MOL_PROPERTY
Coulomb
SciTegic.value.DoubleValue
-1.075

@<SCITEGIC>MOL_PROPERTY
VdW
SciTegic.value.DoubleValue
0.489

@<SCITEGIC>MOL_PROPERTY
VdW6
SciTegic.value.DoubleValue
-7.547

@<SCITEGIC>MOL_PROPERTY
VdW12
SciTegic.value.DoubleValue
8.036

@<SCITEGIC>MOL_PROPERTY
Bond
SciTegic.value.DoubleValue
0.159

@<SCITEGIC>MOL_PROPERTY
Angle
SciTegic.value.DoubleValue
3.006

@<SCITEGIC>MOL_PROPERTY
Pdih
SciTegic.value.DoubleValue
8.064

@<SCITEGIC>MOL_PROPERTY
Idih
SciTegic.value.DoubleValue
0.002

@<SCITEGIC>MOL_PROPERTY
Tether
SciTegic.value.DoubleValue
0.000

@<TRIPOS>MOLECULE
guest-s22_confgen4.mol2 : confsearch ligand conformer 861
          20          19           1
SMALL
USER_CHARGES
 
@<TRIPOS>ATOM
       1    C1      16.228279   18.123738   22.092601 C.2        1 MOL1        -0.2535
       2    H1      16.236248   18.474059   23.123525 H          1 MOL1         0.0845
       3    H2      15.427189   17.447205   21.799629 H          1 MOL1         0.0845
       4    C2      17.164057   18.504501   21.219108 C.2        1 MOL1        -0.1324
       5    H3      17.138317   18.141648   20.191814 H          1 MOL1         0.0833
       6    C3      18.304298   19.440600   21.552593 C.3        1 MOL1        -0.1813
       7    H4      18.109651   19.953052   22.504597 H          1 MOL1         0.0753
       8    H5      18.376417   20.220720   20.782947 H          1 MOL1         0.0753
       9    C4      19.642634   18.678090   21.643732 C.3        1 MOL1        -0.1855
      10    H6      19.563750   17.896368   22.411894 H          1 MOL1         0.0755
      11    H7      19.839105   18.169493   20.689851 H          1 MOL1         0.0755
      12    C5      20.819042   19.620142   21.980952 C.3        1 MOL1        -0.1855
      13    H8      20.623478   20.128845   22.935164 H          1 MOL1         0.0755
      14    H9      20.897678   20.402903   21.213734 H          1 MOL1         0.0755
      15    C6      22.164763   18.852732   22.073236 C.3        1 MOL1        -0.1958
      16    H10     22.095455   18.073966   22.841763 H          1 MOL1         0.0753
      17    H11     22.369540   18.347686   21.121972 H          1 MOL1         0.0753
      18    C7      23.385063   19.713157   22.404673 C.2        1 MOL1         0.6174
      19    O1      24.457331   19.147408   22.484094 O.co2      1 MOL1        -0.6695
      20    O2      23.250780   20.909627   22.575188 O.co2      1 MOL1        -0.6695
@<TRIPOS>BOND
    1     1     2    1
    2     1     3    1
    3     1     4    2
    4     4     5    1
    5     4     6    1
    6     6     7    1
    7     6     8    1
    8     6     9    1
    9     9    10    1
   10     9    11    1
   11     9    12    1
   12    12    13    1
   13    12    14    1
   14    12    15    1
   15    15    16    1
   16    15    17    1
   17    15    18    1
   18    18    19    1
   19    18    20    2
@<TRIPOS>SUBSTRUCTURE
       1 MOL1            1 RESIDUE      1      MOL     
@<SCITEGIC>MOL_PROPERTY
VConf Rank
SciTegic.value.IntegerValue
861

@<SCITEGIC>MOL_PROPERTY
Conf_Id
SciTegic.value.IntegerValue
33

@<SCITEGIC>MOL_PROPERTY
Delta U+W
SciTegic.value.DoubleValue
0.000

@<SCITEGIC>MOL_PROPERTY
U+W
SciTegic.value.DoubleValue
-51.745

@<SCITEGIC>MOL_PROPERTY
Grad RMS
SciTegic.value.DoubleValue
0.000000

@<SCITEGIC>MOL_PROPERTY
U
SciTegic.value.DoubleValue
7.593

@<SCITEGIC>MOL_PROPERTY
W
SciTegic.value.DoubleValue
-59.338

@<SCITEGIC>MOL_PROPERTY
W(PB)
SciTegic.value.DoubleValue
-61.574

@<SCITEGIC>MOL_PROPERTY
W(SA)
SciTegic.value.DoubleValue
2.236

@<SCITEGIC>MOL_PROPERTY
Valence
SciTegic.value.DoubleValue
9.570

@<SCITEGIC>MOL_PROPERTY
Coulomb
SciTegic.value.DoubleValue
-3.091

@<SCITEGIC>MOL_PROPERTY
VdW
SciTegic.value.DoubleValue
1.114

@<SCITEGIC>MOL_PROPERTY
VdW6
SciTegic.value.DoubleValue
-6.064

@<SCITEGIC>MOL_PROPERTY
VdW12
SciTegic.value.DoubleValue
7.178

@<SCITEGIC>MOL_PROPERTY
Bond
SciTegic.value.DoubleValue
0.117

@<SCITEGIC>MOL_PROPERTY
Angle
SciTegic.value.DoubleValue
2.692

@<SCITEGIC>MOL_PROPERTY
Pdih
SciTegic.value.DoubleValue
6.761

@<SCITEGIC>MOL_PROPERTY
Idih
SciTegic.value.DoubleValue
0.000

@<SCITEGIC>MOL_PROPERTY
Tether
SciTegic.value.DoubleValue
0.000

@<TRIPOS>MOLECULE
guest-s22_confgen4.mol2 : confsearch ligand conformer 862
          20          19           1
SMALL
USER_CHARGES
 
@<TRIPOS>ATOM
       1    C1      17.005675   18.145602   24.139395 C.2        1 MOL1        -0.2535
       2    H1      16.349541   18.827400   23.600677 H          1 MOL1         0.0845
       3    H2      16.637215   17.731329   25.076345 H          1 MOL1         0.0845
       4    C2      18.216808   17.829176   23.673879 C.2        1 MOL1        -0.1324
       5    H3      18.858476   17.145282   24.229022 H          1 MOL1         0.0833
       6    C3      18.794966   18.363443   22.382362 C.3        1 MOL1        -0.1813
       7    H4      18.004436   18.823860   21.774354 H          1 MOL1         0.0753
       8    H5      19.200082   17.528486   21.796890 H          1 MOL1         0.0753
       9    C4      19.903076   19.404221   22.659278 C.3        1 MOL1        -0.1855
      10    H6      19.497511   20.185960   23.316349 H          1 MOL1         0.0755
      11    H7      20.725493   18.930212   23.212395 H          1 MOL1         0.0755
      12    C5      20.455021   20.073869   21.378220 C.3        1 MOL1        -0.1855
      13    H8      21.149752   20.873607   21.670217 H          1 MOL1         0.0755
      14    H9      19.635616   20.559838   20.830678 H          1 MOL1         0.0755
      15    C6      21.195951   19.090213   20.435660 C.3        1 MOL1        -0.1958
      16    H10     21.989518   18.567116   20.982472 H          1 MOL1         0.0753
      17    H11     20.507339   18.328538   20.053027 H          1 MOL1         0.0753
      18    C7      21.828483   19.787213   19.236467 C.2        1 MOL1         0.6174
      19    O1      21.158126   19.922304   18.231937 O.co2      1 MOL1        -0.6695
      20    O2      22.968279   20.194382   19.345145 O.co2      1 MOL1        -0.6695
@<TRIPOS>BOND
    1     1     2    1
    2     1     3    1
    3     1     4    2
    4     4     5    1
    5     4     6    1
    6     6     7    1
    7     6     8    1
    8     6     9    1
    9     9    10    1
   10     9    11    1
   11     9    12    1
   12    12    13    1
   13    12    14    1
   14    12    15    1
   15    15    16    1
   16    15    17    1
   17    15    18    1
   18    18    19    1
   19    18    20    2
@<TRIPOS>SUBSTRUCTURE
       1 MOL1            1 RESIDUE      1      MOL     
@<SCITEGIC>MOL_PROPERTY
VConf Rank
SciTegic.value.IntegerValue
862

@<SCITEGIC>MOL_PROPERTY
Conf_Id
SciTegic.value.IntegerValue
37

@<SCITEGIC>MOL_PROPERTY
Delta U+W
SciTegic.value.DoubleValue
-0.384

@<SCITEGIC>MOL_PROPERTY
U+W
SciTegic.value.DoubleValue
-52.130

@<SCITEGIC>MOL_PROPERTY
Grad RMS
SciTegic.value.DoubleValue
0.000000

@<SCITEGIC>MOL_PROPERTY
U
SciTegic.value.DoubleValue
7.491

@<SCITEGIC>MOL_PROPERTY
W
SciTegic.value.DoubleValue
-59.621

@<SCITEGIC>MOL_PROPERTY
W(PB)
SciTegic.value.DoubleValue
-61.853

@<SCITEGIC>MOL_PROPERTY
W(SA)
SciTegic.value.DoubleValue
2.232

@<SCITEGIC>MOL_PROPERTY
Valence
SciTegic.value.DoubleValue
9.604

@<SCITEGIC>MOL_PROPERTY
Coulomb
SciTegic.value.DoubleValue
-2.799

@<SCITEGIC>MOL_PROPERTY
VdW
SciTegic.value.DoubleValue
0.686

@<SCITEGIC>MOL_PROPERTY
VdW6
SciTegic.value.DoubleValue
-6.435

@<SCITEGIC>MOL_PROPERTY
VdW12
SciTegic.value.DoubleValue
7.121

@<SCITEGIC>MOL_PROPERTY
Bond
SciTegic.value.DoubleValue
0.124

@<SCITEGIC>MOL_PROPERTY
Angle
SciTegic.value.DoubleValue
2.493

@<SCITEGIC>MOL_PROPERTY
Pdih
SciTegic.value.DoubleValue
6.986

@<SCITEGIC>MOL_PROPERTY
Idih
SciTegic.value.DoubleValue
0.001

@<SCITEGIC>MOL_PROPERTY
Tether
SciTegic.value.DoubleValue
0.000

@<TRIPOS>MOLECULE
guest-s22_confgen4.mol2 : confsearch ligand conformer 863
          20          19           1
SMALL
USER_CHARGES
 
@<TRIPOS>ATOM
       1    C1      18.310863   21.599866   20.367852 C.2        1 MOL1        -0.2535
       2    H1      17.846336   22.450615   19.872240 H          1 MOL1         0.0845
       3    H2      17.714894   20.693285   20.448349 H          1 MOL1         0.0845
       4    C2      19.556533   21.685673   20.848327 C.2        1 MOL1        -0.1324
       5    H3      20.103915   22.621475   20.737528 H          1 MOL1         0.0833
       6    C3      20.333259   20.590470   21.559833 C.3        1 MOL1        -0.1813
       7    H4      20.636950   20.958864   22.548869 H          1 MOL1         0.0753
       8    H5      21.267577   20.407844   21.012263 H          1 MOL1         0.0753
       9    C4      19.574278   19.253416   21.727810 C.3        1 MOL1        -0.1855
      10    H6      18.648183   19.425665   22.293289 H          1 MOL1         0.0755
      11    H7      19.285629   18.868679   20.740011 H          1 MOL1         0.0755
      12    C5      20.431351   18.196723   22.458459 C.3        1 MOL1        -0.1855
      13    H8      20.723526   18.575738   23.447695 H          1 MOL1         0.0755
      14    H9      21.359666   18.019901   21.897594 H          1 MOL1         0.0755
      15    C6      19.673541   16.856909   22.627893 C.3        1 MOL1        -0.1958
      16    H10     18.749910   17.013597   23.197943 H          1 MOL1         0.0753
      17    H11     19.385989   16.457800   21.647777 H          1 MOL1         0.0753
      18    C7      20.499626   15.796534   23.347043 C.2        1 MOL1         0.6174
      19    O1      20.432194   15.741444   24.559093 O.co2      1 MOL1        -0.6695
      20    O2      21.203842   15.066644   22.677725 O.co2      1 MOL1        -0.6695
@<TRIPOS>BOND
    1     1     2    1
    2     1     3    1
    3     1     4    2
    4     4     5    1
    5     4     6    1
    6     6     7    1
    7     6     8    1
    8     6     9    1
    9     9    10    1
   10     9    11    1
   11     9    12    1
   12    12    13    1
   13    12    14    1
   14    12    15    1
   15    15    16    1
   16    15    17    1
   17    15    18    1
   18    18    19    1
   19    18    20    2
@<TRIPOS>SUBSTRUCTURE
       1 MOL1            1 RESIDUE      1      MOL     
@<SCITEGIC>MOL_PROPERTY
VConf Rank
SciTegic.value.IntegerValue
863

@<SCITEGIC>MOL_PROPERTY
Conf_Id
SciTegic.value.IntegerValue
44

@<SCITEGIC>MOL_PROPERTY
Delta U+W
SciTegic.value.DoubleValue
-1.440

@<SCITEGIC>MOL_PROPERTY
U+W
SciTegic.value.DoubleValue
-53.185

@<SCITEGIC>MOL_PROPERTY
Grad RMS
SciTegic.value.DoubleValue
0.000000

@<SCITEGIC>MOL_PROPERTY
U
SciTegic.value.DoubleValue
6.572

@<SCITEGIC>MOL_PROPERTY
W
SciTegic.value.DoubleValue
-59.757

@<SCITEGIC>MOL_PROPERTY
W(PB)
SciTegic.value.DoubleValue
-62.007

@<SCITEGIC>MOL_PROPERTY
W(SA)
SciTegic.value.DoubleValue
2.249

@<SCITEGIC>MOL_PROPERTY
Valence
SciTegic.value.DoubleValue
7.989

@<SCITEGIC>MOL_PROPERTY
Coulomb
SciTegic.value.DoubleValue
-2.697

@<SCITEGIC>MOL_PROPERTY
VdW
SciTegic.value.DoubleValue
1.281

@<SCITEGIC>MOL_PROPERTY
VdW6
SciTegic.value.DoubleValue
-6.467

@<SCITEGIC>MOL_PROPERTY
VdW12
SciTegic.value.DoubleValue
7.748

@<SCITEGIC>MOL_PROPERTY
Bond
SciTegic.value.DoubleValue
0.136

@<SCITEGIC>MOL_PROPERTY
Angle
SciTegic.value.DoubleValue
2.854

@<SCITEGIC>MOL_PROPERTY
Pdih
SciTegic.value.DoubleValue
4.997

@<SCITEGIC>MOL_PROPERTY
Idih
SciTegic.value.DoubleValue
0.001

@<SCITEGIC>MOL_PROPERTY
Tether
SciTegic.value.DoubleValue
0.000

@<TRIPOS>MOLECULE
guest-s22_confgen4.mol2 : confsearch ligand conformer 864
          20          19           1
SMALL
USER_CHARGES
 
@<TRIPOS>ATOM
       1    C1      19.021844   19.564925   25.263053 C.2        1 MOL1        -0.2535
       2    H1      18.063288   19.831526   24.820704 H          1 MOL1         0.0845
       3    H2      19.184139   19.832677   26.305753 H          1 MOL1         0.0845
       4    C2      19.965373   18.936439   24.557024 C.2        1 MOL1        -0.1324
       5    H3      20.918376   18.679072   25.018741 H          1 MOL1         0.0833
       6    C3      19.811650   18.532148   23.107606 C.3        1 MOL1        -0.1813
       7    H4      18.754326   18.580757   22.817255 H          1 MOL1         0.0753
       8    H5      20.127339   17.487777   22.982855 H          1 MOL1         0.0753
       9    C4      20.653948   19.441962   22.185254 C.3        1 MOL1        -0.1855
      10    H6      20.300949   20.478978   22.269995 H          1 MOL1         0.0755
      11    H7      21.694670   19.439231   22.537354 H          1 MOL1         0.0755
      12    C5      20.634667   19.004433   20.701165 C.3        1 MOL1        -0.1855
      13    H8      20.996666   17.970656   20.613795 H          1 MOL1         0.0755
      14    H9      21.343674   19.629480   20.140696 H          1 MOL1         0.0755
      15    C6      19.237096   19.121577   20.039250 C.3        1 MOL1        -0.1958
      16    H10     18.524361   18.440230   20.517242 H          1 MOL1         0.0753
      17    H11     18.845770   20.138921   20.158716 H          1 MOL1         0.0753
      18    C7      19.261471   18.796213   18.550131 C.2        1 MOL1         0.6174
      19    O1      19.463132   19.704019   17.767855 O.co2      1 MOL1        -0.6695
      20    O2      19.098047   17.640327   18.212589 O.co2      1 MOL1        -0.6695
@<TRIPOS>BOND
    1     1     2    1
    2     1     3    1
    3     1     4    2
    4     4     5    1
    5     4     6    1
    6     6     7    1
    7     6     8    1
    8     6     9    1
    9     9    10    1
   10     9    11    1
   11     9    12    1
   12    12    13    1
   13    12    14    1
   14    12    15    1
   15    15    16    1
   16    15    17    1
   17    15    18    1
   18    18    19    1
   19    18    20    2
@<TRIPOS>SUBSTRUCTURE
       1 MOL1            1 RESIDUE      1      MOL     
@<SCITEGIC>MOL_PROPERTY
VConf Rank
SciTegic.value.IntegerValue
864

@<SCITEGIC>MOL_PROPERTY
Conf_Id
SciTegic.value.IntegerValue
38

@<SCITEGIC>MOL_PROPERTY
Delta U+W
SciTegic.value.DoubleValue
-0.381

@<SCITEGIC>MOL_PROPERTY
U+W
SciTegic.value.DoubleValue
-52.126

@<SCITEGIC>MOL_PROPERTY
Grad RMS
SciTegic.value.DoubleValue
0.000000

@<SCITEGIC>MOL_PROPERTY
U
SciTegic.value.DoubleValue
7.601

@<SCITEGIC>MOL_PROPERTY
W
SciTegic.value.DoubleValue
-59.727

@<SCITEGIC>MOL_PROPERTY
W(PB)
SciTegic.value.DoubleValue
-61.964

@<SCITEGIC>MOL_PROPERTY
W(SA)
SciTegic.value.DoubleValue
2.236

@<SCITEGIC>MOL_PROPERTY
Valence
SciTegic.value.DoubleValue
9.602

@<SCITEGIC>MOL_PROPERTY
Coulomb
SciTegic.value.DoubleValue
-2.686

@<SCITEGIC>MOL_PROPERTY
VdW
SciTegic.value.DoubleValue
0.685

@<SCITEGIC>MOL_PROPERTY
VdW6
SciTegic.value.DoubleValue
-6.453

@<SCITEGIC>MOL_PROPERTY
VdW12
SciTegic.value.DoubleValue
7.139

@<SCITEGIC>MOL_PROPERTY
Bond
SciTegic.value.DoubleValue
0.125

@<SCITEGIC>MOL_PROPERTY
Angle
SciTegic.value.DoubleValue
2.485

@<SCITEGIC>MOL_PROPERTY
Pdih
SciTegic.value.DoubleValue
6.991

@<SCITEGIC>MOL_PROPERTY
Idih
SciTegic.value.DoubleValue
0.001

@<SCITEGIC>MOL_PROPERTY
Tether
SciTegic.value.DoubleValue
0.000

@<TRIPOS>MOLECULE
guest-s22_confgen4.mol2 : confsearch ligand conformer 865
          20          19           1
SMALL
USER_CHARGES
 
@<TRIPOS>ATOM
       1    C1      20.088693   15.987776   23.466277 C.2        1 MOL1        -0.2535
       2    H1      19.281028   15.569457   22.867725 H          1 MOL1         0.0845
       3    H2      20.822247   15.293601   23.872833 H          1 MOL1         0.0845
       4    C2      20.181017   17.300626   23.693356 C.2        1 MOL1        -0.1324
       5    H3      20.997986   17.699129   24.294535 H          1 MOL1         0.0833
       6    C3      19.201234   18.323689   23.163244 C.3        1 MOL1        -0.1813
       7    H4      18.890604   18.991429   23.977956 H          1 MOL1         0.0753
       8    H5      18.292403   17.826258   22.798102 H          1 MOL1         0.0753
       9    C4      19.826053   19.155062   22.023318 C.3        1 MOL1        -0.1855
      10    H6      20.733458   19.653356   22.391760 H          1 MOL1         0.0755
      11    H7      20.139863   18.483310   21.212427 H          1 MOL1         0.0755
      12    C5      18.838343   20.207999   21.471877 C.3        1 MOL1        -0.1855
      13    H8      18.530568   20.888182   22.278302 H          1 MOL1         0.0755
      14    H9      17.928748   19.702295   21.120476 H          1 MOL1         0.0755
      15    C6      19.437790   21.033939   20.304238 C.3        1 MOL1        -0.1958
      16    H10     19.775633   20.366468   19.502238 H          1 MOL1         0.0753
      17    H11     18.661767   21.678568   19.875033 H          1 MOL1         0.0753
      18    C7      20.601869   21.931864   20.713527 C.2        1 MOL1         0.6174
      19    O1      21.727282   21.592334   20.405085 O.co2      1 MOL1        -0.6695
      20    O2      20.350125   22.953892   21.321129 O.co2      1 MOL1        -0.6695
@<TRIPOS>BOND
    1     1     2    1
    2     1     3    1
    3     1     4    2
    4     4     5    1
    5     4     6    1
    6     6     7    1
    7     6     8    1
    8     6     9    1
    9     9    10    1
   10     9    11    1
   11     9    12    1
   12    12    13    1
   13    12    14    1
   14    12    15    1
   15    15    16    1
   16    15    17    1
   17    15    18    1
   18    18    19    1
   19    18    20    2
@<TRIPOS>SUBSTRUCTURE
       1 MOL1            1 RESIDUE      1      MOL     
@<SCITEGIC>MOL_PROPERTY
VConf Rank
SciTegic.value.IntegerValue
865

@<SCITEGIC>MOL_PROPERTY
Conf_Id
SciTegic.value.IntegerValue
58

@<SCITEGIC>MOL_PROPERTY
Delta U+W
SciTegic.value.DoubleValue
0.019

@<SCITEGIC>MOL_PROPERTY
U+W
SciTegic.value.DoubleValue
-51.727

@<SCITEGIC>MOL_PROPERTY
Grad RMS
SciTegic.value.DoubleValue
0.000000

@<SCITEGIC>MOL_PROPERTY
U
SciTegic.value.DoubleValue
8.963

@<SCITEGIC>MOL_PROPERTY
W
SciTegic.value.DoubleValue
-60.690

@<SCITEGIC>MOL_PROPERTY
W(PB)
SciTegic.value.DoubleValue
-62.934

@<SCITEGIC>MOL_PROPERTY
W(SA)
SciTegic.value.DoubleValue
2.244

@<SCITEGIC>MOL_PROPERTY
Valence
SciTegic.value.DoubleValue
9.327

@<SCITEGIC>MOL_PROPERTY
Coulomb
SciTegic.value.DoubleValue
-0.780

@<SCITEGIC>MOL_PROPERTY
VdW
SciTegic.value.DoubleValue
0.417

@<SCITEGIC>MOL_PROPERTY
VdW6
SciTegic.value.DoubleValue
-6.635

@<SCITEGIC>MOL_PROPERTY
VdW12
SciTegic.value.DoubleValue
7.052

@<SCITEGIC>MOL_PROPERTY
Bond
SciTegic.value.DoubleValue
0.105

@<SCITEGIC>MOL_PROPERTY
Angle
SciTegic.value.DoubleValue
2.399

@<SCITEGIC>MOL_PROPERTY
Pdih
SciTegic.value.DoubleValue
6.822

@<SCITEGIC>MOL_PROPERTY
Idih
SciTegic.value.DoubleValue
0.000

@<SCITEGIC>MOL_PROPERTY
Tether
SciTegic.value.DoubleValue
0.000

@<TRIPOS>MOLECULE
guest-s22_confgen4.mol2 : confsearch ligand conformer 866
          20          19           1
SMALL
USER_CHARGES
 
@<TRIPOS>ATOM
       1    C1      17.981975   16.309857   23.055646 C.2        1 MOL1        -0.2535
       2    H1      17.010538   16.788409   22.942175 H          1 MOL1         0.0845
       3    H2      18.038553   15.439457   23.707159 H          1 MOL1         0.0845
       4    C2      19.064813   16.770808   22.424258 C.2        1 MOL1        -0.1324
       5    H3      20.028201   16.277672   22.552164 H          1 MOL1         0.0833
       6    C3      19.063123   17.971717   21.504769 C.3        1 MOL1        -0.1813
       7    H4      18.033296   18.242380   21.234698 H          1 MOL1         0.0753
       8    H5      19.579273   17.718619   20.569004 H          1 MOL1         0.0753
       9    C4      19.756210   19.181112   22.166590 C.3        1 MOL1        -0.1855
      10    H6      19.240084   19.428264   23.104568 H          1 MOL1         0.0755
      11    H7      20.786658   18.908519   22.433616 H          1 MOL1         0.0755
      12    C5      19.765826   20.416768   21.238480 C.3        1 MOL1        -0.1855
      13    H8      18.733167   20.672022   20.964538 H          1 MOL1         0.0755
      14    H9      20.290790   20.176129   20.303492 H          1 MOL1         0.0755
      15    C6      20.431534   21.652518   21.897759 C.3        1 MOL1        -0.1958
      16    H10     20.306078   22.526671   21.248070 H          1 MOL1         0.0753
      17    H11     19.935799   21.888626   22.847158 H          1 MOL1         0.0753
      18    C7      21.926372   21.487236   22.156614 C.2        1 MOL1         0.6174
      19    O1      22.683828   21.571135   21.209875 O.co2      1 MOL1        -0.6695
      20    O2      22.294973   21.290279   23.297803 O.co2      1 MOL1        -0.6695
@<TRIPOS>BOND
    1     1     2    1
    2     1     3    1
    3     1     4    2
    4     4     5    1
    5     4     6    1
    6     6     7    1
    7     6     8    1
    8     6     9    1
    9     9    10    1
   10     9    11    1
   11     9    12    1
   12    12    13    1
   13    12    14    1
   14    12    15    1
   15    15    16    1
   16    15    17    1
   17    15    18    1
   18    18    19    1
   19    18    20    2
@<TRIPOS>SUBSTRUCTURE
       1 MOL1            1 RESIDUE      1      MOL     
@<SCITEGIC>MOL_PROPERTY
VConf Rank
SciTegic.value.IntegerValue
866

@<SCITEGIC>MOL_PROPERTY
Conf_Id
SciTegic.value.IntegerValue
54

@<SCITEGIC>MOL_PROPERTY
Delta U+W
SciTegic.value.DoubleValue
-0.048

@<SCITEGIC>MOL_PROPERTY
U+W
SciTegic.value.DoubleValue
-51.793

@<SCITEGIC>MOL_PROPERTY
Grad RMS
SciTegic.value.DoubleValue
0.000000

@<SCITEGIC>MOL_PROPERTY
U
SciTegic.value.DoubleValue
8.964

@<SCITEGIC>MOL_PROPERTY
W
SciTegic.value.DoubleValue
-60.756

@<SCITEGIC>MOL_PROPERTY
W(PB)
SciTegic.value.DoubleValue
-63.007

@<SCITEGIC>MOL_PROPERTY
W(SA)
SciTegic.value.DoubleValue
2.251

@<SCITEGIC>MOL_PROPERTY
Valence
SciTegic.value.DoubleValue
9.327

@<SCITEGIC>MOL_PROPERTY
Coulomb
SciTegic.value.DoubleValue
-0.780

@<SCITEGIC>MOL_PROPERTY
VdW
SciTegic.value.DoubleValue
0.417

@<SCITEGIC>MOL_PROPERTY
VdW6
SciTegic.value.DoubleValue
-6.635

@<SCITEGIC>MOL_PROPERTY
VdW12
SciTegic.value.DoubleValue
7.052

@<SCITEGIC>MOL_PROPERTY
Bond
SciTegic.value.DoubleValue
0.105

@<SCITEGIC>MOL_PROPERTY
Angle
SciTegic.value.DoubleValue
2.399

@<SCITEGIC>MOL_PROPERTY
Pdih
SciTegic.value.DoubleValue
6.822

@<SCITEGIC>MOL_PROPERTY
Idih
SciTegic.value.DoubleValue
0.000

@<SCITEGIC>MOL_PROPERTY
Tether
SciTegic.value.DoubleValue
0.000

@<TRIPOS>MOLECULE
guest-s22_confgen4.mol2 : confsearch ligand conformer 867
          20          19           1
SMALL
USER_CHARGES
 
@<TRIPOS>ATOM
       1    C1      16.672890   19.023641   23.334089 C.2        1 MOL1        -0.2535
       2    H1      15.699420   18.727387   22.947079 H          1 MOL1         0.0845
       3    H2      16.891176   18.788934   24.374653 H          1 MOL1         0.0845
       4    C2      17.563121   19.647839   22.558502 C.2        1 MOL1        -0.1324
       5    H3      17.322908   19.876346   21.520554 H          1 MOL1         0.0833
       6    C3      18.930809   20.094975   23.028978 C.3        1 MOL1        -0.1813
       7    H4      18.941988   20.159441   24.125449 H          1 MOL1         0.0753
       8    H5      19.141274   21.107591   22.659711 H          1 MOL1         0.0753
       9    C4      20.052655   19.132195   22.578740 C.3        1 MOL1        -0.1855
      10    H6      20.990601   19.434170   23.064590 H          1 MOL1         0.0755
      11    H7      19.828346   18.117524   22.935484 H          1 MOL1         0.0755
      12    C5      20.252197   19.116172   21.044455 C.3        1 MOL1        -0.1855
      13    H8      20.462104   20.133289   20.685501 H          1 MOL1         0.0755
      14    H9      19.322442   18.794268   20.557189 H          1 MOL1         0.0755
      15    C6      21.397930   18.168868   20.602763 C.3        1 MOL1        -0.1958
      16    H10     21.219266   17.155711   20.982794 H          1 MOL1         0.0753
      17    H11     21.414345   18.099259   19.508760 H          1 MOL1         0.0753
      18    C7      22.784827   18.620405   21.051612 C.2        1 MOL1         0.6174
      19    O1      23.310218   18.033423   21.977066 O.co2      1 MOL1        -0.6695
      20    O2      23.307681   19.541524   20.455560 O.co2      1 MOL1        -0.6695
@<TRIPOS>BOND
    1     1     2    1
    2     1     3    1
    3     1     4    2
    4     4     5    1
    5     4     6    1
    6     6     7    1
    7     6     8    1
    8     6     9    1
    9     9    10    1
   10     9    11    1
   11     9    12    1
   12    12    13    1
   13    12    14    1
   14    12    15    1
   15    15    16    1
   16    15    17    1
   17    15    18    1
   18    18    19    1
   19    18    20    2
@<TRIPOS>SUBSTRUCTURE
       1 MOL1            1 RESIDUE      1      MOL     
@<SCITEGIC>MOL_PROPERTY
VConf Rank
SciTegic.value.IntegerValue
867

@<SCITEGIC>MOL_PROPERTY
Conf_Id
SciTegic.value.IntegerValue
27

@<SCITEGIC>MOL_PROPERTY
Delta U+W
SciTegic.value.DoubleValue
0.478

@<SCITEGIC>MOL_PROPERTY
U+W
SciTegic.value.DoubleValue
-51.267

@<SCITEGIC>MOL_PROPERTY
Grad RMS
SciTegic.value.DoubleValue
0.000000

@<SCITEGIC>MOL_PROPERTY
U
SciTegic.value.DoubleValue
9.192

@<SCITEGIC>MOL_PROPERTY
W
SciTegic.value.DoubleValue
-60.459

@<SCITEGIC>MOL_PROPERTY
W(PB)
SciTegic.value.DoubleValue
-62.649

@<SCITEGIC>MOL_PROPERTY
W(SA)
SciTegic.value.DoubleValue
2.190

@<SCITEGIC>MOL_PROPERTY
Valence
SciTegic.value.DoubleValue
9.572

@<SCITEGIC>MOL_PROPERTY
Coulomb
SciTegic.value.DoubleValue
-0.884

@<SCITEGIC>MOL_PROPERTY
VdW
SciTegic.value.DoubleValue
0.504

@<SCITEGIC>MOL_PROPERTY
VdW6
SciTegic.value.DoubleValue
-7.168

@<SCITEGIC>MOL_PROPERTY
VdW12
SciTegic.value.DoubleValue
7.672

@<SCITEGIC>MOL_PROPERTY
Bond
SciTegic.value.DoubleValue
0.127

@<SCITEGIC>MOL_PROPERTY
Angle
SciTegic.value.DoubleValue
2.504

@<SCITEGIC>MOL_PROPERTY
Pdih
SciTegic.value.DoubleValue
6.941

@<SCITEGIC>MOL_PROPERTY
Idih
SciTegic.value.DoubleValue
0.001

@<SCITEGIC>MOL_PROPERTY
Tether
SciTegic.value.DoubleValue
0.000

@<TRIPOS>MOLECULE
guest-s22_confgen4.mol2 : confsearch ligand conformer 868
          20          19           1
SMALL
USER_CHARGES
 
@<TRIPOS>ATOM
       1    C1      22.499552   17.007952   21.726933 C.2        1 MOL1        -0.2535
       2    H1      23.322496   17.717591   21.658516 H          1 MOL1         0.0845
       3    H2      22.634232   16.037173   21.252964 H          1 MOL1         0.0845
       4    C2      21.366132   17.313742   22.363744 C.2        1 MOL1        -0.1324
       5    H3      20.556046   16.587422   22.423026 H          1 MOL1         0.0833
       6    C3      21.110641   18.638606   23.050226 C.3        1 MOL1        -0.1813
       7    H4      22.065947   19.143353   23.248160 H          1 MOL1         0.0753
       8    H5      20.644285   18.468594   24.029853 H          1 MOL1         0.0753
       9    C4      20.220637   19.577192   22.204644 C.3        1 MOL1        -0.1855
      10    H6      20.182273   20.561372   22.691260 H          1 MOL1         0.0755
      11    H7      20.684388   19.730818   21.220449 H          1 MOL1         0.0755
      12    C5      18.780966   19.042330   22.027690 C.3        1 MOL1        -0.1855
      13    H8      18.327828   18.864680   23.012811 H          1 MOL1         0.0755
      14    H9      18.801423   18.075558   21.506522 H          1 MOL1         0.0755
      15    C6      17.895054   20.028820   21.227654 C.3        1 MOL1        -0.1958
      16    H10     17.847570   20.997091   21.740230 H          1 MOL1         0.0753
      17    H11     18.328109   20.207403   20.236100 H          1 MOL1         0.0753
      18    C7      16.469337   19.523450   21.037976 C.2        1 MOL1         0.6174
      19    O1      16.223965   18.854122   20.053876 O.co2      1 MOL1        -0.6695
      20    O2      15.645786   19.797712   21.888414 O.co2      1 MOL1        -0.6695
@<TRIPOS>BOND
    1     1     2    1
    2     1     3    1
    3     1     4    2
    4     4     5    1
    5     4     6    1
    6     6     7    1
    7     6     8    1
    8     6     9    1
    9     9    10    1
   10     9    11    1
   11     9    12    1
   12    12    13    1
   13    12    14    1
   14    12    15    1
   15    15    16    1
   16    15    17    1
   17    15    18    1
   18    18    19    1
   19    18    20    2
@<TRIPOS>SUBSTRUCTURE
       1 MOL1            1 RESIDUE      1      MOL     
@<SCITEGIC>MOL_PROPERTY
VConf Rank
SciTegic.value.IntegerValue
868

@<SCITEGIC>MOL_PROPERTY
Conf_Id
SciTegic.value.IntegerValue
41

@<SCITEGIC>MOL_PROPERTY
Delta U+W
SciTegic.value.DoubleValue
-0.634

@<SCITEGIC>MOL_PROPERTY
U+W
SciTegic.value.DoubleValue
-52.379

@<SCITEGIC>MOL_PROPERTY
Grad RMS
SciTegic.value.DoubleValue
0.000000

@<SCITEGIC>MOL_PROPERTY
U
SciTegic.value.DoubleValue
7.828

@<SCITEGIC>MOL_PROPERTY
W
SciTegic.value.DoubleValue
-60.207

@<SCITEGIC>MOL_PROPERTY
W(PB)
SciTegic.value.DoubleValue
-62.449

@<SCITEGIC>MOL_PROPERTY
W(SA)
SciTegic.value.DoubleValue
2.242

@<SCITEGIC>MOL_PROPERTY
Valence
SciTegic.value.DoubleValue
9.300

@<SCITEGIC>MOL_PROPERTY
Coulomb
SciTegic.value.DoubleValue
-2.080

@<SCITEGIC>MOL_PROPERTY
VdW
SciTegic.value.DoubleValue
0.608

@<SCITEGIC>MOL_PROPERTY
VdW6
SciTegic.value.DoubleValue
-6.341

@<SCITEGIC>MOL_PROPERTY
VdW12
SciTegic.value.DoubleValue
6.949

@<SCITEGIC>MOL_PROPERTY
Bond
SciTegic.value.DoubleValue
0.103

@<SCITEGIC>MOL_PROPERTY
Angle
SciTegic.value.DoubleValue
2.334

@<SCITEGIC>MOL_PROPERTY
Pdih
SciTegic.value.DoubleValue
6.862

@<SCITEGIC>MOL_PROPERTY
Idih
SciTegic.value.DoubleValue
0.001

@<SCITEGIC>MOL_PROPERTY
Tether
SciTegic.value.DoubleValue
0.000

@<TRIPOS>MOLECULE
guest-s22_confgen4.mol2 : confsearch ligand conformer 869
          20          19           1
SMALL
USER_CHARGES
 
@<TRIPOS>ATOM
       1    C1      20.955708   16.579145   24.538592 C.2        1 MOL1        -0.2535
       2    H1      21.064910   16.360986   25.599591 H          1 MOL1         0.0845
       3    H2      20.949794   15.734581   23.851403 H          1 MOL1         0.0845
       4    C2      20.831842   17.835041   24.101443 C.2        1 MOL1        -0.1324
       5    H3      20.839496   18.666668   24.805719 H          1 MOL1         0.0833
       6    C3      20.677653   18.215011   22.645611 C.3        1 MOL1        -0.1813
       7    H4      20.936375   17.364139   22.001055 H          1 MOL1         0.0753
       8    H5      21.383122   19.021745   22.408023 H          1 MOL1         0.0753
       9    C4      19.233548   18.672546   22.341643 C.3        1 MOL1        -0.1855
      10    H6      18.536386   17.892985   22.678405 H          1 MOL1         0.0755
      11    H7      19.000776   19.569937   22.931359 H          1 MOL1         0.0755
      12    C5      18.975293   18.949359   20.840020 C.3        1 MOL1        -0.1855
      13    H8      17.912418   19.192031   20.702927 H          1 MOL1         0.0755
      14    H9      19.157285   18.030574   20.266330 H          1 MOL1         0.0755
      15    C6      19.830306   20.100292   20.242754 C.3        1 MOL1        -0.1958
      16    H10     20.897627   19.857209   20.295113 H          1 MOL1         0.0753
      17    H11     19.590678   20.215987   19.179317 H          1 MOL1         0.0753
      18    C7      19.604240   21.454580   20.908739 C.2        1 MOL1         0.6174
      19    O1      18.555546   22.030233   20.693638 O.co2      1 MOL1        -0.6695
      20    O2      20.488199   21.906527   21.609677 O.co2      1 MOL1        -0.6695
@<TRIPOS>BOND
    1     1     2    1
    2     1     3    1
    3     1     4    2
    4     4     5    1
    5     4     6    1
    6     6     7    1
    7     6     8    1
    8     6     9    1
    9     9    10    1
   10     9    11    1
   11     9    12    1
   12    12    13    1
   13    12    14    1
   14    12    15    1
   15    15    16    1
   16    15    17    1
   17    15    18    1
   18    18    19    1
   19    18    20    2
@<TRIPOS>SUBSTRUCTURE
       1 MOL1            1 RESIDUE      1      MOL     
@<SCITEGIC>MOL_PROPERTY
VConf Rank
SciTegic.value.IntegerValue
869

@<SCITEGIC>MOL_PROPERTY
Conf_Id
SciTegic.value.IntegerValue
84

@<SCITEGIC>MOL_PROPERTY
Delta U+W
SciTegic.value.DoubleValue
0.942

@<SCITEGIC>MOL_PROPERTY
U+W
SciTegic.value.DoubleValue
-50.803

@<SCITEGIC>MOL_PROPERTY
Grad RMS
SciTegic.value.DoubleValue
0.000000

@<SCITEGIC>MOL_PROPERTY
U
SciTegic.value.DoubleValue
10.196

@<SCITEGIC>MOL_PROPERTY
W
SciTegic.value.DoubleValue
-60.999

@<SCITEGIC>MOL_PROPERTY
W(PB)
SciTegic.value.DoubleValue
-63.182

@<SCITEGIC>MOL_PROPERTY
W(SA)
SciTegic.value.DoubleValue
2.182

@<SCITEGIC>MOL_PROPERTY
Valence
SciTegic.value.DoubleValue
9.837

@<SCITEGIC>MOL_PROPERTY
Coulomb
SciTegic.value.DoubleValue
0.032

@<SCITEGIC>MOL_PROPERTY
VdW
SciTegic.value.DoubleValue
0.328

@<SCITEGIC>MOL_PROPERTY
VdW6
SciTegic.value.DoubleValue
-7.642

@<SCITEGIC>MOL_PROPERTY
VdW12
SciTegic.value.DoubleValue
7.969

@<SCITEGIC>MOL_PROPERTY
Bond
SciTegic.value.DoubleValue
0.151

@<SCITEGIC>MOL_PROPERTY
Angle
SciTegic.value.DoubleValue
2.748

@<SCITEGIC>MOL_PROPERTY
Pdih
SciTegic.value.DoubleValue
6.937

@<SCITEGIC>MOL_PROPERTY
Idih
SciTegic.value.DoubleValue
0.001

@<SCITEGIC>MOL_PROPERTY
Tether
SciTegic.value.DoubleValue
0.000

@<TRIPOS>MOLECULE
guest-s22_confgen4.mol2 : confsearch ligand conformer 870
          20          19           1
SMALL
USER_CHARGES
 
@<TRIPOS>ATOM
       1    C1      16.756706   21.037879   21.370056 C.2        1 MOL1        -0.2535
       2    H1      15.842102   21.079569   20.780969 H          1 MOL1         0.0845
       3    H2      16.676443   21.247892   22.435436 H          1 MOL1         0.0845
       4    C2      17.928812   20.737979   20.804467 C.2        1 MOL1        -0.1324
       5    H3      17.987339   20.530164   19.736280 H          1 MOL1         0.0833
       6    C3      19.238583   20.662263   21.557085 C.3        1 MOL1        -0.1813
       7    H4      19.136127   21.128322   22.546570 H          1 MOL1         0.0753
       8    H5      20.005987   21.232674   21.016896 H          1 MOL1         0.0753
       9    C4      19.701802   19.199852   21.723944 C.3        1 MOL1        -0.1855
      10    H6      18.926809   18.633778   22.259320 H          1 MOL1         0.0755
      11    H7      19.808443   18.734279   20.734541 H          1 MOL1         0.0755
      12    C5      21.041485   19.105209   22.488552 C.3        1 MOL1        -0.1855
      13    H8      20.934439   19.557523   23.484377 H          1 MOL1         0.0755
      14    H9      21.804436   19.689393   21.956381 H          1 MOL1         0.0755
      15    C6      21.540458   17.644634   22.638984 C.3        1 MOL1        -0.1958
      16    H10     21.626597   17.170235   21.653906 H          1 MOL1         0.0753
      17    H11     22.543934   17.643830   23.080585 H          1 MOL1         0.0753
      18    C7      20.652309   16.773768   23.523109 C.2        1 MOL1         0.6174
      19    O1      19.933790   15.953193   22.987050 O.co2      1 MOL1        -0.6695
      20    O2      20.712974   16.930976   24.726733 O.co2      1 MOL1        -0.6695
@<TRIPOS>BOND
    1     1     2    1
    2     1     3    1
    3     1     4    2
    4     4     5    1
    5     4     6    1
    6     6     7    1
    7     6     8    1
    8     6     9    1
    9     9    10    1
   10     9    11    1
   11     9    12    1
   12    12    13    1
   13    12    14    1
   14    12    15    1
   15    15    16    1
   16    15    17    1
   17    15    18    1
   18    18    19    1
   19    18    20    2
@<TRIPOS>SUBSTRUCTURE
       1 MOL1            1 RESIDUE      1      MOL     
@<SCITEGIC>MOL_PROPERTY
VConf Rank
SciTegic.value.IntegerValue
870

@<SCITEGIC>MOL_PROPERTY
Conf_Id
SciTegic.value.IntegerValue
81

@<SCITEGIC>MOL_PROPERTY
Delta U+W
SciTegic.value.DoubleValue
-0.051

@<SCITEGIC>MOL_PROPERTY
U+W
SciTegic.value.DoubleValue
-51.796

@<SCITEGIC>MOL_PROPERTY
Grad RMS
SciTegic.value.DoubleValue
0.000000

@<SCITEGIC>MOL_PROPERTY
U
SciTegic.value.DoubleValue
9.412

@<SCITEGIC>MOL_PROPERTY
W
SciTegic.value.DoubleValue
-61.209

@<SCITEGIC>MOL_PROPERTY
W(PB)
SciTegic.value.DoubleValue
-63.452

@<SCITEGIC>MOL_PROPERTY
W(SA)
SciTegic.value.DoubleValue
2.243

@<SCITEGIC>MOL_PROPERTY
Valence
SciTegic.value.DoubleValue
9.329

@<SCITEGIC>MOL_PROPERTY
Coulomb
SciTegic.value.DoubleValue
-0.323

@<SCITEGIC>MOL_PROPERTY
VdW
SciTegic.value.DoubleValue
0.406

@<SCITEGIC>MOL_PROPERTY
VdW6
SciTegic.value.DoubleValue
-6.640

@<SCITEGIC>MOL_PROPERTY
VdW12
SciTegic.value.DoubleValue
7.046

@<SCITEGIC>MOL_PROPERTY
Bond
SciTegic.value.DoubleValue
0.105

@<SCITEGIC>MOL_PROPERTY
Angle
SciTegic.value.DoubleValue
2.401

@<SCITEGIC>MOL_PROPERTY
Pdih
SciTegic.value.DoubleValue
6.823

@<SCITEGIC>MOL_PROPERTY
Idih
SciTegic.value.DoubleValue
0.000

@<SCITEGIC>MOL_PROPERTY
Tether
SciTegic.value.DoubleValue
0.000

@<TRIPOS>MOLECULE
guest-s22_confgen4.mol2 : confsearch ligand conformer 871
          20          19           1
SMALL
USER_CHARGES
 
@<TRIPOS>ATOM
       1    C1      19.042712   17.171517   19.489451 C.2        1 MOL1        -0.2535
       2    H1      18.242695   17.636044   18.915302 H          1 MOL1         0.0845
       3    H2      19.618513   16.386416   19.002405 H          1 MOL1         0.0845
       4    C2      19.312299   17.549306   20.741759 C.2        1 MOL1        -0.1324
       5    H3      20.115910   17.069809   21.299896 H          1 MOL1         0.0833
       6    C3      18.552605   18.627560   21.484563 C.3        1 MOL1        -0.1813
       7    H4      18.323796   18.292504   22.504522 H          1 MOL1         0.0753
       8    H5      17.581387   18.796510   21.000408 H          1 MOL1         0.0753
       9    C4      19.320731   19.970316   21.525764 C.3        1 MOL1        -0.1855
      10    H6      19.461694   20.328710   20.496921 H          1 MOL1         0.0755
      11    H7      18.696119   20.722433   22.026914 H          1 MOL1         0.0755
      12    C5      20.702813   19.905311   22.225559 C.3        1 MOL1        -0.1855
      13    H8      21.169941   20.898478   22.174647 H          1 MOL1         0.0755
      14    H9      21.364654   19.229863   21.667497 H          1 MOL1         0.0755
      15    C6      20.650505   19.455455   23.711184 C.3        1 MOL1        -0.1958
      16    H10     20.258428   18.435285   23.792234 H          1 MOL1         0.0753
      17    H11     21.667789   19.429983   24.118728 H          1 MOL1         0.0753
      18    C7      19.823529   20.370076   24.610141 C.2        1 MOL1         0.6174
      19    O1      18.754531   19.962264   25.020041 O.co2      1 MOL1        -0.6695
      20    O2      20.279576   21.461201   24.891081 O.co2      1 MOL1        -0.6695
@<TRIPOS>BOND
    1     1     2    1
    2     1     3    1
    3     1     4    2
    4     4     5    1
    5     4     6    1
    6     6     7    1
    7     6     8    1
    8     6     9    1
    9     9    10    1
   10     9    11    1
   11     9    12    1
   12    12    13    1
   13    12    14    1
   14    12    15    1
   15    15    16    1
   16    15    17    1
   17    15    18    1
   18    18    19    1
   19    18    20    2
@<TRIPOS>SUBSTRUCTURE
       1 MOL1            1 RESIDUE      1      MOL     
@<SCITEGIC>MOL_PROPERTY
VConf Rank
SciTegic.value.IntegerValue
871

@<SCITEGIC>MOL_PROPERTY
Conf_Id
SciTegic.value.IntegerValue
86

@<SCITEGIC>MOL_PROPERTY
Delta U+W
SciTegic.value.DoubleValue
1.248

@<SCITEGIC>MOL_PROPERTY
U+W
SciTegic.value.DoubleValue
-50.498

@<SCITEGIC>MOL_PROPERTY
Grad RMS
SciTegic.value.DoubleValue
0.000000

@<SCITEGIC>MOL_PROPERTY
U
SciTegic.value.DoubleValue
10.404

@<SCITEGIC>MOL_PROPERTY
W
SciTegic.value.DoubleValue
-60.901

@<SCITEGIC>MOL_PROPERTY
W(PB)
SciTegic.value.DoubleValue
-63.061

@<SCITEGIC>MOL_PROPERTY
W(SA)
SciTegic.value.DoubleValue
2.159

@<SCITEGIC>MOL_PROPERTY
Valence
SciTegic.value.DoubleValue
10.021

@<SCITEGIC>MOL_PROPERTY
Coulomb
SciTegic.value.DoubleValue
0.094

@<SCITEGIC>MOL_PROPERTY
VdW
SciTegic.value.DoubleValue
0.289

@<SCITEGIC>MOL_PROPERTY
VdW6
SciTegic.value.DoubleValue
-8.409

@<SCITEGIC>MOL_PROPERTY
VdW12
SciTegic.value.DoubleValue
8.698

@<SCITEGIC>MOL_PROPERTY
Bond
SciTegic.value.DoubleValue
0.179

@<SCITEGIC>MOL_PROPERTY
Angle
SciTegic.value.DoubleValue
2.939

@<SCITEGIC>MOL_PROPERTY
Pdih
SciTegic.value.DoubleValue
6.902

@<SCITEGIC>MOL_PROPERTY
Idih
SciTegic.value.DoubleValue
0.001

@<SCITEGIC>MOL_PROPERTY
Tether
SciTegic.value.DoubleValue
0.000

@<TRIPOS>MOLECULE
guest-s22_confgen4.mol2 : confsearch ligand conformer 872
          20          19           1
SMALL
USER_CHARGES
 
@<TRIPOS>ATOM
       1    C1      17.046776   17.985500   23.008451 C.2        1 MOL1        -0.2535
       2    H1      16.427244   18.030913   23.902443 H          1 MOL1         0.0845
       3    H2      16.610346   18.343498   22.077436 H          1 MOL1         0.0845
       4    C2      18.294642   17.511656   23.056714 C.2        1 MOL1        -0.1324
       5    H3      18.713456   17.160231   23.999308 H          1 MOL1         0.0833
       6    C3      19.214679   17.418018   21.858041 C.3        1 MOL1        -0.1813
       7    H4      18.658107   17.597107   20.928086 H          1 MOL1         0.0753
       8    H5      19.611354   16.396363   21.789553 H          1 MOL1         0.0753
       9    C4      20.398722   18.406895   21.948728 C.3        1 MOL1        -0.1855
      10    H6      20.953614   18.231054   22.880446 H          1 MOL1         0.0755
      11    H7      21.095760   18.198553   21.125478 H          1 MOL1         0.0755
      12    C5      19.948439   19.885357   21.878047 C.3        1 MOL1        -0.1855
      13    H8      19.256870   20.096867   22.704524 H          1 MOL1         0.0755
      14    H9      19.390216   20.059906   20.947847 H          1 MOL1         0.0755
      15    C6      21.138967   20.876005   21.957363 C.3        1 MOL1        -0.1958
      16    H10     20.757842   21.901611   22.026782 H          1 MOL1         0.0753
      17    H11     21.724360   20.692497   22.866438 H          1 MOL1         0.0753
      18    C7      22.075876   20.817947   20.754219 C.2        1 MOL1         0.6174
      19    O1      21.710366   21.338037   19.718343 O.co2      1 MOL1        -0.6695
      20    O2      23.150072   20.265141   20.886866 O.co2      1 MOL1        -0.6695
@<TRIPOS>BOND
    1     1     2    1
    2     1     3    1
    3     1     4    2
    4     4     5    1
    5     4     6    1
    6     6     7    1
    7     6     8    1
    8     6     9    1
    9     9    10    1
   10     9    11    1
   11     9    12    1
   12    12    13    1
   13    12    14    1
   14    12    15    1
   15    15    16    1
   16    15    17    1
   17    15    18    1
   18    18    19    1
   19    18    20    2
@<TRIPOS>SUBSTRUCTURE
       1 MOL1            1 RESIDUE      1      MOL     
@<SCITEGIC>MOL_PROPERTY
VConf Rank
SciTegic.value.IntegerValue
872

@<SCITEGIC>MOL_PROPERTY
Conf_Id
SciTegic.value.IntegerValue
28

@<SCITEGIC>MOL_PROPERTY
Delta U+W
SciTegic.value.DoubleValue
0.446

@<SCITEGIC>MOL_PROPERTY
U+W
SciTegic.value.DoubleValue
-51.299

@<SCITEGIC>MOL_PROPERTY
Grad RMS
SciTegic.value.DoubleValue
0.000000

@<SCITEGIC>MOL_PROPERTY
U
SciTegic.value.DoubleValue
9.295

@<SCITEGIC>MOL_PROPERTY
W
SciTegic.value.DoubleValue
-60.594

@<SCITEGIC>MOL_PROPERTY
W(PB)
SciTegic.value.DoubleValue
-62.806

@<SCITEGIC>MOL_PROPERTY
W(SA)
SciTegic.value.DoubleValue
2.212

@<SCITEGIC>MOL_PROPERTY
Valence
SciTegic.value.DoubleValue
9.495

@<SCITEGIC>MOL_PROPERTY
Coulomb
SciTegic.value.DoubleValue
-0.610

@<SCITEGIC>MOL_PROPERTY
VdW
SciTegic.value.DoubleValue
0.409

@<SCITEGIC>MOL_PROPERTY
VdW6
SciTegic.value.DoubleValue
-7.332

@<SCITEGIC>MOL_PROPERTY
VdW12
SciTegic.value.DoubleValue
7.741

@<SCITEGIC>MOL_PROPERTY
Bond
SciTegic.value.DoubleValue
0.126

@<SCITEGIC>MOL_PROPERTY
Angle
SciTegic.value.DoubleValue
2.497

@<SCITEGIC>MOL_PROPERTY
Pdih
SciTegic.value.DoubleValue
6.872

@<SCITEGIC>MOL_PROPERTY
Idih
SciTegic.value.DoubleValue
0.000

@<SCITEGIC>MOL_PROPERTY
Tether
SciTegic.value.DoubleValue
0.000

@<TRIPOS>MOLECULE
guest-s22_confgen4.mol2 : confsearch ligand conformer 873
          20          19           1
SMALL
USER_CHARGES
 
@<TRIPOS>ATOM
       1    C1      18.843220   19.369187   25.134988 C.2        1 MOL1        -0.2535
       2    H1      19.051485   18.327993   24.898272 H          1 MOL1         0.0845
       3    H2      18.627886   19.602685   26.176262 H          1 MOL1         0.0845
       4    C2      18.850321   20.332099   24.206159 C.2        1 MOL1        -0.1324
       5    H3      18.636228   21.357958   24.505021 H          1 MOL1         0.0833
       6    C3      19.129849   20.161698   22.722150 C.3        1 MOL1        -0.1813
       7    H4      20.022526   20.747763   22.468545 H          1 MOL1         0.0753
       8    H5      18.304431   20.612513   22.155401 H          1 MOL1         0.0753
       9    C4      19.318813   18.696578   22.257051 C.3        1 MOL1        -0.1855
      10    H6      20.198036   18.262458   22.752712 H          1 MOL1         0.0755
      11    H7      18.451591   18.104306   22.579282 H          1 MOL1         0.0755
      12    C5      19.461460   18.549575   20.721765 C.3        1 MOL1        -0.1855
      13    H8      18.557362   18.939889   20.235298 H          1 MOL1         0.0755
      14    H9      19.507017   17.480404   20.472352 H          1 MOL1         0.0755
      15    C6      20.708006   19.254169   20.119827 C.3        1 MOL1        -0.1958
      16    H10     20.718802   19.105995   19.033740 H          1 MOL1         0.0753
      17    H11     20.658431   20.336521   20.284006 H          1 MOL1         0.0753
      18    C7      22.038431   18.737765   20.660381 C.2        1 MOL1         0.6174
      19    O1      22.396393   17.623681   20.331546 O.co2      1 MOL1        -0.6695
      20    O2      22.691417   19.469507   21.378030 O.co2      1 MOL1        -0.6695
@<TRIPOS>BOND
    1     1     2    1
    2     1     3    1
    3     1     4    2
    4     4     5    1
    5     4     6    1
    6     6     7    1
    7     6     8    1
    8     6     9    1
    9     9    10    1
   10     9    11    1
   11     9    12    1
   12    12    13    1
   13    12    14    1
   14    12    15    1
   15    15    16    1
   16    15    17    1
   17    15    18    1
   18    18    19    1
   19    18    20    2
@<TRIPOS>SUBSTRUCTURE
       1 MOL1            1 RESIDUE      1      MOL     
@<SCITEGIC>MOL_PROPERTY
VConf Rank
SciTegic.value.IntegerValue
873

@<SCITEGIC>MOL_PROPERTY
Conf_Id
SciTegic.value.IntegerValue
53

@<SCITEGIC>MOL_PROPERTY
Delta U+W
SciTegic.value.DoubleValue
0.549

@<SCITEGIC>MOL_PROPERTY
U+W
SciTegic.value.DoubleValue
-51.197

@<SCITEGIC>MOL_PROPERTY
Grad RMS
SciTegic.value.DoubleValue
0.000000

@<SCITEGIC>MOL_PROPERTY
U
SciTegic.value.DoubleValue
10.870

@<SCITEGIC>MOL_PROPERTY
W
SciTegic.value.DoubleValue
-62.067

@<SCITEGIC>MOL_PROPERTY
W(PB)
SciTegic.value.DoubleValue
-64.228

@<SCITEGIC>MOL_PROPERTY
W(SA)
SciTegic.value.DoubleValue
2.161

@<SCITEGIC>MOL_PROPERTY
Valence
SciTegic.value.DoubleValue
8.803

@<SCITEGIC>MOL_PROPERTY
Coulomb
SciTegic.value.DoubleValue
1.020

@<SCITEGIC>MOL_PROPERTY
VdW
SciTegic.value.DoubleValue
1.048

@<SCITEGIC>MOL_PROPERTY
VdW6
SciTegic.value.DoubleValue
-8.312

@<SCITEGIC>MOL_PROPERTY
VdW12
SciTegic.value.DoubleValue
9.360

@<SCITEGIC>MOL_PROPERTY
Bond
SciTegic.value.DoubleValue
0.212

@<SCITEGIC>MOL_PROPERTY
Angle
SciTegic.value.DoubleValue
3.379

@<SCITEGIC>MOL_PROPERTY
Pdih
SciTegic.value.DoubleValue
5.211

@<SCITEGIC>MOL_PROPERTY
Idih
SciTegic.value.DoubleValue
0.001

@<SCITEGIC>MOL_PROPERTY
Tether
SciTegic.value.DoubleValue
0.000

@<TRIPOS>MOLECULE
guest-s22_confgen4.mol2 : confsearch ligand conformer 874
          20          19           1
SMALL
USER_CHARGES
 
@<TRIPOS>ATOM
       1    C1      17.488006   18.001768   20.561304 C.2        1 MOL1        -0.2535
       2    H1      18.299497   17.591772   19.964074 H          1 MOL1         0.0845
       3    H2      16.565954   18.249515   20.038462 H          1 MOL1         0.0845
       4    C2      17.600665   18.192643   21.880217 C.2        1 MOL1        -0.1324
       5    H3      16.756005   18.603819   22.432291 H          1 MOL1         0.0833
       6    C3      18.823919   17.898585   22.732901 C.3        1 MOL1        -0.1813
       7    H4      18.683369   16.928281   23.227023 H          1 MOL1         0.0753
       8    H5      18.870168   18.625655   23.553761 H          1 MOL1         0.0753
       9    C4      20.184540   17.899186   21.988265 C.3        1 MOL1        -0.1855
      10    H6      20.970458   17.602823   22.696320 H          1 MOL1         0.0755
      11    H7      20.177201   17.120951   21.213913 H          1 MOL1         0.0755
      12    C5      20.573891   19.257053   21.346816 C.3        1 MOL1        -0.1855
      13    H8      19.834276   19.530516   20.583440 H          1 MOL1         0.0755
      14    H9      21.527958   19.134321   20.816052 H          1 MOL1         0.0755
      15    C6      20.713737   20.429692   22.355618 C.3        1 MOL1        -0.1958
      16    H10     20.984667   21.343365   21.813985 H          1 MOL1         0.0753
      17    H11     19.754802   20.633430   22.845449 H          1 MOL1         0.0753
      18    C7      21.774882   20.206433   23.429188 C.2        1 MOL1         0.6174
      19    O1      21.407063   19.992931   24.567732 O.co2      1 MOL1        -0.6695
      20    O2      22.943509   20.270048   23.100900 O.co2      1 MOL1        -0.6695
@<TRIPOS>BOND
    1     1     2    1
    2     1     3    1
    3     1     4    2
    4     4     5    1
    5     4     6    1
    6     6     7    1
    7     6     8    1
    8     6     9    1
    9     9    10    1
   10     9    11    1
   11     9    12    1
   12    12    13    1
   13    12    14    1
   14    12    15    1
   15    15    16    1
   16    15    17    1
   17    15    18    1
   18    18    19    1
   19    18    20    2
@<TRIPOS>SUBSTRUCTURE
       1 MOL1            1 RESIDUE      1      MOL     
@<SCITEGIC>MOL_PROPERTY
VConf Rank
SciTegic.value.IntegerValue
874

@<SCITEGIC>MOL_PROPERTY
Conf_Id
SciTegic.value.IntegerValue
66

@<SCITEGIC>MOL_PROPERTY
Delta U+W
SciTegic.value.DoubleValue
1.737

@<SCITEGIC>MOL_PROPERTY
U+W
SciTegic.value.DoubleValue
-50.008

@<SCITEGIC>MOL_PROPERTY
Grad RMS
SciTegic.value.DoubleValue
0.000000

@<SCITEGIC>MOL_PROPERTY
U
SciTegic.value.DoubleValue
11.091

@<SCITEGIC>MOL_PROPERTY
W
SciTegic.value.DoubleValue
-61.099

@<SCITEGIC>MOL_PROPERTY
W(PB)
SciTegic.value.DoubleValue
-63.213

@<SCITEGIC>MOL_PROPERTY
W(SA)
SciTegic.value.DoubleValue
2.114

@<SCITEGIC>MOL_PROPERTY
Valence
SciTegic.value.DoubleValue
9.664

@<SCITEGIC>MOL_PROPERTY
Coulomb
SciTegic.value.DoubleValue
0.658

@<SCITEGIC>MOL_PROPERTY
VdW
SciTegic.value.DoubleValue
0.769

@<SCITEGIC>MOL_PROPERTY
VdW6
SciTegic.value.DoubleValue
-9.171

@<SCITEGIC>MOL_PROPERTY
VdW12
SciTegic.value.DoubleValue
9.940

@<SCITEGIC>MOL_PROPERTY
Bond
SciTegic.value.DoubleValue
0.244

@<SCITEGIC>MOL_PROPERTY
Angle
SciTegic.value.DoubleValue
3.658

@<SCITEGIC>MOL_PROPERTY
Pdih
SciTegic.value.DoubleValue
5.762

@<SCITEGIC>MOL_PROPERTY
Idih
SciTegic.value.DoubleValue
0.001

@<SCITEGIC>MOL_PROPERTY
Tether
SciTegic.value.DoubleValue
0.000

@<TRIPOS>MOLECULE
guest-s22_confgen4.mol2 : confsearch ligand conformer 875
          20          19           1
SMALL
USER_CHARGES
 
@<TRIPOS>ATOM
       1    C1      19.925599   21.553768   20.984116 C.2        1 MOL1        -0.2535
       2    H1      20.102988   20.940926   20.103127 H          1 MOL1         0.0845
       3    H2      19.443868   22.517100   20.826438 H          1 MOL1         0.0845
       4    C2      20.282202   21.158856   22.211209 C.2        1 MOL1        -0.1324
       5    H3      20.082723   21.814000   23.058755 H          1 MOL1         0.0833
       6    C3      20.953325   19.845634   22.579506 C.3        1 MOL1        -0.1813
       7    H4      20.590276   19.525167   23.563958 H          1 MOL1         0.0753
       8    H5      22.026400   20.029003   22.722579 H          1 MOL1         0.0753
       9    C4      20.766582   18.682120   21.570706 C.3        1 MOL1        -0.1855
      10    H6      21.180631   18.974169   20.596660 H          1 MOL1         0.0755
      11    H7      21.370042   17.827069   21.904400 H          1 MOL1         0.0755
      12    C5      19.300653   18.213241   21.386570 C.3        1 MOL1        -0.1855
      13    H8      19.273855   17.451965   20.594786 H          1 MOL1         0.0755
      14    H9      18.677217   19.045303   21.033585 H          1 MOL1         0.0755
      15    C6      18.675358   17.613995   22.672970 C.3        1 MOL1        -0.1958
      16    H10     19.312907   16.813928   23.067400 H          1 MOL1         0.0753
      17    H11     18.591611   18.379569   23.452538 H          1 MOL1         0.0753
      18    C7      17.284180   17.036210   22.438374 C.2        1 MOL1         0.6174
      19    O1      16.324121   17.762008   22.606467 O.co2      1 MOL1        -0.6695
      20    O2      17.197560   15.878347   22.079512 O.co2      1 MOL1        -0.6695
@<TRIPOS>BOND
    1     1     2    1
    2     1     3    1
    3     1     4    2
    4     4     5    1
    5     4     6    1
    6     6     7    1
    7     6     8    1
    8     6     9    1
    9     9    10    1
   10     9    11    1
   11     9    12    1
   12    12    13    1
   13    12    14    1
   14    12    15    1
   15    15    16    1
   16    15    17    1
   17    15    18    1
   18    18    19    1
   19    18    20    2
@<TRIPOS>SUBSTRUCTURE
       1 MOL1            1 RESIDUE      1      MOL     
@<SCITEGIC>MOL_PROPERTY
VConf Rank
SciTegic.value.IntegerValue
875

@<SCITEGIC>MOL_PROPERTY
Conf_Id
SciTegic.value.IntegerValue
64

@<SCITEGIC>MOL_PROPERTY
Delta U+W
SciTegic.value.DoubleValue
0.366

@<SCITEGIC>MOL_PROPERTY
U+W
SciTegic.value.DoubleValue
-51.379

@<SCITEGIC>MOL_PROPERTY
Grad RMS
SciTegic.value.DoubleValue
0.000000

@<SCITEGIC>MOL_PROPERTY
U
SciTegic.value.DoubleValue
10.000

@<SCITEGIC>MOL_PROPERTY
W
SciTegic.value.DoubleValue
-61.379

@<SCITEGIC>MOL_PROPERTY
W(PB)
SciTegic.value.DoubleValue
-63.541

@<SCITEGIC>MOL_PROPERTY
W(SA)
SciTegic.value.DoubleValue
2.162

@<SCITEGIC>MOL_PROPERTY
Valence
SciTegic.value.DoubleValue
9.398

@<SCITEGIC>MOL_PROPERTY
Coulomb
SciTegic.value.DoubleValue
-0.504

@<SCITEGIC>MOL_PROPERTY
VdW
SciTegic.value.DoubleValue
1.105

@<SCITEGIC>MOL_PROPERTY
VdW6
SciTegic.value.DoubleValue
-7.975

@<SCITEGIC>MOL_PROPERTY
VdW12
SciTegic.value.DoubleValue
9.080

@<SCITEGIC>MOL_PROPERTY
Bond
SciTegic.value.DoubleValue
0.216

@<SCITEGIC>MOL_PROPERTY
Angle
SciTegic.value.DoubleValue
3.417

@<SCITEGIC>MOL_PROPERTY
Pdih
SciTegic.value.DoubleValue
5.765

@<SCITEGIC>MOL_PROPERTY
Idih
SciTegic.value.DoubleValue
0.001

@<SCITEGIC>MOL_PROPERTY
Tether
SciTegic.value.DoubleValue
0.000

@<TRIPOS>MOLECULE
guest-s22_confgen4.mol2 : confsearch ligand conformer 876
          20          19           1
SMALL
USER_CHARGES
 
@<TRIPOS>ATOM
       1    C1      20.345717   20.091100   24.794423 C.2        1 MOL1        -0.2535
       2    H1      20.505768   21.082272   24.373258 H          1 MOL1         0.0845
       3    H2      20.986317   19.788325   25.620900 H          1 MOL1         0.0845
       4    C2      19.403843   19.273874   24.315856 C.2        1 MOL1        -0.1324
       5    H3      19.261570   18.284644   24.750107 H          1 MOL1         0.0833
       6    C3      18.477403   19.623913   23.170797 C.3        1 MOL1        -0.1813
       7    H4      18.546510   20.693605   22.930674 H          1 MOL1         0.0753
       8    H5      17.439656   19.442623   23.480728 H          1 MOL1         0.0753
       9    C4      18.771904   18.790575   21.903217 C.3        1 MOL1        -0.1855
      10    H6      18.703427   17.720723   22.143654 H          1 MOL1         0.0755
      11    H7      17.993644   18.995393   21.155391 H          1 MOL1         0.0755
      12    C5      20.157491   19.102585   21.292988 C.3        1 MOL1        -0.1855
      13    H8      20.947143   18.876235   22.022676 H          1 MOL1         0.0755
      14    H9      20.230035   20.175859   21.069142 H          1 MOL1         0.0755
      15    C6      20.413482   18.290915   19.999279 C.3        1 MOL1        -0.1958
      16    H10     20.356682   17.216145   20.209588 H          1 MOL1         0.0753
      17    H11     19.643576   18.516524   19.251728 H          1 MOL1         0.0753
      18    C7      21.775115   18.581217   19.378173 C.2        1 MOL1         0.6174
      19    O1      21.860360   19.499386   18.586688 O.co2      1 MOL1        -0.6695
      20    O2      22.717484   17.890700   19.712564 O.co2      1 MOL1        -0.6695
@<TRIPOS>BOND
    1     1     2    1
    2     1     3    1
    3     1     4    2
    4     4     5    1
    5     4     6    1
    6     6     7    1
    7     6     8    1
    8     6     9    1
    9     9    10    1
   10     9    11    1
   11     9    12    1
   12    12    13    1
   13    12    14    1
   14    12    15    1
   15    15    16    1
   16    15    17    1
   17    15    18    1
   18    18    19    1
   19    18    20    2
@<TRIPOS>SUBSTRUCTURE
       1 MOL1            1 RESIDUE      1      MOL     
@<SCITEGIC>MOL_PROPERTY
VConf Rank
SciTegic.value.IntegerValue
876

@<SCITEGIC>MOL_PROPERTY
Conf_Id
SciTegic.value.IntegerValue
42

@<SCITEGIC>MOL_PROPERTY
Delta U+W
SciTegic.value.DoubleValue
-0.601

@<SCITEGIC>MOL_PROPERTY
U+W
SciTegic.value.DoubleValue
-52.347

@<SCITEGIC>MOL_PROPERTY
Grad RMS
SciTegic.value.DoubleValue
0.000000

@<SCITEGIC>MOL_PROPERTY
U
SciTegic.value.DoubleValue
8.428

@<SCITEGIC>MOL_PROPERTY
W
SciTegic.value.DoubleValue
-60.774

@<SCITEGIC>MOL_PROPERTY
W(PB)
SciTegic.value.DoubleValue
-62.982

@<SCITEGIC>MOL_PROPERTY
W(SA)
SciTegic.value.DoubleValue
2.208

@<SCITEGIC>MOL_PROPERTY
Valence
SciTegic.value.DoubleValue
9.231

@<SCITEGIC>MOL_PROPERTY
Coulomb
SciTegic.value.DoubleValue
-1.304

@<SCITEGIC>MOL_PROPERTY
VdW
SciTegic.value.DoubleValue
0.501

@<SCITEGIC>MOL_PROPERTY
VdW6
SciTegic.value.DoubleValue
-6.515

@<SCITEGIC>MOL_PROPERTY
VdW12
SciTegic.value.DoubleValue
7.016

@<SCITEGIC>MOL_PROPERTY
Bond
SciTegic.value.DoubleValue
0.103

@<SCITEGIC>MOL_PROPERTY
Angle
SciTegic.value.DoubleValue
2.328

@<SCITEGIC>MOL_PROPERTY
Pdih
SciTegic.value.DoubleValue
6.799

@<SCITEGIC>MOL_PROPERTY
Idih
SciTegic.value.DoubleValue
0.000

@<SCITEGIC>MOL_PROPERTY
Tether
SciTegic.value.DoubleValue
0.000

@<TRIPOS>MOLECULE
guest-s22_confgen4.mol2 : confsearch ligand conformer 877
          20          19           1
SMALL
USER_CHARGES
 
@<TRIPOS>ATOM
       1    C1      19.219495   20.951544   19.627519 C.2        1 MOL1        -0.2535
       2    H1      18.714398   21.740437   20.182426 H          1 MOL1         0.0845
       3    H2      18.847794   20.723481   18.630062 H          1 MOL1         0.0845
       4    C2      20.252776   20.284367   20.148315 C.2        1 MOL1        -0.1324
       5    H3      20.742646   19.496103   19.577285 H          1 MOL1         0.0833
       6    C3      20.823603   20.543571   21.526311 C.3        1 MOL1        -0.1813
       7    H4      20.408764   21.468667   21.949058 H          1 MOL1         0.0753
       8    H5      21.907216   20.700171   21.442233 H          1 MOL1         0.0753
       9    C4      20.563857   19.370124   22.497657 C.3        1 MOL1        -0.1855
      10    H6      20.985524   18.447225   22.076002 H          1 MOL1         0.0755
      11    H7      21.102318   19.559709   23.436198 H          1 MOL1         0.0755
      12    C5      19.060757   19.171385   22.805006 C.3        1 MOL1        -0.1855
      13    H8      18.515859   18.939243   21.879507 H          1 MOL1         0.0755
      14    H9      18.642747   20.111508   23.189281 H          1 MOL1         0.0755
      15    C6      18.808179   18.046044   23.841651 C.3        1 MOL1        -0.1958
      16    H10     19.364054   18.249087   24.764962 H          1 MOL1         0.0753
      17    H11     17.745099   18.026269   24.108973 H          1 MOL1         0.0753
      18    C7      19.180918   16.651785   23.345748 C.2        1 MOL1         0.6174
      19    O1      20.216940   16.156779   23.744233 O.co2      1 MOL1        -0.6695
      20    O2      18.415025   16.090052   22.587487 O.co2      1 MOL1        -0.6695
@<TRIPOS>BOND
    1     1     2    1
    2     1     3    1
    3     1     4    2
    4     4     5    1
    5     4     6    1
    6     6     7    1
    7     6     8    1
    8     6     9    1
    9     9    10    1
   10     9    11    1
   11     9    12    1
   12    12    13    1
   13    12    14    1
   14    12    15    1
   15    15    16    1
   16    15    17    1
   17    15    18    1
   18    18    19    1
   19    18    20    2
@<TRIPOS>SUBSTRUCTURE
       1 MOL1            1 RESIDUE      1      MOL     
@<SCITEGIC>MOL_PROPERTY
VConf Rank
SciTegic.value.IntegerValue
877

@<SCITEGIC>MOL_PROPERTY
Conf_Id
SciTegic.value.IntegerValue
68

@<SCITEGIC>MOL_PROPERTY
Delta U+W
SciTegic.value.DoubleValue
0.492

@<SCITEGIC>MOL_PROPERTY
U+W
SciTegic.value.DoubleValue
-51.253

@<SCITEGIC>MOL_PROPERTY
Grad RMS
SciTegic.value.DoubleValue
0.000000

@<SCITEGIC>MOL_PROPERTY
U
SciTegic.value.DoubleValue
10.179

@<SCITEGIC>MOL_PROPERTY
W
SciTegic.value.DoubleValue
-61.432

@<SCITEGIC>MOL_PROPERTY
W(PB)
SciTegic.value.DoubleValue
-63.627

@<SCITEGIC>MOL_PROPERTY
W(SA)
SciTegic.value.DoubleValue
2.195

@<SCITEGIC>MOL_PROPERTY
Valence
SciTegic.value.DoubleValue
9.483

@<SCITEGIC>MOL_PROPERTY
Coulomb
SciTegic.value.DoubleValue
0.361

@<SCITEGIC>MOL_PROPERTY
VdW
SciTegic.value.DoubleValue
0.335

@<SCITEGIC>MOL_PROPERTY
VdW6
SciTegic.value.DoubleValue
-7.385

@<SCITEGIC>MOL_PROPERTY
VdW12
SciTegic.value.DoubleValue
7.720

@<SCITEGIC>MOL_PROPERTY
Bond
SciTegic.value.DoubleValue
0.125

@<SCITEGIC>MOL_PROPERTY
Angle
SciTegic.value.DoubleValue
2.487

@<SCITEGIC>MOL_PROPERTY
Pdih
SciTegic.value.DoubleValue
6.870

@<SCITEGIC>MOL_PROPERTY
Idih
SciTegic.value.DoubleValue
0.001

@<SCITEGIC>MOL_PROPERTY
Tether
SciTegic.value.DoubleValue
0.000

@<TRIPOS>MOLECULE
guest-s22_confgen4.mol2 : confsearch ligand conformer 878
          20          19           1
SMALL
USER_CHARGES
 
@<TRIPOS>ATOM
       1    C1      18.266659   17.433327   24.324255 C.2        1 MOL1        -0.2535
       2    H1      17.229935   17.763983   24.287362 H          1 MOL1         0.0845
       3    H2      18.653199   17.102486   25.286704 H          1 MOL1         0.0845
       4    C2      19.038507   17.435320   23.234327 C.2        1 MOL1        -0.1324
       5    H3      20.072818   17.097668   23.292963 H          1 MOL1         0.0833
       6    C3      18.568880   17.875102   21.863990 C.3        1 MOL1        -0.1813
       7    H4      17.471258   17.858709   21.825572 H          1 MOL1         0.0753
       8    H5      18.913615   17.161649   21.103636 H          1 MOL1         0.0753
       9    C4      19.055524   19.296980   21.503959 C.3        1 MOL1        -0.1855
      10    H6      18.578375   19.607388   20.564426 H          1 MOL1         0.0755
      11    H7      18.716771   20.002996   22.274923 H          1 MOL1         0.0755
      12    C5      20.592103   19.384812   21.346038 C.3        1 MOL1        -0.1855
      13    H8      20.923835   18.640819   20.609330 H          1 MOL1         0.0755
      14    H9      21.083163   19.131455   22.295504 H          1 MOL1         0.0755
      15    C6      21.063778   20.789846   20.889684 C.3        1 MOL1        -0.1958
      16    H10     22.139947   20.765295   20.681683 H          1 MOL1         0.0753
      17    H11     20.566018   21.071840   19.954015 H          1 MOL1         0.0753
      18    C7      20.822453   21.889436   21.919976 C.2        1 MOL1         0.6174
      19    O1      21.581866   21.963973   22.865937 O.co2      1 MOL1        -0.6695
      20    O2      19.894769   22.653707   21.739935 O.co2      1 MOL1        -0.6695
@<TRIPOS>BOND
    1     1     2    1
    2     1     3    1
    3     1     4    2
    4     4     5    1
    5     4     6    1
    6     6     7    1
    7     6     8    1
    8     6     9    1
    9     9    10    1
   10     9    11    1
   11     9    12    1
   12    12    13    1
   13    12    14    1
   14    12    15    1
   15    15    16    1
   16    15    17    1
   17    15    18    1
   18    18    19    1
   19    18    20    2
@<TRIPOS>SUBSTRUCTURE
       1 MOL1            1 RESIDUE      1      MOL     
@<SCITEGIC>MOL_PROPERTY
VConf Rank
SciTegic.value.IntegerValue
878

@<SCITEGIC>MOL_PROPERTY
Conf_Id
SciTegic.value.IntegerValue
87

@<SCITEGIC>MOL_PROPERTY
Delta U+W
SciTegic.value.DoubleValue
0.339

@<SCITEGIC>MOL_PROPERTY
U+W
SciTegic.value.DoubleValue
-51.407

@<SCITEGIC>MOL_PROPERTY
Grad RMS
SciTegic.value.DoubleValue
0.000000

@<SCITEGIC>MOL_PROPERTY
U
SciTegic.value.DoubleValue
10.461

@<SCITEGIC>MOL_PROPERTY
W
SciTegic.value.DoubleValue
-61.867

@<SCITEGIC>MOL_PROPERTY
W(PB)
SciTegic.value.DoubleValue
-64.045

@<SCITEGIC>MOL_PROPERTY
W(SA)
SciTegic.value.DoubleValue
2.178

@<SCITEGIC>MOL_PROPERTY
Valence
SciTegic.value.DoubleValue
9.555

@<SCITEGIC>MOL_PROPERTY
Coulomb
SciTegic.value.DoubleValue
0.483

@<SCITEGIC>MOL_PROPERTY
VdW
SciTegic.value.DoubleValue
0.423

@<SCITEGIC>MOL_PROPERTY
VdW6
SciTegic.value.DoubleValue
-7.223

@<SCITEGIC>MOL_PROPERTY
VdW12
SciTegic.value.DoubleValue
7.646

@<SCITEGIC>MOL_PROPERTY
Bond
SciTegic.value.DoubleValue
0.126

@<SCITEGIC>MOL_PROPERTY
Angle
SciTegic.value.DoubleValue
2.492

@<SCITEGIC>MOL_PROPERTY
Pdih
SciTegic.value.DoubleValue
6.936

@<SCITEGIC>MOL_PROPERTY
Idih
SciTegic.value.DoubleValue
0.001

@<SCITEGIC>MOL_PROPERTY
Tether
SciTegic.value.DoubleValue
0.000

@<TRIPOS>MOLECULE
guest-s22_confgen4.mol2 : confsearch ligand conformer 879
          20          19           1
SMALL
USER_CHARGES
 
@<TRIPOS>ATOM
       1    C1      18.821019   21.317414   20.644133 C.2        1 MOL1        -0.2535
       2    H1      18.372720   20.959378   19.718792 H          1 MOL1         0.0845
       3    H2      18.383317   22.201066   21.105211 H          1 MOL1         0.0845
       4    C2      19.866782   20.696268   21.195742 C.2        1 MOL1        -0.1324
       5    H3      20.307237   21.075046   22.117325 H          1 MOL1         0.0833
       6    C3      20.532581   19.472535   20.603462 C.3        1 MOL1        -0.1813
       7    H4      21.543746   19.352979   21.014786 H          1 MOL1         0.0753
       8    H5      20.667021   19.637050   19.525840 H          1 MOL1         0.0753
       9    C4      19.721348   18.168235   20.803132 C.3        1 MOL1        -0.1855
      10    H6      18.663145   18.343886   20.565882 H          1 MOL1         0.0755
      11    H7      20.076956   17.434209   20.067277 H          1 MOL1         0.0755
      12    C5      19.852526   17.526778   22.207563 C.3        1 MOL1        -0.1855
      13    H8      20.912557   17.365448   22.447037 H          1 MOL1         0.0755
      14    H9      19.389706   16.530647   22.175761 H          1 MOL1         0.0755
      15    C6      19.182074   18.339901   23.344482 C.3        1 MOL1        -0.1958
      16    H10     19.712898   19.283124   23.507688 H          1 MOL1         0.0753
      17    H11     18.148485   18.588020   23.075305 H          1 MOL1         0.0753
      18    C7      19.159874   17.590470   24.671693 C.2        1 MOL1         0.6174
      19    O1      20.113892   17.710474   25.414887 O.co2      1 MOL1        -0.6695
      20    O2      18.198470   16.889382   24.918799 O.co2      1 MOL1        -0.6695
@<TRIPOS>BOND
    1     1     2    1
    2     1     3    1
    3     1     4    2
    4     4     5    1
    5     4     6    1
    6     6     7    1
    7     6     8    1
    8     6     9    1
    9     9    10    1
   10     9    11    1
   11     9    12    1
   12    12    13    1
   13    12    14    1
   14    12    15    1
   15    15    16    1
   16    15    17    1
   17    15    18    1
   18    18    19    1
   19    18    20    2
@<TRIPOS>SUBSTRUCTURE
       1 MOL1            1 RESIDUE      1      MOL     
@<SCITEGIC>MOL_PROPERTY
VConf Rank
SciTegic.value.IntegerValue
879

@<SCITEGIC>MOL_PROPERTY
Conf_Id
SciTegic.value.IntegerValue
51

@<SCITEGIC>MOL_PROPERTY
Delta U+W
SciTegic.value.DoubleValue
1.709

@<SCITEGIC>MOL_PROPERTY
U+W
SciTegic.value.DoubleValue
-50.036

@<SCITEGIC>MOL_PROPERTY
Grad RMS
SciTegic.value.DoubleValue
0.000000

@<SCITEGIC>MOL_PROPERTY
U
SciTegic.value.DoubleValue
10.643

@<SCITEGIC>MOL_PROPERTY
W
SciTegic.value.DoubleValue
-60.679

@<SCITEGIC>MOL_PROPERTY
W(PB)
SciTegic.value.DoubleValue
-62.882

@<SCITEGIC>MOL_PROPERTY
W(SA)
SciTegic.value.DoubleValue
2.203

@<SCITEGIC>MOL_PROPERTY
Valence
SciTegic.value.DoubleValue
11.231

@<SCITEGIC>MOL_PROPERTY
Coulomb
SciTegic.value.DoubleValue
-1.077

@<SCITEGIC>MOL_PROPERTY
VdW
SciTegic.value.DoubleValue
0.489

@<SCITEGIC>MOL_PROPERTY
VdW6
SciTegic.value.DoubleValue
-7.546

@<SCITEGIC>MOL_PROPERTY
VdW12
SciTegic.value.DoubleValue
8.035

@<SCITEGIC>MOL_PROPERTY
Bond
SciTegic.value.DoubleValue
0.159

@<SCITEGIC>MOL_PROPERTY
Angle
SciTegic.value.DoubleValue
3.005

@<SCITEGIC>MOL_PROPERTY
Pdih
SciTegic.value.DoubleValue
8.065

@<SCITEGIC>MOL_PROPERTY
Idih
SciTegic.value.DoubleValue
0.002

@<SCITEGIC>MOL_PROPERTY
Tether
SciTegic.value.DoubleValue
0.000

@<TRIPOS>MOLECULE
guest-s22_confgen4.mol2 : confsearch ligand conformer 880
          20          19           1
SMALL
USER_CHARGES
 
@<TRIPOS>ATOM
       1    C1      19.877607   21.923313   22.146896 C.2        1 MOL1        -0.2535
       2    H1      18.975896   22.288961   21.658392 H          1 MOL1         0.0845
       3    H2      20.790733   22.500596   22.012858 H          1 MOL1         0.0845
       4    C2      19.866846   20.807663   22.881009 C.2        1 MOL1        -0.1324
       5    H3      20.777433   20.462657   23.369472 H          1 MOL1         0.0833
       6    C3      18.632777   19.964049   23.119736 C.3        1 MOL1        -0.1813
       7    H4      17.797063   20.632504   23.367034 H          1 MOL1         0.0753
       8    H5      18.773669   19.324839   24.001493 H          1 MOL1         0.0753
       9    C4      18.226395   19.101446   21.899105 C.3        1 MOL1        -0.1855
      10    H6      17.173334   18.814972   22.024524 H          1 MOL1         0.0755
      11    H7      18.266940   19.705194   20.982167 H          1 MOL1         0.0755
      12    C5      19.048505   17.800701   21.716614 C.3        1 MOL1        -0.1855
      13    H8      18.561654   17.191391   20.942529 H          1 MOL1         0.0755
      14    H9      19.017286   17.206360   22.640098 H          1 MOL1         0.0755
      15    C6      20.523287   18.032488   21.298809 C.3        1 MOL1        -0.1958
      16    H10     20.571600   18.702053   20.431819 H          1 MOL1         0.0753
      17    H11     21.083125   18.507652   22.110526 H          1 MOL1         0.0753
      18    C7      21.244992   16.738678   20.939893 C.2        1 MOL1         0.6174
      19    O1      21.799538   16.124585   21.829982 O.co2      1 MOL1        -0.6695
      20    O2      21.216562   16.367677   19.782987 O.co2      1 MOL1        -0.6695
@<TRIPOS>BOND
    1     1     2    1
    2     1     3    1
    3     1     4    2
    4     4     5    1
    5     4     6    1
    6     6     7    1
    7     6     8    1
    8     6     9    1
    9     9    10    1
   10     9    11    1
   11     9    12    1
   12    12    13    1
   13    12    14    1
   14    12    15    1
   15    15    16    1
   16    15    17    1
   17    15    18    1
   18    18    19    1
   19    18    20    2
@<TRIPOS>SUBSTRUCTURE
       1 MOL1            1 RESIDUE      1      MOL     
@<SCITEGIC>MOL_PROPERTY
VConf Rank
SciTegic.value.IntegerValue
880

@<SCITEGIC>MOL_PROPERTY
Conf_Id
SciTegic.value.IntegerValue
91

@<SCITEGIC>MOL_PROPERTY
Delta U+W
SciTegic.value.DoubleValue
1.604

@<SCITEGIC>MOL_PROPERTY
U+W
SciTegic.value.DoubleValue
-50.141

@<SCITEGIC>MOL_PROPERTY
Grad RMS
SciTegic.value.DoubleValue
0.000000

@<SCITEGIC>MOL_PROPERTY
U
SciTegic.value.DoubleValue
10.644

@<SCITEGIC>MOL_PROPERTY
W
SciTegic.value.DoubleValue
-60.786

@<SCITEGIC>MOL_PROPERTY
W(PB)
SciTegic.value.DoubleValue
-62.965

@<SCITEGIC>MOL_PROPERTY
W(SA)
SciTegic.value.DoubleValue
2.179

@<SCITEGIC>MOL_PROPERTY
Valence
SciTegic.value.DoubleValue
11.230

@<SCITEGIC>MOL_PROPERTY
Coulomb
SciTegic.value.DoubleValue
-1.075

@<SCITEGIC>MOL_PROPERTY
VdW
SciTegic.value.DoubleValue
0.489

@<SCITEGIC>MOL_PROPERTY
VdW6
SciTegic.value.DoubleValue
-7.547

@<SCITEGIC>MOL_PROPERTY
VdW12
SciTegic.value.DoubleValue
8.036

@<SCITEGIC>MOL_PROPERTY
Bond
SciTegic.value.DoubleValue
0.159

@<SCITEGIC>MOL_PROPERTY
Angle
SciTegic.value.DoubleValue
3.006

@<SCITEGIC>MOL_PROPERTY
Pdih
SciTegic.value.DoubleValue
8.064

@<SCITEGIC>MOL_PROPERTY
Idih
SciTegic.value.DoubleValue
0.002

@<SCITEGIC>MOL_PROPERTY
Tether
SciTegic.value.DoubleValue
0.000

@<TRIPOS>MOLECULE
guest-s22_confgen4.mol2 : confsearch ligand conformer 881
          20          19           1
SMALL
USER_CHARGES
 
@<TRIPOS>ATOM
       1    C1      16.499301   17.376066   22.029374 C.2        1 MOL1        -0.2535
       2    H1      16.048863   18.365911   22.083257 H          1 MOL1         0.0845
       3    H2      15.901426   16.534197   22.374451 H          1 MOL1         0.0845
       4    C2      17.737345   17.197473   21.561397 C.2        1 MOL1        -0.1324
       5    H3      18.170003   16.198245   21.516563 H          1 MOL1         0.0833
       6    C3      18.625442   18.316456   21.064605 C.3        1 MOL1        -0.1813
       7    H4      18.033736   19.227420   20.900797 H          1 MOL1         0.0753
       8    H5      19.055642   18.040223   20.092613 H          1 MOL1         0.0753
       9    C4      19.760069   18.614041   22.067070 C.3        1 MOL1        -0.1855
      10    H6      19.324469   18.885675   23.038591 H          1 MOL1         0.0755
      11    H7      20.354340   17.703875   22.227070 H          1 MOL1         0.0755
      12    C5      20.678872   19.753102   21.573658 C.3        1 MOL1        -0.1855
      13    H8      20.085264   20.663948   21.413866 H          1 MOL1         0.0755
      14    H9      21.113849   19.482569   20.601480 H          1 MOL1         0.0755
      15    C6      21.819454   20.052567   22.582516 C.3        1 MOL1        -0.1958
      16    H10     21.392298   20.329579   23.553452 H          1 MOL1         0.0753
      17    H11     22.420033   19.149352   22.741939 H          1 MOL1         0.0753
      18    C7      22.778111   21.170783   22.170345 C.2        1 MOL1         0.6174
      19    O1      23.685330   21.433135   22.934716 O.co2      1 MOL1        -0.6695
      20    O2      22.609229   21.751322   21.115309 O.co2      1 MOL1        -0.6695
@<TRIPOS>BOND
    1     1     2    1
    2     1     3    1
    3     1     4    2
    4     4     5    1
    5     4     6    1
    6     6     7    1
    7     6     8    1
    8     6     9    1
    9     9    10    1
   10     9    11    1
   11     9    12    1
   12    12    13    1
   13    12    14    1
   14    12    15    1
   15    15    16    1
   16    15    17    1
   17    15    18    1
   18    18    19    1
   19    18    20    2
@<TRIPOS>SUBSTRUCTURE
       1 MOL1            1 RESIDUE      1      MOL     
@<SCITEGIC>MOL_PROPERTY
VConf Rank
SciTegic.value.IntegerValue
881

@<SCITEGIC>MOL_PROPERTY
Conf_Id
SciTegic.value.IntegerValue
33

@<SCITEGIC>MOL_PROPERTY
Delta U+W
SciTegic.value.DoubleValue
0.000

@<SCITEGIC>MOL_PROPERTY
U+W
SciTegic.value.DoubleValue
-51.745

@<SCITEGIC>MOL_PROPERTY
Grad RMS
SciTegic.value.DoubleValue
0.000000

@<SCITEGIC>MOL_PROPERTY
U
SciTegic.value.DoubleValue
7.593

@<SCITEGIC>MOL_PROPERTY
W
SciTegic.value.DoubleValue
-59.338

@<SCITEGIC>MOL_PROPERTY
W(PB)
SciTegic.value.DoubleValue
-61.574

@<SCITEGIC>MOL_PROPERTY
W(SA)
SciTegic.value.DoubleValue
2.236

@<SCITEGIC>MOL_PROPERTY
Valence
SciTegic.value.DoubleValue
9.570

@<SCITEGIC>MOL_PROPERTY
Coulomb
SciTegic.value.DoubleValue
-3.091

@<SCITEGIC>MOL_PROPERTY
VdW
SciTegic.value.DoubleValue
1.114

@<SCITEGIC>MOL_PROPERTY
VdW6
SciTegic.value.DoubleValue
-6.064

@<SCITEGIC>MOL_PROPERTY
VdW12
SciTegic.value.DoubleValue
7.178

@<SCITEGIC>MOL_PROPERTY
Bond
SciTegic.value.DoubleValue
0.117

@<SCITEGIC>MOL_PROPERTY
Angle
SciTegic.value.DoubleValue
2.692

@<SCITEGIC>MOL_PROPERTY
Pdih
SciTegic.value.DoubleValue
6.761

@<SCITEGIC>MOL_PROPERTY
Idih
SciTegic.value.DoubleValue
0.000

@<SCITEGIC>MOL_PROPERTY
Tether
SciTegic.value.DoubleValue
0.000

@<TRIPOS>MOLECULE
guest-s22_confgen4.mol2 : confsearch ligand conformer 882
          20          19           1
SMALL
USER_CHARGES
 
@<TRIPOS>ATOM
       1    C1      18.053788   21.316599   24.143907 C.2        1 MOL1        -0.2535
       2    H1      17.191149   21.332939   23.479705 H          1 MOL1         0.0845
       3    H2      18.076883   22.044650   24.953023 H          1 MOL1         0.0845
       4    C2      19.048030   20.441074   23.974750 C.2        1 MOL1        -0.1324
       5    H3      19.903140   20.441973   24.650336 H          1 MOL1         0.0833
       6    C3      19.085030   19.401926   22.876330 C.3        1 MOL1        -0.1813
       7    H4      18.092992   19.301074   22.415585 H          1 MOL1         0.0753
       8    H5      19.333227   18.426065   23.312383 H          1 MOL1         0.0753
       9    C4      20.120113   19.777348   21.792139 C.3        1 MOL1        -0.1855
      10    H6      19.901467   20.791768   21.430911 H          1 MOL1         0.0755
      11    H7      21.123847   19.816324   22.237102 H          1 MOL1         0.0755
      12    C5      20.124019   18.812924   20.582159 C.3        1 MOL1        -0.1855
      13    H8      20.801092   19.213308   19.814853 H          1 MOL1         0.0755
      14    H9      19.123959   18.783042   20.127870 H          1 MOL1         0.0755
      15    C6      20.573442   17.372504   20.940188 C.3        1 MOL1        -0.1958
      16    H10     21.552549   17.392995   21.433457 H          1 MOL1         0.0753
      17    H11     19.866803   16.909110   21.637805 H          1 MOL1         0.0753
      18    C7      20.678686   16.467455   19.717985 C.2        1 MOL1         0.6174
      19    O1      19.689156   15.852557   19.372387 O.co2      1 MOL1        -0.6695
      20    O2      21.741994   16.416413   19.131891 O.co2      1 MOL1        -0.6695
@<TRIPOS>BOND
    1     1     2    1
    2     1     3    1
    3     1     4    2
    4     4     5    1
    5     4     6    1
    6     6     7    1
    7     6     8    1
    8     6     9    1
    9     9    10    1
   10     9    11    1
   11     9    12    1
   12    12    13    1
   13    12    14    1
   14    12    15    1
   15    15    16    1
   16    15    17    1
   17    15    18    1
   18    18    19    1
   19    18    20    2
@<TRIPOS>SUBSTRUCTURE
       1 MOL1            1 RESIDUE      1      MOL     
@<SCITEGIC>MOL_PROPERTY
VConf Rank
SciTegic.value.IntegerValue
882

@<SCITEGIC>MOL_PROPERTY
Conf_Id
SciTegic.value.IntegerValue
37

@<SCITEGIC>MOL_PROPERTY
Delta U+W
SciTegic.value.DoubleValue
-0.384

@<SCITEGIC>MOL_PROPERTY
U+W
SciTegic.value.DoubleValue
-52.130

@<SCITEGIC>MOL_PROPERTY
Grad RMS
SciTegic.value.DoubleValue
0.000000

@<SCITEGIC>MOL_PROPERTY
U
SciTegic.value.DoubleValue
7.491

@<SCITEGIC>MOL_PROPERTY
W
SciTegic.value.DoubleValue
-59.621

@<SCITEGIC>MOL_PROPERTY
W(PB)
SciTegic.value.DoubleValue
-61.853

@<SCITEGIC>MOL_PROPERTY
W(SA)
SciTegic.value.DoubleValue
2.232

@<SCITEGIC>MOL_PROPERTY
Valence
SciTegic.value.DoubleValue
9.604

@<SCITEGIC>MOL_PROPERTY
Coulomb
SciTegic.value.DoubleValue
-2.799

@<SCITEGIC>MOL_PROPERTY
VdW
SciTegic.value.DoubleValue
0.686

@<SCITEGIC>MOL_PROPERTY
VdW6
SciTegic.value.DoubleValue
-6.435

@<SCITEGIC>MOL_PROPERTY
VdW12
SciTegic.value.DoubleValue
7.121

@<SCITEGIC>MOL_PROPERTY
Bond
SciTegic.value.DoubleValue
0.124

@<SCITEGIC>MOL_PROPERTY
Angle
SciTegic.value.DoubleValue
2.493

@<SCITEGIC>MOL_PROPERTY
Pdih
SciTegic.value.DoubleValue
6.986

@<SCITEGIC>MOL_PROPERTY
Idih
SciTegic.value.DoubleValue
0.001

@<SCITEGIC>MOL_PROPERTY
Tether
SciTegic.value.DoubleValue
0.000

@<TRIPOS>MOLECULE
guest-s22_confgen4.mol2 : confsearch ligand conformer 883
          20          19           1
SMALL
USER_CHARGES
 
@<TRIPOS>ATOM
       1    C1      22.368455   17.140169   20.881367 C.2        1 MOL1        -0.2535
       2    H1      23.195760   16.517782   20.544629 H          1 MOL1         0.0845
       3    H2      22.624444   18.105437   21.312962 H          1 MOL1         0.0845
       4    C2      21.104110   16.719534   20.761319 C.2        1 MOL1        -0.1324
       5    H3      20.910521   15.741899   20.320434 H          1 MOL1         0.0833
       6    C3      19.852671   17.471245   21.183035 C.3        1 MOL1        -0.1813
       7    H4      19.291430   16.850908   21.894600 H          1 MOL1         0.0753
       8    H5      19.197861   17.584833   20.308703 H          1 MOL1         0.0753
       9    C4      20.105100   18.861633   21.811592 C.3        1 MOL1        -0.1855
      10    H6      20.742888   18.752637   22.699530 H          1 MOL1         0.0755
      11    H7      20.648328   19.494517   21.096435 H          1 MOL1         0.0755
      12    C5      18.785412   19.557110   22.211287 C.3        1 MOL1        -0.1855
      13    H8      18.237015   18.928736   22.926839 H          1 MOL1         0.0755
      14    H9      18.142653   19.669090   21.327021 H          1 MOL1         0.0755
      15    C6      19.035513   20.949613   22.840947 C.3        1 MOL1        -0.1958
      16    H10     19.665254   20.854099   23.733642 H          1 MOL1         0.0753
      17    H11     19.570983   21.594440   22.133789 H          1 MOL1         0.0753
      18    C7      17.746694   21.656940   23.244207 C.2        1 MOL1         0.6174
      19    O1      17.313578   21.465845   24.363377 O.co2      1 MOL1        -0.6695
      20    O2      17.199391   22.364672   22.421879 O.co2      1 MOL1        -0.6695
@<TRIPOS>BOND
    1     1     2    1
    2     1     3    1
    3     1     4    2
    4     4     5    1
    5     4     6    1
    6     6     7    1
    7     6     8    1
    8     6     9    1
    9     9    10    1
   10     9    11    1
   11     9    12    1
   12    12    13    1
   13    12    14    1
   14    12    15    1
   15    15    16    1
   16    15    17    1
   17    15    18    1
   18    18    19    1
   19    18    20    2
@<TRIPOS>SUBSTRUCTURE
       1 MOL1            1 RESIDUE      1      MOL     
@<SCITEGIC>MOL_PROPERTY
VConf Rank
SciTegic.value.IntegerValue
883

@<SCITEGIC>MOL_PROPERTY
Conf_Id
SciTegic.value.IntegerValue
44

@<SCITEGIC>MOL_PROPERTY
Delta U+W
SciTegic.value.DoubleValue
-1.440

@<SCITEGIC>MOL_PROPERTY
U+W
SciTegic.value.DoubleValue
-53.185

@<SCITEGIC>MOL_PROPERTY
Grad RMS
SciTegic.value.DoubleValue
0.000000

@<SCITEGIC>MOL_PROPERTY
U
SciTegic.value.DoubleValue
6.572

@<SCITEGIC>MOL_PROPERTY
W
SciTegic.value.DoubleValue
-59.757

@<SCITEGIC>MOL_PROPERTY
W(PB)
SciTegic.value.DoubleValue
-62.007

@<SCITEGIC>MOL_PROPERTY
W(SA)
SciTegic.value.DoubleValue
2.249

@<SCITEGIC>MOL_PROPERTY
Valence
SciTegic.value.DoubleValue
7.989

@<SCITEGIC>MOL_PROPERTY
Coulomb
SciTegic.value.DoubleValue
-2.697

@<SCITEGIC>MOL_PROPERTY
VdW
SciTegic.value.DoubleValue
1.281

@<SCITEGIC>MOL_PROPERTY
VdW6
SciTegic.value.DoubleValue
-6.467

@<SCITEGIC>MOL_PROPERTY
VdW12
SciTegic.value.DoubleValue
7.748

@<SCITEGIC>MOL_PROPERTY
Bond
SciTegic.value.DoubleValue
0.136

@<SCITEGIC>MOL_PROPERTY
Angle
SciTegic.value.DoubleValue
2.854

@<SCITEGIC>MOL_PROPERTY
Pdih
SciTegic.value.DoubleValue
4.997

@<SCITEGIC>MOL_PROPERTY
Idih
SciTegic.value.DoubleValue
0.001

@<SCITEGIC>MOL_PROPERTY
Tether
SciTegic.value.DoubleValue
0.000

@<TRIPOS>MOLECULE
guest-s22_confgen4.mol2 : confsearch ligand conformer 884
          20          19           1
SMALL
USER_CHARGES
 
@<TRIPOS>ATOM
       1    C1      23.160764   19.847701   22.089247 C.2        1 MOL1        -0.2535
       2    H1      23.215375   18.794145   22.358718 H          1 MOL1         0.0845
       3    H2      24.046155   20.456292   22.265185 H          1 MOL1         0.0845
       4    C2      22.052159   20.377363   21.565635 C.2        1 MOL1        -0.1324
       5    H3      22.018196   21.434570   21.303341 H          1 MOL1         0.0833
       6    C3      20.786515   19.595630   21.291892 C.3        1 MOL1        -0.1813
       7    H4      20.998413   18.519296   21.326584 H          1 MOL1         0.0753
       8    H5      20.431498   19.816637   20.276485 H          1 MOL1         0.0753
       9    C4      19.683623   19.949001   22.314986 C.3        1 MOL1        -0.1855
      10    H6      20.018659   19.676787   23.325354 H          1 MOL1         0.0755
      11    H7      19.538719   21.038067   22.319576 H          1 MOL1         0.0755
      12    C5      18.324467   19.272278   22.016550 C.3        1 MOL1        -0.1855
      13    H8      17.983444   19.551421   21.009995 H          1 MOL1         0.0755
      14    H9      17.574611   19.664316   22.717638 H          1 MOL1         0.0755
      15    C6      18.361753   17.726890   22.140824 C.3        1 MOL1        -0.1958
      16    H10     19.034041   17.294649   21.391225 H          1 MOL1         0.0753
      17    H11     18.742687   17.435535   23.126926 H          1 MOL1         0.0753
      18    C7      16.990101   17.087836   21.956129 C.2        1 MOL1         0.6174
      19    O1      16.294327   16.928634   22.939637 O.co2      1 MOL1        -0.6695
      20    O2      16.645277   16.784298   20.831108 O.co2      1 MOL1        -0.6695
@<TRIPOS>BOND
    1     1     2    1
    2     1     3    1
    3     1     4    2
    4     4     5    1
    5     4     6    1
    6     6     7    1
    7     6     8    1
    8     6     9    1
    9     9    10    1
   10     9    11    1
   11     9    12    1
   12    12    13    1
   13    12    14    1
   14    12    15    1
   15    15    16    1
   16    15    17    1
   17    15    18    1
   18    18    19    1
   19    18    20    2
@<TRIPOS>SUBSTRUCTURE
       1 MOL1            1 RESIDUE      1      MOL     
@<SCITEGIC>MOL_PROPERTY
VConf Rank
SciTegic.value.IntegerValue
884

@<SCITEGIC>MOL_PROPERTY
Conf_Id
SciTegic.value.IntegerValue
38

@<SCITEGIC>MOL_PROPERTY
Delta U+W
SciTegic.value.DoubleValue
-0.381

@<SCITEGIC>MOL_PROPERTY
U+W
SciTegic.value.DoubleValue
-52.126

@<SCITEGIC>MOL_PROPERTY
Grad RMS
SciTegic.value.DoubleValue
0.000000

@<SCITEGIC>MOL_PROPERTY
U
SciTegic.value.DoubleValue
7.601

@<SCITEGIC>MOL_PROPERTY
W
SciTegic.value.DoubleValue
-59.727

@<SCITEGIC>MOL_PROPERTY
W(PB)
SciTegic.value.DoubleValue
-61.964

@<SCITEGIC>MOL_PROPERTY
W(SA)
SciTegic.value.DoubleValue
2.236

@<SCITEGIC>MOL_PROPERTY
Valence
SciTegic.value.DoubleValue
9.602

@<SCITEGIC>MOL_PROPERTY
Coulomb
SciTegic.value.DoubleValue
-2.686

@<SCITEGIC>MOL_PROPERTY
VdW
SciTegic.value.DoubleValue
0.685

@<SCITEGIC>MOL_PROPERTY
VdW6
SciTegic.value.DoubleValue
-6.453

@<SCITEGIC>MOL_PROPERTY
VdW12
SciTegic.value.DoubleValue
7.139

@<SCITEGIC>MOL_PROPERTY
Bond
SciTegic.value.DoubleValue
0.125

@<SCITEGIC>MOL_PROPERTY
Angle
SciTegic.value.DoubleValue
2.485

@<SCITEGIC>MOL_PROPERTY
Pdih
SciTegic.value.DoubleValue
6.991

@<SCITEGIC>MOL_PROPERTY
Idih
SciTegic.value.DoubleValue
0.001

@<SCITEGIC>MOL_PROPERTY
Tether
SciTegic.value.DoubleValue
0.000

@<TRIPOS>MOLECULE
guest-s22_confgen4.mol2 : confsearch ligand conformer 885
          20          19           1
SMALL
USER_CHARGES
 
@<TRIPOS>ATOM
       1    C1      19.451384   15.708528   21.567785 C.2        1 MOL1        -0.2535
       2    H1      19.967015   15.488523   22.501220 H          1 MOL1         0.0845
       3    H2      18.813929   14.929988   21.152100 H          1 MOL1         0.0845
       4    C2      19.590742   16.886801   20.954666 C.2        1 MOL1        -0.1324
       5    H3      19.064927   17.087250   20.021393 H          1 MOL1         0.0833
       6    C3      20.457485   18.013791   21.470709 C.3        1 MOL1        -0.1813
       7    H4      21.090783   18.392244   20.657178 H          1 MOL1         0.0753
       8    H5      21.134587   17.645058   22.253211 H          1 MOL1         0.0753
       9    C4      19.597810   19.164465   22.034553 C.3        1 MOL1        -0.1855
      10    H6      18.923216   19.532978   21.249344 H          1 MOL1         0.0755
      11    H7      18.962300   18.781044   22.844730 H          1 MOL1         0.0755
      12    C5      20.468547   20.326393   22.563771 C.3        1 MOL1        -0.1855
      13    H8      21.097922   20.719276   21.753077 H          1 MOL1         0.0755
      14    H9      21.149861   19.945521   23.336643 H          1 MOL1         0.0755
      15    C6      19.623076   21.480249   23.162678 C.3        1 MOL1        -0.1958
      16    H10     18.968383   21.098384   23.955404 H          1 MOL1         0.0753
      17    H11     20.287307   22.218295   23.627503 H          1 MOL1         0.0753
      18    C7      18.767146   22.218558   22.137421 C.2        1 MOL1         0.6174
      19    O1      17.571154   22.003198   22.123499 O.co2      1 MOL1        -0.6695
      20    O2      19.319139   22.998689   21.386557 O.co2      1 MOL1        -0.6695
@<TRIPOS>BOND
    1     1     2    1
    2     1     3    1
    3     1     4    2
    4     4     5    1
    5     4     6    1
    6     6     7    1
    7     6     8    1
    8     6     9    1
    9     9    10    1
   10     9    11    1
   11     9    12    1
   12    12    13    1
   13    12    14    1
   14    12    15    1
   15    15    16    1
   16    15    17    1
   17    15    18    1
   18    18    19    1
   19    18    20    2
@<TRIPOS>SUBSTRUCTURE
       1 MOL1            1 RESIDUE      1      MOL     
@<SCITEGIC>MOL_PROPERTY
VConf Rank
SciTegic.value.IntegerValue
885

@<SCITEGIC>MOL_PROPERTY
Conf_Id
SciTegic.value.IntegerValue
58

@<SCITEGIC>MOL_PROPERTY
Delta U+W
SciTegic.value.DoubleValue
0.019

@<SCITEGIC>MOL_PROPERTY
U+W
SciTegic.value.DoubleValue
-51.727

@<SCITEGIC>MOL_PROPERTY
Grad RMS
SciTegic.value.DoubleValue
0.000000

@<SCITEGIC>MOL_PROPERTY
U
SciTegic.value.DoubleValue
8.963

@<SCITEGIC>MOL_PROPERTY
W
SciTegic.value.DoubleValue
-60.690

@<SCITEGIC>MOL_PROPERTY
W(PB)
SciTegic.value.DoubleValue
-62.934

@<SCITEGIC>MOL_PROPERTY
W(SA)
SciTegic.value.DoubleValue
2.244

@<SCITEGIC>MOL_PROPERTY
Valence
SciTegic.value.DoubleValue
9.327

@<SCITEGIC>MOL_PROPERTY
Coulomb
SciTegic.value.DoubleValue
-0.780

@<SCITEGIC>MOL_PROPERTY
VdW
SciTegic.value.DoubleValue
0.417

@<SCITEGIC>MOL_PROPERTY
VdW6
SciTegic.value.DoubleValue
-6.635

@<SCITEGIC>MOL_PROPERTY
VdW12
SciTegic.value.DoubleValue
7.052

@<SCITEGIC>MOL_PROPERTY
Bond
SciTegic.value.DoubleValue
0.105

@<SCITEGIC>MOL_PROPERTY
Angle
SciTegic.value.DoubleValue
2.399

@<SCITEGIC>MOL_PROPERTY
Pdih
SciTegic.value.DoubleValue
6.822

@<SCITEGIC>MOL_PROPERTY
Idih
SciTegic.value.DoubleValue
0.000

@<SCITEGIC>MOL_PROPERTY
Tether
SciTegic.value.DoubleValue
0.000

@<TRIPOS>MOLECULE
guest-s22_confgen4.mol2 : confsearch ligand conformer 886
          20          19           1
SMALL
USER_CHARGES
 
@<TRIPOS>ATOM
       1    C1      20.309972   20.497935   18.757249 C.2        1 MOL1        -0.2535
       2    H1      19.509331   19.897248   18.328617 H          1 MOL1         0.0845
       3    H2      21.085434   20.854581   18.081431 H          1 MOL1         0.0845
       4    C2      20.344689   20.786121   20.060863 C.2        1 MOL1        -0.1324
       5    H3      21.155626   21.388282   20.470061 H          1 MOL1         0.0833
       6    C3      19.304638   20.327289   21.058566 C.3        1 MOL1        -0.1813
       7    H4      18.412178   19.958344   20.534987 H          1 MOL1         0.0753
       8    H5      18.981999   21.179784   21.671169 H          1 MOL1         0.0753
       9    C4      19.861441   19.215512   21.972314 C.3        1 MOL1        -0.1855
      10    H6      20.187483   18.366548   21.355687 H          1 MOL1         0.0755
      11    H7      20.752543   19.587799   22.496500 H          1 MOL1         0.0755
      12    C5      18.811534   18.737060   23.000472 C.3        1 MOL1        -0.1855
      13    H8      17.918964   18.381577   22.467993 H          1 MOL1         0.0755
      14    H9      18.491089   19.581828   23.626073 H          1 MOL1         0.0755
      15    C6      19.342526   17.597805   23.908789 C.3        1 MOL1        -0.1958
      16    H10     18.526472   17.217186   24.534218 H          1 MOL1         0.0753
      17    H11     19.692450   16.757393   23.297135 H          1 MOL1         0.0753
      18    C7      20.471900   18.024435   24.842260 C.2        1 MOL1         0.6174
      19    O1      20.186330   18.685941   25.821011 O.co2      1 MOL1        -0.6695
      20    O2      21.604488   17.675530   24.573042 O.co2      1 MOL1        -0.6695
@<TRIPOS>BOND
    1     1     2    1
    2     1     3    1
    3     1     4    2
    4     4     5    1
    5     4     6    1
    6     6     7    1
    7     6     8    1
    8     6     9    1
    9     9    10    1
   10     9    11    1
   11     9    12    1
   12    12    13    1
   13    12    14    1
   14    12    15    1
   15    15    16    1
   16    15    17    1
   17    15    18    1
   18    18    19    1
   19    18    20    2
@<TRIPOS>SUBSTRUCTURE
       1 MOL1            1 RESIDUE      1      MOL     
@<SCITEGIC>MOL_PROPERTY
VConf Rank
SciTegic.value.IntegerValue
886

@<SCITEGIC>MOL_PROPERTY
Conf_Id
SciTegic.value.IntegerValue
54

@<SCITEGIC>MOL_PROPERTY
Delta U+W
SciTegic.value.DoubleValue
-0.048

@<SCITEGIC>MOL_PROPERTY
U+W
SciTegic.value.DoubleValue
-51.793

@<SCITEGIC>MOL_PROPERTY
Grad RMS
SciTegic.value.DoubleValue
0.000000

@<SCITEGIC>MOL_PROPERTY
U
SciTegic.value.DoubleValue
8.964

@<SCITEGIC>MOL_PROPERTY
W
SciTegic.value.DoubleValue
-60.756

@<SCITEGIC>MOL_PROPERTY
W(PB)
SciTegic.value.DoubleValue
-63.007

@<SCITEGIC>MOL_PROPERTY
W(SA)
SciTegic.value.DoubleValue
2.251

@<SCITEGIC>MOL_PROPERTY
Valence
SciTegic.value.DoubleValue
9.327

@<SCITEGIC>MOL_PROPERTY
Coulomb
SciTegic.value.DoubleValue
-0.780

@<SCITEGIC>MOL_PROPERTY
VdW
SciTegic.value.DoubleValue
0.417

@<SCITEGIC>MOL_PROPERTY
VdW6
SciTegic.value.DoubleValue
-6.635

@<SCITEGIC>MOL_PROPERTY
VdW12
SciTegic.value.DoubleValue
7.052

@<SCITEGIC>MOL_PROPERTY
Bond
SciTegic.value.DoubleValue
0.105

@<SCITEGIC>MOL_PROPERTY
Angle
SciTegic.value.DoubleValue
2.399

@<SCITEGIC>MOL_PROPERTY
Pdih
SciTegic.value.DoubleValue
6.822

@<SCITEGIC>MOL_PROPERTY
Idih
SciTegic.value.DoubleValue
0.000

@<SCITEGIC>MOL_PROPERTY
Tether
SciTegic.value.DoubleValue
0.000

@<TRIPOS>MOLECULE
guest-s22_confgen4.mol2 : confsearch ligand conformer 887
          20          19           1
SMALL
USER_CHARGES
 
@<TRIPOS>ATOM
       1    C1      20.377772   22.169846   20.753422 C.2        1 MOL1        -0.2535
       2    H1      19.922260   23.144679   20.918944 H          1 MOL1         0.0845
       3    H2      21.457130   22.138147   20.613815 H          1 MOL1         0.0845
       4    C2      19.638218   21.058091   20.726389 C.2        1 MOL1        -0.1324
       5    H3      18.558829   21.112702   20.864916 H          1 MOL1         0.0833
       6    C3      20.200481   19.671700   20.494812 C.3        1 MOL1        -0.1813
       7    H4      21.186060   19.747506   20.015836 H          1 MOL1         0.0753
       8    H5      19.559971   19.120148   19.793681 H          1 MOL1         0.0753
       9    C4      20.348837   18.869249   21.807162 C.3        1 MOL1        -0.1855
      10    H6      20.885650   17.935793   21.589274 H          1 MOL1         0.0755
      11    H7      20.975697   19.433306   22.511451 H          1 MOL1         0.0755
      12    C5      18.989013   18.536655   22.466226 C.3        1 MOL1        -0.1855
      13    H8      18.356307   17.985225   21.756969 H          1 MOL1         0.0755
      14    H9      18.459402   19.468469   22.704403 H          1 MOL1         0.0755
      15    C6      19.144874   17.707624   23.767608 C.3        1 MOL1        -0.1958
      16    H10     19.802029   18.230344   24.473116 H          1 MOL1         0.0753
      17    H11     18.169034   17.607596   24.257186 H          1 MOL1         0.0753
      18    C7      19.689789   16.299605   23.545379 C.2        1 MOL1         0.6174
      19    O1      20.847502   16.076782   23.840507 O.co2      1 MOL1        -0.6695
      20    O2      18.937344   15.459497   23.092433 O.co2      1 MOL1        -0.6695
@<TRIPOS>BOND
    1     1     2    1
    2     1     3    1
    3     1     4    2
    4     4     5    1
    5     4     6    1
    6     6     7    1
    7     6     8    1
    8     6     9    1
    9     9    10    1
   10     9    11    1
   11     9    12    1
   12    12    13    1
   13    12    14    1
   14    12    15    1
   15    15    16    1
   16    15    17    1
   17    15    18    1
   18    18    19    1
   19    18    20    2
@<TRIPOS>SUBSTRUCTURE
       1 MOL1            1 RESIDUE      1      MOL     
@<SCITEGIC>MOL_PROPERTY
VConf Rank
SciTegic.value.IntegerValue
887

@<SCITEGIC>MOL_PROPERTY
Conf_Id
SciTegic.value.IntegerValue
27

@<SCITEGIC>MOL_PROPERTY
Delta U+W
SciTegic.value.DoubleValue
0.478

@<SCITEGIC>MOL_PROPERTY
U+W
SciTegic.value.DoubleValue
-51.267

@<SCITEGIC>MOL_PROPERTY
Grad RMS
SciTegic.value.DoubleValue
0.000000

@<SCITEGIC>MOL_PROPERTY
U
SciTegic.value.DoubleValue
9.192

@<SCITEGIC>MOL_PROPERTY
W
SciTegic.value.DoubleValue
-60.459

@<SCITEGIC>MOL_PROPERTY
W(PB)
SciTegic.value.DoubleValue
-62.649

@<SCITEGIC>MOL_PROPERTY
W(SA)
SciTegic.value.DoubleValue
2.190

@<SCITEGIC>MOL_PROPERTY
Valence
SciTegic.value.DoubleValue
9.572

@<SCITEGIC>MOL_PROPERTY
Coulomb
SciTegic.value.DoubleValue
-0.884

@<SCITEGIC>MOL_PROPERTY
VdW
SciTegic.value.DoubleValue
0.504

@<SCITEGIC>MOL_PROPERTY
VdW6
SciTegic.value.DoubleValue
-7.168

@<SCITEGIC>MOL_PROPERTY
VdW12
SciTegic.value.DoubleValue
7.672

@<SCITEGIC>MOL_PROPERTY
Bond
SciTegic.value.DoubleValue
0.127

@<SCITEGIC>MOL_PROPERTY
Angle
SciTegic.value.DoubleValue
2.504

@<SCITEGIC>MOL_PROPERTY
Pdih
SciTegic.value.DoubleValue
6.941

@<SCITEGIC>MOL_PROPERTY
Idih
SciTegic.value.DoubleValue
0.001

@<SCITEGIC>MOL_PROPERTY
Tether
SciTegic.value.DoubleValue
0.000

@<TRIPOS>MOLECULE
guest-s22_confgen4.mol2 : confsearch ligand conformer 888
          20          19           1
SMALL
USER_CHARGES
 
@<TRIPOS>ATOM
       1    C1      16.774649   17.431272   22.874336 C.2        1 MOL1        -0.2535
       2    H1      16.505309   16.706962   22.107304 H          1 MOL1         0.0845
       3    H2      15.962694   17.905500   23.423004 H          1 MOL1         0.0845
       4    C2      18.050063   17.731513   23.132895 C.2        1 MOL1        -0.1324
       5    H3      18.297640   18.457180   23.907107 H          1 MOL1         0.0833
       6    C3      19.229346   17.108862   22.416379 C.3        1 MOL1        -0.1813
       7    H4      18.918221   16.170635   21.937332 H          1 MOL1         0.0753
       8    H5      20.008409   16.839627   23.142074 H          1 MOL1         0.0753
       9    C4      19.821961   18.042948   21.337328 C.3        1 MOL1        -0.1855
      10    H6      20.580813   17.488887   20.768085 H          1 MOL1         0.0755
      11    H7      19.034439   18.321376   20.623468 H          1 MOL1         0.0755
      12    C5      20.464197   19.317185   21.932217 C.3        1 MOL1        -0.1855
      13    H8      21.233559   19.037043   22.664994 H          1 MOL1         0.0755
      14    H9      19.706938   19.901953   22.471928 H          1 MOL1         0.0755
      15    C6      21.101648   20.205737   20.835772 C.3        1 MOL1        -0.1958
      16    H10     21.873523   19.645286   20.294811 H          1 MOL1         0.0753
      17    H11     20.343036   20.504029   20.102192 H          1 MOL1         0.0753
      18    C7      21.741219   21.470650   21.397012 C.2        1 MOL1         0.6174
      19    O1      21.053513   22.468054   21.491372 O.co2      1 MOL1        -0.6695
      20    O2      22.905493   21.420287   21.741440 O.co2      1 MOL1        -0.6695
@<TRIPOS>BOND
    1     1     2    1
    2     1     3    1
    3     1     4    2
    4     4     5    1
    5     4     6    1
    6     6     7    1
    7     6     8    1
    8     6     9    1
    9     9    10    1
   10     9    11    1
   11     9    12    1
   12    12    13    1
   13    12    14    1
   14    12    15    1
   15    15    16    1
   16    15    17    1
   17    15    18    1
   18    18    19    1
   19    18    20    2
@<TRIPOS>SUBSTRUCTURE
       1 MOL1            1 RESIDUE      1      MOL     
@<SCITEGIC>MOL_PROPERTY
VConf Rank
SciTegic.value.IntegerValue
888

@<SCITEGIC>MOL_PROPERTY
Conf_Id
SciTegic.value.IntegerValue
41

@<SCITEGIC>MOL_PROPERTY
Delta U+W
SciTegic.value.DoubleValue
-0.634

@<SCITEGIC>MOL_PROPERTY
U+W
SciTegic.value.DoubleValue
-52.379

@<SCITEGIC>MOL_PROPERTY
Grad RMS
SciTegic.value.DoubleValue
0.000000

@<SCITEGIC>MOL_PROPERTY
U
SciTegic.value.DoubleValue
7.828

@<SCITEGIC>MOL_PROPERTY
W
SciTegic.value.DoubleValue
-60.207

@<SCITEGIC>MOL_PROPERTY
W(PB)
SciTegic.value.DoubleValue
-62.449

@<SCITEGIC>MOL_PROPERTY
W(SA)
SciTegic.value.DoubleValue
2.242

@<SCITEGIC>MOL_PROPERTY
Valence
SciTegic.value.DoubleValue
9.300

@<SCITEGIC>MOL_PROPERTY
Coulomb
SciTegic.value.DoubleValue
-2.080

@<SCITEGIC>MOL_PROPERTY
VdW
SciTegic.value.DoubleValue
0.608

@<SCITEGIC>MOL_PROPERTY
VdW6
SciTegic.value.DoubleValue
-6.341

@<SCITEGIC>MOL_PROPERTY
VdW12
SciTegic.value.DoubleValue
6.949

@<SCITEGIC>MOL_PROPERTY
Bond
SciTegic.value.DoubleValue
0.103

@<SCITEGIC>MOL_PROPERTY
Angle
SciTegic.value.DoubleValue
2.334

@<SCITEGIC>MOL_PROPERTY
Pdih
SciTegic.value.DoubleValue
6.862

@<SCITEGIC>MOL_PROPERTY
Idih
SciTegic.value.DoubleValue
0.001

@<SCITEGIC>MOL_PROPERTY
Tether
SciTegic.value.DoubleValue
0.000

@<TRIPOS>MOLECULE
guest-s22_confgen4.mol2 : confsearch ligand conformer 889
          20          19           1
SMALL
USER_CHARGES
 
@<TRIPOS>ATOM
       1    C1      23.131450   19.861792   23.189950 C.2        1 MOL1        -0.2535
       2    H1      23.854831   19.878807   24.003381 H          1 MOL1         0.0845
       3    H2      23.506813   20.031069   22.181981 H          1 MOL1         0.0845
       4    C2      21.835422   19.639355   23.423504 C.2        1 MOL1        -0.1324
       5    H3      21.479805   19.471446   24.439874 H          1 MOL1         0.0833
       6    C3      20.773789   19.602203   22.346863 C.3        1 MOL1        -0.1813
       7    H4      21.164142   20.028718   21.413009 H          1 MOL1         0.0753
       8    H5      19.927222   20.229343   22.655041 H          1 MOL1         0.0753
       9    C4      20.292160   18.156369   22.092355 C.3        1 MOL1        -0.1855
      10    H6      21.165573   17.523331   21.883613 H          1 MOL1         0.0755
      11    H7      19.832691   17.755998   23.006603 H          1 MOL1         0.0755
      12    C5      19.300576   18.033713   20.909178 C.3        1 MOL1        -0.1855
      13    H8      19.071080   16.971155   20.748902 H          1 MOL1         0.0755
      14    H9      19.788929   18.384733   19.990100 H          1 MOL1         0.0755
      15    C6      17.968066   18.807321   21.105055 C.3        1 MOL1        -0.1958
      16    H10     18.154507   19.883620   21.193518 H          1 MOL1         0.0753
      17    H11     17.337457   18.673945   20.218349 H          1 MOL1         0.0753
      18    C7      17.154701   18.351281   22.313029 C.2        1 MOL1         0.6174
      19    O1      16.598743   17.271992   22.254273 O.co2      1 MOL1        -0.6695
      20    O2      17.083244   19.093386   23.272783 O.co2      1 MOL1        -0.6695
@<TRIPOS>BOND
    1     1     2    1
    2     1     3    1
    3     1     4    2
    4     4     5    1
    5     4     6    1
    6     6     7    1
    7     6     8    1
    8     6     9    1
    9     9    10    1
   10     9    11    1
   11     9    12    1
   12    12    13    1
   13    12    14    1
   14    12    15    1
   15    15    16    1
   16    15    17    1
   17    15    18    1
   18    18    19    1
   19    18    20    2
@<TRIPOS>SUBSTRUCTURE
       1 MOL1            1 RESIDUE      1      MOL     
@<SCITEGIC>MOL_PROPERTY
VConf Rank
SciTegic.value.IntegerValue
889

@<SCITEGIC>MOL_PROPERTY
Conf_Id
SciTegic.value.IntegerValue
84

@<SCITEGIC>MOL_PROPERTY
Delta U+W
SciTegic.value.DoubleValue
0.942

@<SCITEGIC>MOL_PROPERTY
U+W
SciTegic.value.DoubleValue
-50.803

@<SCITEGIC>MOL_PROPERTY
Grad RMS
SciTegic.value.DoubleValue
0.000000

@<SCITEGIC>MOL_PROPERTY
U
SciTegic.value.DoubleValue
10.196

@<SCITEGIC>MOL_PROPERTY
W
SciTegic.value.DoubleValue
-60.999

@<SCITEGIC>MOL_PROPERTY
W(PB)
SciTegic.value.DoubleValue
-63.182

@<SCITEGIC>MOL_PROPERTY
W(SA)
SciTegic.value.DoubleValue
2.182

@<SCITEGIC>MOL_PROPERTY
Valence
SciTegic.value.DoubleValue
9.837

@<SCITEGIC>MOL_PROPERTY
Coulomb
SciTegic.value.DoubleValue
0.032

@<SCITEGIC>MOL_PROPERTY
VdW
SciTegic.value.DoubleValue
0.328

@<SCITEGIC>MOL_PROPERTY
VdW6
SciTegic.value.DoubleValue
-7.642

@<SCITEGIC>MOL_PROPERTY
VdW12
SciTegic.value.DoubleValue
7.969

@<SCITEGIC>MOL_PROPERTY
Bond
SciTegic.value.DoubleValue
0.151

@<SCITEGIC>MOL_PROPERTY
Angle
SciTegic.value.DoubleValue
2.748

@<SCITEGIC>MOL_PROPERTY
Pdih
SciTegic.value.DoubleValue
6.937

@<SCITEGIC>MOL_PROPERTY
Idih
SciTegic.value.DoubleValue
0.001

@<SCITEGIC>MOL_PROPERTY
Tether
SciTegic.value.DoubleValue
0.000

@<TRIPOS>MOLECULE
guest-s22_confgen4.mol2 : confsearch ligand conformer 890
          20          19           1
SMALL
USER_CHARGES
 
@<TRIPOS>ATOM
       1    C1      19.256975   21.990237   19.996249 C.2        1 MOL1        -0.2535
       2    H1      19.732558   22.875673   19.577815 H          1 MOL1         0.0845
       3    H2      18.706996   21.346220   19.311889 H          1 MOL1         0.0845
       4    C2      19.349188   21.707448   21.298244 C.2        1 MOL1        -0.1324
       5    H3      19.905291   22.364859   21.966224 H          1 MOL1         0.0833
       6    C3      18.715628   20.498623   21.950170 C.3        1 MOL1        -0.1813
       7    H4      17.977530   20.045254   21.274554 H          1 MOL1         0.0753
       8    H5      18.170077   20.810793   22.850729 H          1 MOL1         0.0753
       9    C4      19.779920   19.447071   22.327772 C.3        1 MOL1        -0.1855
      10    H6      20.325909   19.144131   21.423447 H          1 MOL1         0.0755
      11    H7      20.516215   19.898640   23.006744 H          1 MOL1         0.0755
      12    C5      19.148801   18.206112   22.998626 C.3        1 MOL1        -0.1855
      13    H8      18.421830   17.743571   22.316511 H          1 MOL1         0.0755
      14    H9      18.589721   18.521172   23.890106 H          1 MOL1         0.0755
      15    C6      20.206024   17.150660   23.414782 C.3        1 MOL1        -0.1958
      16    H10     20.955028   17.604440   24.075032 H          1 MOL1         0.0753
      17    H11     19.720517   16.351641   23.987344 H          1 MOL1         0.0753
      18    C7      20.925676   16.496537   22.238722 C.2        1 MOL1         0.6174
      19    O1      22.070333   16.831696   22.005485 O.co2      1 MOL1        -0.6695
      20    O2      20.325356   15.658634   21.594795 O.co2      1 MOL1        -0.6695
@<TRIPOS>BOND
    1     1     2    1
    2     1     3    1
    3     1     4    2
    4     4     5    1
    5     4     6    1
    6     6     7    1
    7     6     8    1
    8     6     9    1
    9     9    10    1
   10     9    11    1
   11     9    12    1
   12    12    13    1
   13    12    14    1
   14    12    15    1
   15    15    16    1
   16    15    17    1
   17    15    18    1
   18    18    19    1
   19    18    20    2
@<TRIPOS>SUBSTRUCTURE
       1 MOL1            1 RESIDUE      1      MOL     
@<SCITEGIC>MOL_PROPERTY
VConf Rank
SciTegic.value.IntegerValue
890

@<SCITEGIC>MOL_PROPERTY
Conf_Id
SciTegic.value.IntegerValue
81

@<SCITEGIC>MOL_PROPERTY
Delta U+W
SciTegic.value.DoubleValue
-0.051

@<SCITEGIC>MOL_PROPERTY
U+W
SciTegic.value.DoubleValue
-51.796

@<SCITEGIC>MOL_PROPERTY
Grad RMS
SciTegic.value.DoubleValue
0.000000

@<SCITEGIC>MOL_PROPERTY
U
SciTegic.value.DoubleValue
9.412

@<SCITEGIC>MOL_PROPERTY
W
SciTegic.value.DoubleValue
-61.209

@<SCITEGIC>MOL_PROPERTY
W(PB)
SciTegic.value.DoubleValue
-63.452

@<SCITEGIC>MOL_PROPERTY
W(SA)
SciTegic.value.DoubleValue
2.243

@<SCITEGIC>MOL_PROPERTY
Valence
SciTegic.value.DoubleValue
9.329

@<SCITEGIC>MOL_PROPERTY
Coulomb
SciTegic.value.DoubleValue
-0.323

@<SCITEGIC>MOL_PROPERTY
VdW
SciTegic.value.DoubleValue
0.406

@<SCITEGIC>MOL_PROPERTY
VdW6
SciTegic.value.DoubleValue
-6.640

@<SCITEGIC>MOL_PROPERTY
VdW12
SciTegic.value.DoubleValue
7.046

@<SCITEGIC>MOL_PROPERTY
Bond
SciTegic.value.DoubleValue
0.105

@<SCITEGIC>MOL_PROPERTY
Angle
SciTegic.value.DoubleValue
2.401

@<SCITEGIC>MOL_PROPERTY
Pdih
SciTegic.value.DoubleValue
6.823

@<SCITEGIC>MOL_PROPERTY
Idih
SciTegic.value.DoubleValue
0.000

@<SCITEGIC>MOL_PROPERTY
Tether
SciTegic.value.DoubleValue
0.000

@<TRIPOS>MOLECULE
guest-s22_confgen4.mol2 : confsearch ligand conformer 891
          20          19           1
SMALL
USER_CHARGES
 
@<TRIPOS>ATOM
       1    C1      19.482875   22.017315   20.663715 C.2        1 MOL1        -0.2535
       2    H1      18.558437   22.057395   20.089896 H          1 MOL1         0.0845
       3    H2      19.982210   22.961060   20.876213 H          1 MOL1         0.0845
       4    C2      19.986447   20.857786   21.094510 C.2        1 MOL1        -0.1324
       5    H3      20.914344   20.839450   21.665383 H          1 MOL1         0.0833
       6    C3      19.352056   19.508369   20.833461 C.3        1 MOL1        -0.1813
       7    H4      20.117774   18.786064   20.522199 H          1 MOL1         0.0753
       8    H5      18.652844   19.584991   19.989988 H          1 MOL1         0.0753
       9    C4      18.581383   18.969737   22.062545 C.3        1 MOL1        -0.1855
      10    H6      17.766068   19.666106   22.301641 H          1 MOL1         0.0755
      11    H7      18.100458   18.019545   21.792699 H          1 MOL1         0.0755
      12    C5      19.448301   18.761590   23.331095 C.3        1 MOL1        -0.1855
      13    H8      18.801386   18.405730   24.144757 H          1 MOL1         0.0755
      14    H9      19.849571   19.728190   23.663303 H          1 MOL1         0.0755
      15    C6      20.619788   17.757835   23.151418 C.3        1 MOL1        -0.1958
      16    H10     21.327278   18.120932   22.397323 H          1 MOL1         0.0753
      17    H11     21.179728   17.681611   24.090706 H          1 MOL1         0.0753
      18    C7      20.178786   16.347804   22.769485 C.2        1 MOL1         0.6174
      19    O1      20.398613   15.961702   21.638252 O.co2      1 MOL1        -0.6695
      20    O2      19.641883   15.665827   23.620429 O.co2      1 MOL1        -0.6695
@<TRIPOS>BOND
    1     1     2    1
    2     1     3    1
    3     1     4    2
    4     4     5    1
    5     4     6    1
    6     6     7    1
    7     6     8    1
    8     6     9    1
    9     9    10    1
   10     9    11    1
   11     9    12    1
   12    12    13    1
   13    12    14    1
   14    12    15    1
   15    15    16    1
   16    15    17    1
   17    15    18    1
   18    18    19    1
   19    18    20    2
@<TRIPOS>SUBSTRUCTURE
       1 MOL1            1 RESIDUE      1      MOL     
@<SCITEGIC>MOL_PROPERTY
VConf Rank
SciTegic.value.IntegerValue
891

@<SCITEGIC>MOL_PROPERTY
Conf_Id
SciTegic.value.IntegerValue
86

@<SCITEGIC>MOL_PROPERTY
Delta U+W
SciTegic.value.DoubleValue
1.248

@<SCITEGIC>MOL_PROPERTY
U+W
SciTegic.value.DoubleValue
-50.498

@<SCITEGIC>MOL_PROPERTY
Grad RMS
SciTegic.value.DoubleValue
0.000000

@<SCITEGIC>MOL_PROPERTY
U
SciTegic.value.DoubleValue
10.404

@<SCITEGIC>MOL_PROPERTY
W
SciTegic.value.DoubleValue
-60.901

@<SCITEGIC>MOL_PROPERTY
W(PB)
SciTegic.value.DoubleValue
-63.061

@<SCITEGIC>MOL_PROPERTY
W(SA)
SciTegic.value.DoubleValue
2.159

@<SCITEGIC>MOL_PROPERTY
Valence
SciTegic.value.DoubleValue
10.021

@<SCITEGIC>MOL_PROPERTY
Coulomb
SciTegic.value.DoubleValue
0.094

@<SCITEGIC>MOL_PROPERTY
VdW
SciTegic.value.DoubleValue
0.289

@<SCITEGIC>MOL_PROPERTY
VdW6
SciTegic.value.DoubleValue
-8.409

@<SCITEGIC>MOL_PROPERTY
VdW12
SciTegic.value.DoubleValue
8.698

@<SCITEGIC>MOL_PROPERTY
Bond
SciTegic.value.DoubleValue
0.179

@<SCITEGIC>MOL_PROPERTY
Angle
SciTegic.value.DoubleValue
2.939

@<SCITEGIC>MOL_PROPERTY
Pdih
SciTegic.value.DoubleValue
6.902

@<SCITEGIC>MOL_PROPERTY
Idih
SciTegic.value.DoubleValue
0.001

@<SCITEGIC>MOL_PROPERTY
Tether
SciTegic.value.DoubleValue
0.000

@<TRIPOS>MOLECULE
guest-s22_confgen4.mol2 : confsearch ligand conformer 892
          20          19           1
SMALL
USER_CHARGES
 
@<TRIPOS>ATOM
       1    C1      19.581119   22.129098   22.566623 C.2        1 MOL1        -0.2535
       2    H1      20.170768   22.921767   23.023891 H          1 MOL1         0.0845
       3    H2      19.285954   22.260078   21.526842 H          1 MOL1         0.0845
       4    C2      19.238176   21.038116   23.256676 C.2        1 MOL1        -0.1324
       5    H3      19.545684   20.925440   24.295970 H          1 MOL1         0.0833
       6    C3      18.421801   19.896137   22.689693 C.3        1 MOL1        -0.1813
       7    H4      17.986888   20.175273   21.720367 H          1 MOL1         0.0753
       8    H5      17.576948   19.691710   23.360704 H          1 MOL1         0.0753
       9    C4      19.253684   18.603838   22.528467 C.3        1 MOL1        -0.1855
      10    H6      19.692239   18.326114   23.496693 H          1 MOL1         0.0755
      11    H7      18.579864   17.784166   22.243661 H          1 MOL1         0.0755
      12    C5      20.371070   18.741707   21.467316 C.3        1 MOL1        -0.1855
      13    H8      21.049372   19.556330   21.754307 H          1 MOL1         0.0755
      14    H9      19.932442   19.023205   20.499992 H          1 MOL1         0.0755
      15    C6      21.197297   17.440220   21.298467 C.3        1 MOL1        -0.1958
      16    H10     22.045819   17.629295   20.630482 H          1 MOL1         0.0753
      17    H11     21.615793   17.129503   22.263399 H          1 MOL1         0.0753
      18    C7      20.406081   16.274473   20.712176 C.2        1 MOL1         0.6174
      19    O1      20.173209   16.282991   19.519353 O.co2      1 MOL1        -0.6695
      20    O2      20.053499   15.383697   21.460034 O.co2      1 MOL1        -0.6695
@<TRIPOS>BOND
    1     1     2    1
    2     1     3    1
    3     1     4    2
    4     4     5    1
    5     4     6    1
    6     6     7    1
    7     6     8    1
    8     6     9    1
    9     9    10    1
   10     9    11    1
   11     9    12    1
   12    12    13    1
   13    12    14    1
   14    12    15    1
   15    15    16    1
   16    15    17    1
   17    15    18    1
   18    18    19    1
   19    18    20    2
@<TRIPOS>SUBSTRUCTURE
       1 MOL1            1 RESIDUE      1      MOL     
@<SCITEGIC>MOL_PROPERTY
VConf Rank
SciTegic.value.IntegerValue
892

@<SCITEGIC>MOL_PROPERTY
Conf_Id
SciTegic.value.IntegerValue
28

@<SCITEGIC>MOL_PROPERTY
Delta U+W
SciTegic.value.DoubleValue
0.446

@<SCITEGIC>MOL_PROPERTY
U+W
SciTegic.value.DoubleValue
-51.299

@<SCITEGIC>MOL_PROPERTY
Grad RMS
SciTegic.value.DoubleValue
0.000000

@<SCITEGIC>MOL_PROPERTY
U
SciTegic.value.DoubleValue
9.295

@<SCITEGIC>MOL_PROPERTY
W
SciTegic.value.DoubleValue
-60.594

@<SCITEGIC>MOL_PROPERTY
W(PB)
SciTegic.value.DoubleValue
-62.806

@<SCITEGIC>MOL_PROPERTY
W(SA)
SciTegic.value.DoubleValue
2.212

@<SCITEGIC>MOL_PROPERTY
Valence
SciTegic.value.DoubleValue
9.495

@<SCITEGIC>MOL_PROPERTY
Coulomb
SciTegic.value.DoubleValue
-0.610

@<SCITEGIC>MOL_PROPERTY
VdW
SciTegic.value.DoubleValue
0.409

@<SCITEGIC>MOL_PROPERTY
VdW6
SciTegic.value.DoubleValue
-7.332

@<SCITEGIC>MOL_PROPERTY
VdW12
SciTegic.value.DoubleValue
7.741

@<SCITEGIC>MOL_PROPERTY
Bond
SciTegic.value.DoubleValue
0.126

@<SCITEGIC>MOL_PROPERTY
Angle
SciTegic.value.DoubleValue
2.497

@<SCITEGIC>MOL_PROPERTY
Pdih
SciTegic.value.DoubleValue
6.872

@<SCITEGIC>MOL_PROPERTY
Idih
SciTegic.value.DoubleValue
0.000

@<SCITEGIC>MOL_PROPERTY
Tether
SciTegic.value.DoubleValue
0.000

@<TRIPOS>MOLECULE
guest-s22_confgen4.mol2 : confsearch ligand conformer 893
          20          19           1
SMALL
USER_CHARGES
 
@<TRIPOS>ATOM
       1    C1      21.563318   21.591732   21.022390 C.2        1 MOL1        -0.2535
       2    H1      21.365137   21.808534   22.069871 H          1 MOL1         0.0845
       3    H2      22.276764   22.237593   20.513471 H          1 MOL1         0.0845
       4    C2      20.971922   20.582097   20.373649 C.2        1 MOL1        -0.1324
       5    H3      21.213022   20.413110   19.324434 H          1 MOL1         0.0833
       6    C3      19.960321   19.602642   20.945302 C.3        1 MOL1        -0.1813
       7    H4      20.385523   18.592457   20.887082 H          1 MOL1         0.0753
       8    H5      19.075096   19.593056   20.295658 H          1 MOL1         0.0753
       9    C4      19.514875   19.897621   22.398975 C.3        1 MOL1        -0.1855
      10    H6      20.379635   19.822136   23.072522 H          1 MOL1         0.0755
      11    H7      19.157959   20.934707   22.460269 H          1 MOL1         0.0755
      12    C5      18.382913   18.966139   22.899040 C.3        1 MOL1        -0.1855
      13    H8      17.504264   19.084034   22.250607 H          1 MOL1         0.0755
      14    H9      18.071834   19.294908   23.900314 H          1 MOL1         0.0755
      15    C6      18.767795   17.462820   22.966517 C.3        1 MOL1        -0.1958
      16    H10     17.906124   16.883621   23.318243 H          1 MOL1         0.0753
      17    H11     19.011628   17.080031   21.969063 H          1 MOL1         0.0753
      18    C7      19.931657   17.158229   23.905428 C.2        1 MOL1         0.6174
      19    O1      19.742985   17.257312   25.102106 O.co2      1 MOL1        -0.6695
      20    O2      20.988932   16.809964   23.417845 O.co2      1 MOL1        -0.6695
@<TRIPOS>BOND
    1     1     2    1
    2     1     3    1
    3     1     4    2
    4     4     5    1
    5     4     6    1
    6     6     7    1
    7     6     8    1
    8     6     9    1
    9     9    10    1
   10     9    11    1
   11     9    12    1
   12    12    13    1
   13    12    14    1
   14    12    15    1
   15    15    16    1
   16    15    17    1
   17    15    18    1
   18    18    19    1
   19    18    20    2
@<TRIPOS>SUBSTRUCTURE
       1 MOL1            1 RESIDUE      1      MOL     
@<SCITEGIC>MOL_PROPERTY
VConf Rank
SciTegic.value.IntegerValue
893

@<SCITEGIC>MOL_PROPERTY
Conf_Id
SciTegic.value.IntegerValue
53

@<SCITEGIC>MOL_PROPERTY
Delta U+W
SciTegic.value.DoubleValue
0.549

@<SCITEGIC>MOL_PROPERTY
U+W
SciTegic.value.DoubleValue
-51.197

@<SCITEGIC>MOL_PROPERTY
Grad RMS
SciTegic.value.DoubleValue
0.000000

@<SCITEGIC>MOL_PROPERTY
U
SciTegic.value.DoubleValue
10.870

@<SCITEGIC>MOL_PROPERTY
W
SciTegic.value.DoubleValue
-62.067

@<SCITEGIC>MOL_PROPERTY
W(PB)
SciTegic.value.DoubleValue
-64.228

@<SCITEGIC>MOL_PROPERTY
W(SA)
SciTegic.value.DoubleValue
2.161

@<SCITEGIC>MOL_PROPERTY
Valence
SciTegic.value.DoubleValue
8.803

@<SCITEGIC>MOL_PROPERTY
Coulomb
SciTegic.value.DoubleValue
1.020

@<SCITEGIC>MOL_PROPERTY
VdW
SciTegic.value.DoubleValue
1.048

@<SCITEGIC>MOL_PROPERTY
VdW6
SciTegic.value.DoubleValue
-8.312

@<SCITEGIC>MOL_PROPERTY
VdW12
SciTegic.value.DoubleValue
9.360

@<SCITEGIC>MOL_PROPERTY
Bond
SciTegic.value.DoubleValue
0.212

@<SCITEGIC>MOL_PROPERTY
Angle
SciTegic.value.DoubleValue
3.379

@<SCITEGIC>MOL_PROPERTY
Pdih
SciTegic.value.DoubleValue
5.211

@<SCITEGIC>MOL_PROPERTY
Idih
SciTegic.value.DoubleValue
0.001

@<SCITEGIC>MOL_PROPERTY
Tether
SciTegic.value.DoubleValue
0.000

@<TRIPOS>MOLECULE
guest-s22_confgen4.mol2 : confsearch ligand conformer 894
          20          19           1
SMALL
USER_CHARGES
 
@<TRIPOS>ATOM
       1    C1      18.773209   20.668925   20.105053 C.2        1 MOL1        -0.2535
       2    H1      18.401978   21.155411   21.004395 H          1 MOL1         0.0845
       3    H2      18.210747   20.831277   19.187337 H          1 MOL1         0.0845
       4    C2      19.873038   19.907995   20.109436 C.2        1 MOL1        -0.1324
       5    H3      20.203742   19.445643   19.179830 H          1 MOL1         0.0833
       6    C3      20.747018   19.592856   21.312239 C.3        1 MOL1        -0.1813
       7    H4      21.618625   20.260321   21.298358 H          1 MOL1         0.0753
       8    H5      21.165469   18.584983   21.195321 H          1 MOL1         0.0753
       9    C4      20.053910   19.688103   22.696545 C.3        1 MOL1        -0.1855
      10    H6      20.806493   19.511080   23.477006 H          1 MOL1         0.0755
      11    H7      19.699000   20.714529   22.857204 H          1 MOL1         0.0755
      12    C5      18.875794   18.700033   22.902979 C.3        1 MOL1        -0.1855
      13    H8      18.082719   18.913609   22.174987 H          1 MOL1         0.0755
      14    H9      18.435985   18.879551   23.893615 H          1 MOL1         0.0755
      15    C6      19.266344   17.200512   22.797012 C.3        1 MOL1        -0.1958
      16    H10     18.374585   16.581979   22.951117 H          1 MOL1         0.0753
      17    H11     19.633962   16.967912   21.791152 H          1 MOL1         0.0753
      18    C7      20.310645   16.753874   23.816019 C.2        1 MOL1         0.6174
      19    O1      21.433842   16.509624   23.421142 O.co2      1 MOL1        -0.6695
      20    O2      19.967462   16.644572   24.976962 O.co2      1 MOL1        -0.6695
@<TRIPOS>BOND
    1     1     2    1
    2     1     3    1
    3     1     4    2
    4     4     5    1
    5     4     6    1
    6     6     7    1
    7     6     8    1
    8     6     9    1
    9     9    10    1
   10     9    11    1
   11     9    12    1
   12    12    13    1
   13    12    14    1
   14    12    15    1
   15    15    16    1
   16    15    17    1
   17    15    18    1
   18    18    19    1
   19    18    20    2
@<TRIPOS>SUBSTRUCTURE
       1 MOL1            1 RESIDUE      1      MOL     
@<SCITEGIC>MOL_PROPERTY
VConf Rank
SciTegic.value.IntegerValue
894

@<SCITEGIC>MOL_PROPERTY
Conf_Id
SciTegic.value.IntegerValue
66

@<SCITEGIC>MOL_PROPERTY
Delta U+W
SciTegic.value.DoubleValue
1.737

@<SCITEGIC>MOL_PROPERTY
U+W
SciTegic.value.DoubleValue
-50.008

@<SCITEGIC>MOL_PROPERTY
Grad RMS
SciTegic.value.DoubleValue
0.000000

@<SCITEGIC>MOL_PROPERTY
U
SciTegic.value.DoubleValue
11.091

@<SCITEGIC>MOL_PROPERTY
W
SciTegic.value.DoubleValue
-61.099

@<SCITEGIC>MOL_PROPERTY
W(PB)
SciTegic.value.DoubleValue
-63.213

@<SCITEGIC>MOL_PROPERTY
W(SA)
SciTegic.value.DoubleValue
2.114

@<SCITEGIC>MOL_PROPERTY
Valence
SciTegic.value.DoubleValue
9.664

@<SCITEGIC>MOL_PROPERTY
Coulomb
SciTegic.value.DoubleValue
0.658

@<SCITEGIC>MOL_PROPERTY
VdW
SciTegic.value.DoubleValue
0.769

@<SCITEGIC>MOL_PROPERTY
VdW6
SciTegic.value.DoubleValue
-9.171

@<SCITEGIC>MOL_PROPERTY
VdW12
SciTegic.value.DoubleValue
9.940

@<SCITEGIC>MOL_PROPERTY
Bond
SciTegic.value.DoubleValue
0.244

@<SCITEGIC>MOL_PROPERTY
Angle
SciTegic.value.DoubleValue
3.658

@<SCITEGIC>MOL_PROPERTY
Pdih
SciTegic.value.DoubleValue
5.762

@<SCITEGIC>MOL_PROPERTY
Idih
SciTegic.value.DoubleValue
0.001

@<SCITEGIC>MOL_PROPERTY
Tether
SciTegic.value.DoubleValue
0.000

@<TRIPOS>MOLECULE
guest-s22_confgen4.mol2 : confsearch ligand conformer 895
          20          19           1
SMALL
USER_CHARGES
 
@<TRIPOS>ATOM
       1    C1      19.037858   21.512805   20.959226 C.2        1 MOL1        -0.2535
       2    H1      19.544636   21.034689   20.123904 H          1 MOL1         0.0845
       3    H2      18.241272   22.214128   20.717290 H          1 MOL1         0.0845
       4    C2      19.370072   21.265587   22.230996 C.2        1 MOL1        -0.1324
       5    H3      18.830642   21.774633   23.029261 H          1 MOL1         0.0833
       6    C3      20.450733   20.312286   22.714718 C.3        1 MOL1        -0.1813
       7    H4      20.126056   19.856971   23.658604 H          1 MOL1         0.0753
       8    H5      21.341677   20.897615   22.977762 H          1 MOL1         0.0753
       9    C4      20.855215   19.187511   21.725985 C.3        1 MOL1        -0.1855
      10    H6      21.236286   19.636402   20.799284 H          1 MOL1         0.0755
      11    H7      21.699559   18.630088   22.153761 H          1 MOL1         0.0755
      12    C5      19.721911   18.186700   21.384366 C.3        1 MOL1        -0.1855
      13    H8      20.089462   17.490519   20.617934 H          1 MOL1         0.0755
      14    H9      18.870615   18.715525   20.935772 H          1 MOL1         0.0755
      15    C6      19.230291   17.366672   22.605341 C.3        1 MOL1        -0.1958
      16    H10     20.077016   16.872028   23.095785 H          1 MOL1         0.0753
      17    H11     18.761610   18.023847   23.346491 H          1 MOL1         0.0753
      18    C7      18.213768   16.295790   22.225686 C.2        1 MOL1         0.6174
      19    O1      17.034023   16.585484   22.257786 O.co2      1 MOL1        -0.6695
      20    O2      18.629396   15.203098   21.893705 O.co2      1 MOL1        -0.6695
@<TRIPOS>BOND
    1     1     2    1
    2     1     3    1
    3     1     4    2
    4     4     5    1
    5     4     6    1
    6     6     7    1
    7     6     8    1
    8     6     9    1
    9     9    10    1
   10     9    11    1
   11     9    12    1
   12    12    13    1
   13    12    14    1
   14    12    15    1
   15    15    16    1
   16    15    17    1
   17    15    18    1
   18    18    19    1
   19    18    20    2
@<TRIPOS>SUBSTRUCTURE
       1 MOL1            1 RESIDUE      1      MOL     
@<SCITEGIC>MOL_PROPERTY
VConf Rank
SciTegic.value.IntegerValue
895

@<SCITEGIC>MOL_PROPERTY
Conf_Id
SciTegic.value.IntegerValue
64

@<SCITEGIC>MOL_PROPERTY
Delta U+W
SciTegic.value.DoubleValue
0.366

@<SCITEGIC>MOL_PROPERTY
U+W
SciTegic.value.DoubleValue
-51.379

@<SCITEGIC>MOL_PROPERTY
Grad RMS
SciTegic.value.DoubleValue
0.000000

@<SCITEGIC>MOL_PROPERTY
U
SciTegic.value.DoubleValue
10.000

@<SCITEGIC>MOL_PROPERTY
W
SciTegic.value.DoubleValue
-61.379

@<SCITEGIC>MOL_PROPERTY
W(PB)
SciTegic.value.DoubleValue
-63.541

@<SCITEGIC>MOL_PROPERTY
W(SA)
SciTegic.value.DoubleValue
2.162

@<SCITEGIC>MOL_PROPERTY
Valence
SciTegic.value.DoubleValue
9.398

@<SCITEGIC>MOL_PROPERTY
Coulomb
SciTegic.value.DoubleValue
-0.504

@<SCITEGIC>MOL_PROPERTY
VdW
SciTegic.value.DoubleValue
1.105

@<SCITEGIC>MOL_PROPERTY
VdW6
SciTegic.value.DoubleValue
-7.975

@<SCITEGIC>MOL_PROPERTY
VdW12
SciTegic.value.DoubleValue
9.080

@<SCITEGIC>MOL_PROPERTY
Bond
SciTegic.value.DoubleValue
0.216

@<SCITEGIC>MOL_PROPERTY
Angle
SciTegic.value.DoubleValue
3.417

@<SCITEGIC>MOL_PROPERTY
Pdih
SciTegic.value.DoubleValue
5.765

@<SCITEGIC>MOL_PROPERTY
Idih
SciTegic.value.DoubleValue
0.001

@<SCITEGIC>MOL_PROPERTY
Tether
SciTegic.value.DoubleValue
0.000

@<TRIPOS>MOLECULE
guest-s22_confgen4.mol2 : confsearch ligand conformer 896
          20          19           1
SMALL
USER_CHARGES
 
@<TRIPOS>ATOM
       1    C1      19.983569   20.871777   24.411009 C.2        1 MOL1        -0.2535
       2    H1      19.087469   21.354881   24.024962 H          1 MOL1         0.0845
       3    H2      20.739270   21.508738   24.867408 H          1 MOL1         0.0845
       4    C2      20.154654   19.549828   24.326187 C.2        1 MOL1        -0.1324
       5    H3      21.060217   19.086269   24.716649 H          1 MOL1         0.0833
       6    C3      19.150690   18.601477   23.705974 C.3        1 MOL1        -0.1813
       7    H4      18.195126   19.112884   23.526991 H          1 MOL1         0.0753
       8    H5      18.939286   17.789412   24.414284 H          1 MOL1         0.0753
       9    C4      19.663390   17.988470   22.383362 C.3        1 MOL1        -0.1855
      10    H6      20.619448   17.477589   22.562351 H          1 MOL1         0.0755
      11    H7      18.953243   17.219331   22.050193 H          1 MOL1         0.0755
      12    C5      19.833687   19.041484   21.264549 C.3        1 MOL1        -0.1855
      13    H8      20.562561   19.802734   21.575148 H          1 MOL1         0.0755
      14    H9      18.880801   19.562929   21.099044 H          1 MOL1         0.0755
      15    C6      20.304161   18.399892   19.936004 C.3        1 MOL1        -0.1958
      16    H10     21.261592   17.885646   20.082512 H          1 MOL1         0.0753
      17    H11     19.579777   17.647943   19.600852 H          1 MOL1         0.0753
      18    C7      20.479947   19.419260   18.816145 C.2        1 MOL1         0.6174
      19    O1      19.517031   19.680959   18.122564 O.co2      1 MOL1        -0.6695
      20    O2      21.571207   19.935111   18.675645 O.co2      1 MOL1        -0.6695
@<TRIPOS>BOND
    1     1     2    1
    2     1     3    1
    3     1     4    2
    4     4     5    1
    5     4     6    1
    6     6     7    1
    7     6     8    1
    8     6     9    1
    9     9    10    1
   10     9    11    1
   11     9    12    1
   12    12    13    1
   13    12    14    1
   14    12    15    1
   15    15    16    1
   16    15    17    1
   17    15    18    1
   18    18    19    1
   19    18    20    2
@<TRIPOS>SUBSTRUCTURE
       1 MOL1            1 RESIDUE      1      MOL     
@<SCITEGIC>MOL_PROPERTY
VConf Rank
SciTegic.value.IntegerValue
896

@<SCITEGIC>MOL_PROPERTY
Conf_Id
SciTegic.value.IntegerValue
42

@<SCITEGIC>MOL_PROPERTY
Delta U+W
SciTegic.value.DoubleValue
-0.601

@<SCITEGIC>MOL_PROPERTY
U+W
SciTegic.value.DoubleValue
-52.347

@<SCITEGIC>MOL_PROPERTY
Grad RMS
SciTegic.value.DoubleValue
0.000000

@<SCITEGIC>MOL_PROPERTY
U
SciTegic.value.DoubleValue
8.428

@<SCITEGIC>MOL_PROPERTY
W
SciTegic.value.DoubleValue
-60.774

@<SCITEGIC>MOL_PROPERTY
W(PB)
SciTegic.value.DoubleValue
-62.982

@<SCITEGIC>MOL_PROPERTY
W(SA)
SciTegic.value.DoubleValue
2.208

@<SCITEGIC>MOL_PROPERTY
Valence
SciTegic.value.DoubleValue
9.231

@<SCITEGIC>MOL_PROPERTY
Coulomb
SciTegic.value.DoubleValue
-1.304

@<SCITEGIC>MOL_PROPERTY
VdW
SciTegic.value.DoubleValue
0.501

@<SCITEGIC>MOL_PROPERTY
VdW6
SciTegic.value.DoubleValue
-6.515

@<SCITEGIC>MOL_PROPERTY
VdW12
SciTegic.value.DoubleValue
7.016

@<SCITEGIC>MOL_PROPERTY
Bond
SciTegic.value.DoubleValue
0.103

@<SCITEGIC>MOL_PROPERTY
Angle
SciTegic.value.DoubleValue
2.328

@<SCITEGIC>MOL_PROPERTY
Pdih
SciTegic.value.DoubleValue
6.799

@<SCITEGIC>MOL_PROPERTY
Idih
SciTegic.value.DoubleValue
0.000

@<SCITEGIC>MOL_PROPERTY
Tether
SciTegic.value.DoubleValue
0.000

@<TRIPOS>MOLECULE
guest-s22_confgen4.mol2 : confsearch ligand conformer 897
          20          19           1
SMALL
USER_CHARGES
 
@<TRIPOS>ATOM
       1    C1      21.082473   21.885636   22.398153 C.2        1 MOL1        -0.2535
       2    H1      20.946438   21.909855   23.478108 H          1 MOL1         0.0845
       3    H2      21.003506   22.829642   21.861766 H          1 MOL1         0.0845
       4    C2      21.332647   20.743603   21.752244 C.2        1 MOL1        -0.1324
       5    H3      21.462730   20.740668   20.670358 H          1 MOL1         0.0833
       6    C3      21.454820   19.394558   22.428303 C.3        1 MOL1        -0.1813
       7    H4      21.506836   19.511943   23.519232 H          1 MOL1         0.0753
       8    H5      22.398480   18.923854   22.122113 H          1 MOL1         0.0753
       9    C4      20.286593   18.450238   22.065723 C.3        1 MOL1        -0.1855
      10    H6      20.240650   18.328892   20.974621 H          1 MOL1         0.0755
      11    H7      20.491558   17.454844   22.482759 H          1 MOL1         0.0755
      12    C5      18.924475   18.954177   22.598592 C.3        1 MOL1        -0.1855
      13    H8      18.686792   19.931613   22.156461 H          1 MOL1         0.0755
      14    H9      18.995124   19.108104   23.683740 H          1 MOL1         0.0755
      15    C6      17.766565   17.965707   22.303641 C.3        1 MOL1        -0.1958
      16    H10     17.997336   16.976731   22.717645 H          1 MOL1         0.0753
      17    H11     16.853188   18.312762   22.800919 H          1 MOL1         0.0753
      18    C7      17.448005   17.809758   20.819386 C.2        1 MOL1         0.6174
      19    O1      17.835801   16.808875   20.249287 O.co2      1 MOL1        -0.6695
      20    O2      16.803953   18.686092   20.276864 O.co2      1 MOL1        -0.6695
@<TRIPOS>BOND
    1     1     2    1
    2     1     3    1
    3     1     4    2
    4     4     5    1
    5     4     6    1
    6     6     7    1
    7     6     8    1
    8     6     9    1
    9     9    10    1
   10     9    11    1
   11     9    12    1
   12    12    13    1
   13    12    14    1
   14    12    15    1
   15    15    16    1
   16    15    17    1
   17    15    18    1
   18    18    19    1
   19    18    20    2
@<TRIPOS>SUBSTRUCTURE
       1 MOL1            1 RESIDUE      1      MOL     
@<SCITEGIC>MOL_PROPERTY
VConf Rank
SciTegic.value.IntegerValue
897

@<SCITEGIC>MOL_PROPERTY
Conf_Id
SciTegic.value.IntegerValue
68

@<SCITEGIC>MOL_PROPERTY
Delta U+W
SciTegic.value.DoubleValue
0.492

@<SCITEGIC>MOL_PROPERTY
U+W
SciTegic.value.DoubleValue
-51.253

@<SCITEGIC>MOL_PROPERTY
Grad RMS
SciTegic.value.DoubleValue
0.000000

@<SCITEGIC>MOL_PROPERTY
U
SciTegic.value.DoubleValue
10.179

@<SCITEGIC>MOL_PROPERTY
W
SciTegic.value.DoubleValue
-61.432

@<SCITEGIC>MOL_PROPERTY
W(PB)
SciTegic.value.DoubleValue
-63.627

@<SCITEGIC>MOL_PROPERTY
W(SA)
SciTegic.value.DoubleValue
2.195

@<SCITEGIC>MOL_PROPERTY
Valence
SciTegic.value.DoubleValue
9.483

@<SCITEGIC>MOL_PROPERTY
Coulomb
SciTegic.value.DoubleValue
0.361

@<SCITEGIC>MOL_PROPERTY
VdW
SciTegic.value.DoubleValue
0.335

@<SCITEGIC>MOL_PROPERTY
VdW6
SciTegic.value.DoubleValue
-7.385

@<SCITEGIC>MOL_PROPERTY
VdW12
SciTegic.value.DoubleValue
7.720

@<SCITEGIC>MOL_PROPERTY
Bond
SciTegic.value.DoubleValue
0.125

@<SCITEGIC>MOL_PROPERTY
Angle
SciTegic.value.DoubleValue
2.487

@<SCITEGIC>MOL_PROPERTY
Pdih
SciTegic.value.DoubleValue
6.870

@<SCITEGIC>MOL_PROPERTY
Idih
SciTegic.value.DoubleValue
0.001

@<SCITEGIC>MOL_PROPERTY
Tether
SciTegic.value.DoubleValue
0.000

@<TRIPOS>MOLECULE
guest-s22_confgen4.mol2 : confsearch ligand conformer 898
          20          19           1
SMALL
USER_CHARGES
 
@<TRIPOS>ATOM
       1    C1      20.519943   16.668042   20.412023 C.2        1 MOL1        -0.2535
       2    H1      20.297616   16.965016   19.388369 H          1 MOL1         0.0845
       3    H2      20.414789   15.613706   20.662014 H          1 MOL1         0.0845
       4    C2      20.903566   17.559844   21.329203 C.2        1 MOL1        -0.1324
       5    H3      21.123785   17.240643   22.347467 H          1 MOL1         0.0833
       6    C3      21.076794   19.038260   21.053418 C.3        1 MOL1        -0.1813
       7    H4      21.176484   19.204289   19.972208 H          1 MOL1         0.0753
       8    H5      22.010764   19.396405   21.506661 H          1 MOL1         0.0753
       9    C4      19.888416   19.876971   21.575435 C.3        1 MOL1        -0.1855
      10    H6      20.008864   20.913671   21.232665 H          1 MOL1         0.0755
      11    H7      18.956646   19.505458   21.126680 H          1 MOL1         0.0755
      12    C5      19.773833   19.862602   23.118288 C.3        1 MOL1        -0.1855
      13    H8      20.727149   20.188630   23.555558 H          1 MOL1         0.0755
      14    H9      19.596346   18.838162   23.473022 H          1 MOL1         0.0755
      15    C6      18.640190   20.783705   23.639129 C.3        1 MOL1        -0.1958
      16    H10     18.677498   20.827212   24.733990 H          1 MOL1         0.0753
      17    H11     18.786401   21.808032   23.275616 H          1 MOL1         0.0753
      18    C7      17.238812   20.323643   23.247566 C.2        1 MOL1         0.6174
      19    O1      16.745725   19.400934   23.866096 O.co2      1 MOL1        -0.6695
      20    O2      16.669854   20.911564   22.348812 O.co2      1 MOL1        -0.6695
@<TRIPOS>BOND
    1     1     2    1
    2     1     3    1
    3     1     4    2
    4     4     5    1
    5     4     6    1
    6     6     7    1
    7     6     8    1
    8     6     9    1
    9     9    10    1
   10     9    11    1
   11     9    12    1
   12    12    13    1
   13    12    14    1
   14    12    15    1
   15    15    16    1
   16    15    17    1
   17    15    18    1
   18    18    19    1
   19    18    20    2
@<TRIPOS>SUBSTRUCTURE
       1 MOL1            1 RESIDUE      1      MOL     
@<SCITEGIC>MOL_PROPERTY
VConf Rank
SciTegic.value.IntegerValue
898

@<SCITEGIC>MOL_PROPERTY
Conf_Id
SciTegic.value.IntegerValue
87

@<SCITEGIC>MOL_PROPERTY
Delta U+W
SciTegic.value.DoubleValue
0.339

@<SCITEGIC>MOL_PROPERTY
U+W
SciTegic.value.DoubleValue
-51.407

@<SCITEGIC>MOL_PROPERTY
Grad RMS
SciTegic.value.DoubleValue
0.000000

@<SCITEGIC>MOL_PROPERTY
U
SciTegic.value.DoubleValue
10.461

@<SCITEGIC>MOL_PROPERTY
W
SciTegic.value.DoubleValue
-61.867

@<SCITEGIC>MOL_PROPERTY
W(PB)
SciTegic.value.DoubleValue
-64.045

@<SCITEGIC>MOL_PROPERTY
W(SA)
SciTegic.value.DoubleValue
2.178

@<SCITEGIC>MOL_PROPERTY
Valence
SciTegic.value.DoubleValue
9.555

@<SCITEGIC>MOL_PROPERTY
Coulomb
SciTegic.value.DoubleValue
0.483

@<SCITEGIC>MOL_PROPERTY
VdW
SciTegic.value.DoubleValue
0.423

@<SCITEGIC>MOL_PROPERTY
VdW6
SciTegic.value.DoubleValue
-7.223

@<SCITEGIC>MOL_PROPERTY
VdW12
SciTegic.value.DoubleValue
7.646

@<SCITEGIC>MOL_PROPERTY
Bond
SciTegic.value.DoubleValue
0.126

@<SCITEGIC>MOL_PROPERTY
Angle
SciTegic.value.DoubleValue
2.492

@<SCITEGIC>MOL_PROPERTY
Pdih
SciTegic.value.DoubleValue
6.936

@<SCITEGIC>MOL_PROPERTY
Idih
SciTegic.value.DoubleValue
0.001

@<SCITEGIC>MOL_PROPERTY
Tether
SciTegic.value.DoubleValue
0.000

@<TRIPOS>MOLECULE
guest-s22_confgen4.mol2 : confsearch ligand conformer 899
          20          19           1
SMALL
USER_CHARGES
 
@<TRIPOS>ATOM
       1    C1      21.962374   17.571965   22.684123 C.2        1 MOL1        -0.2535
       2    H1      22.735408   18.314838   22.494451 H          1 MOL1         0.0845
       3    H2      22.099811   16.910886   23.537999 H          1 MOL1         0.0845
       4    C2      20.884359   17.475158   21.901675 C.2        1 MOL1        -0.1324
       5    H3      20.125986   16.719258   22.102360 H          1 MOL1         0.0833
       6    C3      20.635312   18.351378   20.692617 C.3        1 MOL1        -0.1813
       7    H4      19.901619   17.879591   20.025499 H          1 MOL1         0.0753
       8    H5      21.565957   18.416836   20.112942 H          1 MOL1         0.0753
       9    C4      20.179003   19.787351   21.051686 C.3        1 MOL1        -0.1855
      10    H6      20.806237   20.190156   21.858692 H          1 MOL1         0.0755
      11    H7      20.363807   20.427898   20.178598 H          1 MOL1         0.0755
      12    C5      18.680961   19.921956   21.424316 C.3        1 MOL1        -0.1855
      13    H8      18.057389   19.505584   20.621302 H          1 MOL1         0.0755
      14    H9      18.434985   20.991424   21.481105 H          1 MOL1         0.0755
      15    C6      18.298204   19.261254   22.773476 C.3        1 MOL1        -0.1958
      16    H10     18.388489   18.172378   22.708065 H          1 MOL1         0.0753
      17    H11     18.975104   19.598984   23.567244 H          1 MOL1         0.0753
      18    C7      16.869853   19.578202   23.201247 C.2        1 MOL1         0.6174
      19    O1      15.979193   18.847124   22.815061 O.co2      1 MOL1        -0.6695
      20    O2      16.682304   20.560088   23.892339 O.co2      1 MOL1        -0.6695
@<TRIPOS>BOND
    1     1     2    1
    2     1     3    1
    3     1     4    2
    4     4     5    1
    5     4     6    1
    6     6     7    1
    7     6     8    1
    8     6     9    1
    9     9    10    1
   10     9    11    1
   11     9    12    1
   12    12    13    1
   13    12    14    1
   14    12    15    1
   15    15    16    1
   16    15    17    1
   17    15    18    1
   18    18    19    1
   19    18    20    2
@<TRIPOS>SUBSTRUCTURE
       1 MOL1            1 RESIDUE      1      MOL     
@<SCITEGIC>MOL_PROPERTY
VConf Rank
SciTegic.value.IntegerValue
899

@<SCITEGIC>MOL_PROPERTY
Conf_Id
SciTegic.value.IntegerValue
51

@<SCITEGIC>MOL_PROPERTY
Delta U+W
SciTegic.value.DoubleValue
1.709

@<SCITEGIC>MOL_PROPERTY
U+W
SciTegic.value.DoubleValue
-50.036

@<SCITEGIC>MOL_PROPERTY
Grad RMS
SciTegic.value.DoubleValue
0.000000

@<SCITEGIC>MOL_PROPERTY
U
SciTegic.value.DoubleValue
10.643

@<SCITEGIC>MOL_PROPERTY
W
SciTegic.value.DoubleValue
-60.679

@<SCITEGIC>MOL_PROPERTY
W(PB)
SciTegic.value.DoubleValue
-62.882

@<SCITEGIC>MOL_PROPERTY
W(SA)
SciTegic.value.DoubleValue
2.203

@<SCITEGIC>MOL_PROPERTY
Valence
SciTegic.value.DoubleValue
11.231

@<SCITEGIC>MOL_PROPERTY
Coulomb
SciTegic.value.DoubleValue
-1.077

@<SCITEGIC>MOL_PROPERTY
VdW
SciTegic.value.DoubleValue
0.489

@<SCITEGIC>MOL_PROPERTY
VdW6
SciTegic.value.DoubleValue
-7.546

@<SCITEGIC>MOL_PROPERTY
VdW12
SciTegic.value.DoubleValue
8.035

@<SCITEGIC>MOL_PROPERTY
Bond
SciTegic.value.DoubleValue
0.159

@<SCITEGIC>MOL_PROPERTY
Angle
SciTegic.value.DoubleValue
3.005

@<SCITEGIC>MOL_PROPERTY
Pdih
SciTegic.value.DoubleValue
8.065

@<SCITEGIC>MOL_PROPERTY
Idih
SciTegic.value.DoubleValue
0.002

@<SCITEGIC>MOL_PROPERTY
Tether
SciTegic.value.DoubleValue
0.000

@<TRIPOS>MOLECULE
guest-s22_confgen4.mol2 : confsearch ligand conformer 900
          20          19           1
SMALL
USER_CHARGES
 
@<TRIPOS>ATOM
       1    C1      19.838098   21.930541   21.837290 C.2        1 MOL1        -0.2535
       2    H1      20.473904   22.089077   20.967788 H          1 MOL1         0.0845
       3    H2      19.960080   22.609742   22.679209 H          1 MOL1         0.0845
       4    C2      18.943619   20.939406   21.872946 C.2        1 MOL1        -0.1324
       5    H3      18.310119   20.802369   22.748556 H          1 MOL1         0.0833
       6    C3      18.712293   19.967444   20.735677 C.3        1 MOL1        -0.1813
       7    H4      18.666214   20.535441   19.796708 H          1 MOL1         0.0753
       8    H5      17.731055   19.485685   20.840631 H          1 MOL1         0.0753
       9    C4      19.819505   18.892213   20.604791 C.3        1 MOL1        -0.1855
      10    H6      19.766989   18.476287   19.589417 H          1 MOL1         0.0755
      11    H7      20.809796   19.360658   20.687334 H          1 MOL1         0.0755
      12    C5      19.704212   17.712086   21.602345 C.3        1 MOL1        -0.1855
      13    H8      20.421736   16.935934   21.301953 H          1 MOL1         0.0755
      14    H9      18.707949   17.255128   21.526924 H          1 MOL1         0.0755
      15    C6      19.988839   18.094659   23.077437 C.3        1 MOL1        -0.1958
      16    H10     20.939586   18.635705   23.152741 H          1 MOL1         0.0753
      17    H11     19.205312   18.755317   23.461752 H          1 MOL1         0.0753
      18    C7      20.058811   16.881969   23.998364 C.2        1 MOL1         0.6174
      19    O1      19.027948   16.486066   24.505781 O.co2      1 MOL1        -0.6695
      20    O2      21.139177   16.352051   24.168299 O.co2      1 MOL1        -0.6695
@<TRIPOS>BOND
    1     1     2    1
    2     1     3    1
    3     1     4    2
    4     4     5    1
    5     4     6    1
    6     6     7    1
    7     6     8    1
    8     6     9    1
    9     9    10    1
   10     9    11    1
   11     9    12    1
   12    12    13    1
   13    12    14    1
   14    12    15    1
   15    15    16    1
   16    15    17    1
   17    15    18    1
   18    18    19    1
   19    18    20    2
@<TRIPOS>SUBSTRUCTURE
       1 MOL1            1 RESIDUE      1      MOL     
@<SCITEGIC>MOL_PROPERTY
VConf Rank
SciTegic.value.IntegerValue
900

@<SCITEGIC>MOL_PROPERTY
Conf_Id
SciTegic.value.IntegerValue
91

@<SCITEGIC>MOL_PROPERTY
Delta U+W
SciTegic.value.DoubleValue
1.604

@<SCITEGIC>MOL_PROPERTY
U+W
SciTegic.value.DoubleValue
-50.141

@<SCITEGIC>MOL_PROPERTY
Grad RMS
SciTegic.value.DoubleValue
0.000000

@<SCITEGIC>MOL_PROPERTY
U
SciTegic.value.DoubleValue
10.644

@<SCITEGIC>MOL_PROPERTY
W
SciTegic.value.DoubleValue
-60.786

@<SCITEGIC>MOL_PROPERTY
W(PB)
SciTegic.value.DoubleValue
-62.965

@<SCITEGIC>MOL_PROPERTY
W(SA)
SciTegic.value.DoubleValue
2.179

@<SCITEGIC>MOL_PROPERTY
Valence
SciTegic.value.DoubleValue
11.230

@<SCITEGIC>MOL_PROPERTY
Coulomb
SciTegic.value.DoubleValue
-1.075

@<SCITEGIC>MOL_PROPERTY
VdW
SciTegic.value.DoubleValue
0.489

@<SCITEGIC>MOL_PROPERTY
VdW6
SciTegic.value.DoubleValue
-7.547

@<SCITEGIC>MOL_PROPERTY
VdW12
SciTegic.value.DoubleValue
8.036

@<SCITEGIC>MOL_PROPERTY
Bond
SciTegic.value.DoubleValue
0.159

@<SCITEGIC>MOL_PROPERTY
Angle
SciTegic.value.DoubleValue
3.006

@<SCITEGIC>MOL_PROPERTY
Pdih
SciTegic.value.DoubleValue
8.064

@<SCITEGIC>MOL_PROPERTY
Idih
SciTegic.value.DoubleValue
0.002

@<SCITEGIC>MOL_PROPERTY
Tether
SciTegic.value.DoubleValue
0.000

@<TRIPOS>MOLECULE
guest-s22_confgen4.mol2 : confsearch ligand conformer 901
          20          19           1
SMALL
USER_CHARGES
 
@<TRIPOS>ATOM
       1    C1      17.230574   20.494400   24.073446 C.2        1 MOL1        -0.2535
       2    H1      17.091441   21.274302   23.326462 H          1 MOL1         0.0845
       3    H2      16.891320   20.704681   25.086346 H          1 MOL1         0.0845
       4    C2      17.797063   19.325179   23.764153 C.2        1 MOL1        -0.1324
       5    H3      17.927743   18.557989   24.527042 H          1 MOL1         0.0833
       6    C3      18.290966   18.961940   22.381489 C.3        1 MOL1        -0.1813
       7    H4      17.891660   19.665255   21.638047 H          1 MOL1         0.0753
       8    H5      17.916837   17.966435   22.107370 H          1 MOL1         0.0753
       9    C4      19.832749   18.970316   22.320603 C.3        1 MOL1        -0.1855
      10    H6      20.201900   19.966926   22.599675 H          1 MOL1         0.0755
      11    H7      20.231527   18.263394   23.061142 H          1 MOL1         0.0755
      12    C5      20.354481   18.598429   20.915394 C.3        1 MOL1        -0.1855
      13    H8      19.956432   19.305360   20.174212 H          1 MOL1         0.0755
      14    H9      19.984609   17.602331   20.635204 H          1 MOL1         0.0755
      15    C6      21.905156   18.607681   20.854406 C.3        1 MOL1        -0.1958
      16    H10     22.280931   19.600929   21.126740 H          1 MOL1         0.0753
      17    H11     22.309247   17.899511   21.587285 H          1 MOL1         0.0753
      18    C7      22.506731   18.249615   19.494548 C.2        1 MOL1         0.6174
      19    O1      23.718619   18.244990   19.408268 O.co2      1 MOL1        -0.6695
      20    O2      21.773090   17.986277   18.561236 O.co2      1 MOL1        -0.6695
@<TRIPOS>BOND
    1     1     2    1
    2     1     3    1
    3     1     4    2
    4     4     5    1
    5     4     6    1
    6     6     7    1
    7     6     8    1
    8     6     9    1
    9     9    10    1
   10     9    11    1
   11     9    12    1
   12    12    13    1
   13    12    14    1
   14    12    15    1
   15    15    16    1
   16    15    17    1
   17    15    18    1
   18    18    19    1
   19    18    20    2
@<TRIPOS>SUBSTRUCTURE
       1 MOL1            1 RESIDUE      1      MOL     
@<SCITEGIC>MOL_PROPERTY
VConf Rank
SciTegic.value.IntegerValue
901

@<SCITEGIC>MOL_PROPERTY
Conf_Id
SciTegic.value.IntegerValue
33

@<SCITEGIC>MOL_PROPERTY
Delta U+W
SciTegic.value.DoubleValue
0.000

@<SCITEGIC>MOL_PROPERTY
U+W
SciTegic.value.DoubleValue
-51.745

@<SCITEGIC>MOL_PROPERTY
Grad RMS
SciTegic.value.DoubleValue
0.000000

@<SCITEGIC>MOL_PROPERTY
U
SciTegic.value.DoubleValue
7.593

@<SCITEGIC>MOL_PROPERTY
W
SciTegic.value.DoubleValue
-59.338

@<SCITEGIC>MOL_PROPERTY
W(PB)
SciTegic.value.DoubleValue
-61.574

@<SCITEGIC>MOL_PROPERTY
W(SA)
SciTegic.value.DoubleValue
2.236

@<SCITEGIC>MOL_PROPERTY
Valence
SciTegic.value.DoubleValue
9.570

@<SCITEGIC>MOL_PROPERTY
Coulomb
SciTegic.value.DoubleValue
-3.091

@<SCITEGIC>MOL_PROPERTY
VdW
SciTegic.value.DoubleValue
1.114

@<SCITEGIC>MOL_PROPERTY
VdW6
SciTegic.value.DoubleValue
-6.064

@<SCITEGIC>MOL_PROPERTY
VdW12
SciTegic.value.DoubleValue
7.178

@<SCITEGIC>MOL_PROPERTY
Bond
SciTegic.value.DoubleValue
0.117

@<SCITEGIC>MOL_PROPERTY
Angle
SciTegic.value.DoubleValue
2.692

@<SCITEGIC>MOL_PROPERTY
Pdih
SciTegic.value.DoubleValue
6.761

@<SCITEGIC>MOL_PROPERTY
Idih
SciTegic.value.DoubleValue
0.000

@<SCITEGIC>MOL_PROPERTY
Tether
SciTegic.value.DoubleValue
0.000

@<TRIPOS>MOLECULE
guest-s22_confgen4.mol2 : confsearch ligand conformer 902
          20          19           1
SMALL
USER_CHARGES
 
@<TRIPOS>ATOM
       1    C1      17.305654   18.903439   19.202609 C.2        1 MOL1        -0.2535
       2    H1      16.497525   18.982083   19.928088 H          1 MOL1         0.0845
       3    H2      17.034648   18.671289   18.174056 H          1 MOL1         0.0845
       4    C2      18.580981   19.081554   19.556855 C.2        1 MOL1        -0.1324
       5    H3      19.375111   18.997595   18.815276 H          1 MOL1         0.0833
       6    C3      19.032862   19.406592   20.963225 C.3        1 MOL1        -0.1813
       7    H4      18.176108   19.722509   21.573771 H          1 MOL1         0.0753
       8    H5      19.729150   20.254043   20.930649 H          1 MOL1         0.0753
       9    C4      19.712959   18.186159   21.623393 C.3        1 MOL1        -0.1855
      10    H6      19.029184   17.327813   21.568314 H          1 MOL1         0.0755
      11    H7      20.607827   17.906930   21.050475 H          1 MOL1         0.0755
      12    C5      20.094635   18.418622   23.104766 C.3        1 MOL1        -0.1855
      13    H8      20.464493   17.473347   23.525663 H          1 MOL1         0.0755
      14    H9      19.198274   18.685041   23.681786 H          1 MOL1         0.0755
      15    C6      21.179677   19.509179   23.300581 C.3        1 MOL1        -0.1958
      16    H10     22.064065   19.276257   22.695611 H          1 MOL1         0.0753
      17    H11     20.808912   20.486815   22.972705 H          1 MOL1         0.0753
      18    C7      21.622779   19.645072   24.752877 C.2        1 MOL1         0.6174
      19    O1      21.012902   20.414140   25.469321 O.co2      1 MOL1        -0.6695
      20    O2      22.553620   18.963568   25.134744 O.co2      1 MOL1        -0.6695
@<TRIPOS>BOND
    1     1     2    1
    2     1     3    1
    3     1     4    2
    4     4     5    1
    5     4     6    1
    6     6     7    1
    7     6     8    1
    8     6     9    1
    9     9    10    1
   10     9    11    1
   11     9    12    1
   12    12    13    1
   13    12    14    1
   14    12    15    1
   15    15    16    1
   16    15    17    1
   17    15    18    1
   18    18    19    1
   19    18    20    2
@<TRIPOS>SUBSTRUCTURE
       1 MOL1            1 RESIDUE      1      MOL     
@<SCITEGIC>MOL_PROPERTY
VConf Rank
SciTegic.value.IntegerValue
902

@<SCITEGIC>MOL_PROPERTY
Conf_Id
SciTegic.value.IntegerValue
37

@<SCITEGIC>MOL_PROPERTY
Delta U+W
SciTegic.value.DoubleValue
-0.384

@<SCITEGIC>MOL_PROPERTY
U+W
SciTegic.value.DoubleValue
-52.130

@<SCITEGIC>MOL_PROPERTY
Grad RMS
SciTegic.value.DoubleValue
0.000000

@<SCITEGIC>MOL_PROPERTY
U
SciTegic.value.DoubleValue
7.491

@<SCITEGIC>MOL_PROPERTY
W
SciTegic.value.DoubleValue
-59.621

@<SCITEGIC>MOL_PROPERTY
W(PB)
SciTegic.value.DoubleValue
-61.853

@<SCITEGIC>MOL_PROPERTY
W(SA)
SciTegic.value.DoubleValue
2.232

@<SCITEGIC>MOL_PROPERTY
Valence
SciTegic.value.DoubleValue
9.604

@<SCITEGIC>MOL_PROPERTY
Coulomb
SciTegic.value.DoubleValue
-2.799

@<SCITEGIC>MOL_PROPERTY
VdW
SciTegic.value.DoubleValue
0.686

@<SCITEGIC>MOL_PROPERTY
VdW6
SciTegic.value.DoubleValue
-6.435

@<SCITEGIC>MOL_PROPERTY
VdW12
SciTegic.value.DoubleValue
7.121

@<SCITEGIC>MOL_PROPERTY
Bond
SciTegic.value.DoubleValue
0.124

@<SCITEGIC>MOL_PROPERTY
Angle
SciTegic.value.DoubleValue
2.493

@<SCITEGIC>MOL_PROPERTY
Pdih
SciTegic.value.DoubleValue
6.986

@<SCITEGIC>MOL_PROPERTY
Idih
SciTegic.value.DoubleValue
0.001

@<SCITEGIC>MOL_PROPERTY
Tether
SciTegic.value.DoubleValue
0.000

@<TRIPOS>MOLECULE
guest-s22_confgen4.mol2 : confsearch ligand conformer 903
          20          19           1
SMALL
USER_CHARGES
 
@<TRIPOS>ATOM
       1    C1      23.003379   19.538163   21.129600 C.2        1 MOL1        -0.2535
       2    H1      24.044256   19.724522   20.870688 H          1 MOL1         0.0845
       3    H2      22.788807   18.617525   21.668054 H          1 MOL1         0.0845
       4    C2      22.048406   20.412346   20.792340 C.2        1 MOL1        -0.1324
       5    H3      22.325423   21.317747   20.252767 H          1 MOL1         0.0833
       6    C3      20.561799   20.290665   21.082526 C.3        1 MOL1        -0.1813
       7    H4      20.012060   20.336251   20.132872 H          1 MOL1         0.0753
       8    H5      20.240409   21.172223   21.653227 H          1 MOL1         0.0753
       9    C4      20.146945   19.012270   21.847760 C.3        1 MOL1        -0.1855
      10    H6      20.447178   18.126125   21.271831 H          1 MOL1         0.0755
      11    H7      20.678025   18.971153   22.808672 H          1 MOL1         0.0755
      12    C5      18.624337   18.966124   22.101843 C.3        1 MOL1        -0.1855
      13    H8      18.087140   19.007017   21.144057 H          1 MOL1         0.0755
      14    H9      18.317522   19.850320   22.677748 H          1 MOL1         0.0755
      15    C6      18.206389   17.686907   22.868007 C.3        1 MOL1        -0.1958
      16    H10     18.493718   16.794108   22.299716 H          1 MOL1         0.0753
      17    H11     18.724197   17.637403   23.833423 H          1 MOL1         0.0753
      18    C7      16.706397   17.618153   23.131226 C.2        1 MOL1         0.6174
      19    O1      16.000951   17.089517   22.294843 O.co2      1 MOL1        -0.6695
      20    O2      16.280721   18.112602   24.156393 O.co2      1 MOL1        -0.6695
@<TRIPOS>BOND
    1     1     2    1
    2     1     3    1
    3     1     4    2
    4     4     5    1
    5     4     6    1
    6     6     7    1
    7     6     8    1
    8     6     9    1
    9     9    10    1
   10     9    11    1
   11     9    12    1
   12    12    13    1
   13    12    14    1
   14    12    15    1
   15    15    16    1
   16    15    17    1
   17    15    18    1
   18    18    19    1
   19    18    20    2
@<TRIPOS>SUBSTRUCTURE
       1 MOL1            1 RESIDUE      1      MOL     
@<SCITEGIC>MOL_PROPERTY
VConf Rank
SciTegic.value.IntegerValue
903

@<SCITEGIC>MOL_PROPERTY
Conf_Id
SciTegic.value.IntegerValue
44

@<SCITEGIC>MOL_PROPERTY
Delta U+W
SciTegic.value.DoubleValue
-1.440

@<SCITEGIC>MOL_PROPERTY
U+W
SciTegic.value.DoubleValue
-53.185

@<SCITEGIC>MOL_PROPERTY
Grad RMS
SciTegic.value.DoubleValue
0.000000

@<SCITEGIC>MOL_PROPERTY
U
SciTegic.value.DoubleValue
6.572

@<SCITEGIC>MOL_PROPERTY
W
SciTegic.value.DoubleValue
-59.757

@<SCITEGIC>MOL_PROPERTY
W(PB)
SciTegic.value.DoubleValue
-62.007

@<SCITEGIC>MOL_PROPERTY
W(SA)
SciTegic.value.DoubleValue
2.249

@<SCITEGIC>MOL_PROPERTY
Valence
SciTegic.value.DoubleValue
7.989

@<SCITEGIC>MOL_PROPERTY
Coulomb
SciTegic.value.DoubleValue
-2.697

@<SCITEGIC>MOL_PROPERTY
VdW
SciTegic.value.DoubleValue
1.281

@<SCITEGIC>MOL_PROPERTY
VdW6
SciTegic.value.DoubleValue
-6.467

@<SCITEGIC>MOL_PROPERTY
VdW12
SciTegic.value.DoubleValue
7.748

@<SCITEGIC>MOL_PROPERTY
Bond
SciTegic.value.DoubleValue
0.136

@<SCITEGIC>MOL_PROPERTY
Angle
SciTegic.value.DoubleValue
2.854

@<SCITEGIC>MOL_PROPERTY
Pdih
SciTegic.value.DoubleValue
4.997

@<SCITEGIC>MOL_PROPERTY
Idih
SciTegic.value.DoubleValue
0.001

@<SCITEGIC>MOL_PROPERTY
Tether
SciTegic.value.DoubleValue
0.000

@<TRIPOS>MOLECULE
guest-s22_confgen4.mol2 : confsearch ligand conformer 904
          20          19           1
SMALL
USER_CHARGES
 
@<TRIPOS>ATOM
       1    C1      16.498357   19.274965   22.956555 C.2        1 MOL1        -0.2535
       2    H1      16.337956   18.996306   21.916268 H          1 MOL1         0.0845
       3    H2      15.638756   19.641251   23.515281 H          1 MOL1         0.0845
       4    C2      17.701397   19.175450   23.527965 C.2        1 MOL1        -0.1324
       5    H3      17.840634   19.460242   24.570626 H          1 MOL1         0.0833
       6    C3      18.939045   18.675057   22.816818 C.3        1 MOL1        -0.1813
       7    H4      18.654507   18.166559   21.886727 H          1 MOL1         0.0753
       8    H5      19.445952   17.929530   23.443848 H          1 MOL1         0.0753
       9    C4      19.909096   19.837287   22.506680 C.3        1 MOL1        -0.1855
      10    H6      19.419289   20.555533   21.834814 H          1 MOL1         0.0755
      11    H7      20.122790   20.380045   23.437719 H          1 MOL1         0.0755
      12    C5      21.249446   19.374579   21.887257 C.3        1 MOL1        -0.1855
      13    H8      21.745090   18.663543   22.562636 H          1 MOL1         0.0755
      14    H9      21.918135   20.242805   21.806380 H          1 MOL1         0.0755
      15    C6      21.094286   18.733671   20.483612 C.3        1 MOL1        -0.1958
      16    H10     20.506380   17.810854   20.542579 H          1 MOL1         0.0753
      17    H11     20.561264   19.417361   19.812157 H          1 MOL1         0.0753
      18    C7      22.433573   18.389360   19.841981 C.2        1 MOL1         0.6174
      19    O1      22.973399   19.232661   19.153383 O.co2      1 MOL1        -0.6695
      20    O2      22.911430   17.294287   20.063747 O.co2      1 MOL1        -0.6695
@<TRIPOS>BOND
    1     1     2    1
    2     1     3    1
    3     1     4    2
    4     4     5    1
    5     4     6    1
    6     6     7    1
    7     6     8    1
    8     6     9    1
    9     9    10    1
   10     9    11    1
   11     9    12    1
   12    12    13    1
   13    12    14    1
   14    12    15    1
   15    15    16    1
   16    15    17    1
   17    15    18    1
   18    18    19    1
   19    18    20    2
@<TRIPOS>SUBSTRUCTURE
       1 MOL1            1 RESIDUE      1      MOL     
@<SCITEGIC>MOL_PROPERTY
VConf Rank
SciTegic.value.IntegerValue
904

@<SCITEGIC>MOL_PROPERTY
Conf_Id
SciTegic.value.IntegerValue
38

@<SCITEGIC>MOL_PROPERTY
Delta U+W
SciTegic.value.DoubleValue
-0.381

@<SCITEGIC>MOL_PROPERTY
U+W
SciTegic.value.DoubleValue
-52.126

@<SCITEGIC>MOL_PROPERTY
Grad RMS
SciTegic.value.DoubleValue
0.000000

@<SCITEGIC>MOL_PROPERTY
U
SciTegic.value.DoubleValue
7.601

@<SCITEGIC>MOL_PROPERTY
W
SciTegic.value.DoubleValue
-59.727

@<SCITEGIC>MOL_PROPERTY
W(PB)
SciTegic.value.DoubleValue
-61.964

@<SCITEGIC>MOL_PROPERTY
W(SA)
SciTegic.value.DoubleValue
2.236

@<SCITEGIC>MOL_PROPERTY
Valence
SciTegic.value.DoubleValue
9.602

@<SCITEGIC>MOL_PROPERTY
Coulomb
SciTegic.value.DoubleValue
-2.686

@<SCITEGIC>MOL_PROPERTY
VdW
SciTegic.value.DoubleValue
0.685

@<SCITEGIC>MOL_PROPERTY
VdW6
SciTegic.value.DoubleValue
-6.453

@<SCITEGIC>MOL_PROPERTY
VdW12
SciTegic.value.DoubleValue
7.139

@<SCITEGIC>MOL_PROPERTY
Bond
SciTegic.value.DoubleValue
0.125

@<SCITEGIC>MOL_PROPERTY
Angle
SciTegic.value.DoubleValue
2.485

@<SCITEGIC>MOL_PROPERTY
Pdih
SciTegic.value.DoubleValue
6.991

@<SCITEGIC>MOL_PROPERTY
Idih
SciTegic.value.DoubleValue
0.001

@<SCITEGIC>MOL_PROPERTY
Tether
SciTegic.value.DoubleValue
0.000

@<TRIPOS>MOLECULE
guest-s22_confgen4.mol2 : confsearch ligand conformer 905
          20          19           1
SMALL
USER_CHARGES
 
@<TRIPOS>ATOM
       1    C1      17.037239   21.481135   22.726196 C.2        1 MOL1        -0.2535
       2    H1      17.711437   22.278784   23.034077 H          1 MOL1         0.0845
       3    H2      16.035347   21.766326   22.409736 H          1 MOL1         0.0845
       4    C2      17.420929   20.201915   22.732720 C.2        1 MOL1        -0.1324
       5    H3      16.730819   19.418668   22.419778 H          1 MOL1         0.0833
       6    C3      18.793418   19.730612   23.159095 C.3        1 MOL1        -0.1813
       7    H4      18.692113   18.896333   23.866090 H          1 MOL1         0.0753
       8    H5      19.322891   20.533051   23.690593 H          1 MOL1         0.0753
       9    C4      19.630032   19.279374   21.943581 C.3        1 MOL1        -0.1855
      10    H6      19.099407   18.475236   21.415158 H          1 MOL1         0.0755
      11    H7      19.725091   20.114988   21.236485 H          1 MOL1         0.0755
      12    C5      21.035393   18.791590   22.362338 C.3        1 MOL1        -0.1855
      13    H8      20.943989   17.948738   23.061581 H          1 MOL1         0.0755
      14    H9      21.551867   19.596284   22.902990 H          1 MOL1         0.0755
      15    C6      21.902946   18.361980   21.150858 C.3        1 MOL1        -0.1958
      16    H10     21.980528   19.184572   20.429622 H          1 MOL1         0.0753
      17    H11     22.921612   18.139869   21.489923 H          1 MOL1         0.0753
      18    C7      21.383894   17.124390   20.424344 C.2        1 MOL1         0.6174
      19    O1      20.831291   17.275160   19.352491 O.co2      1 MOL1        -0.6695
      20    O2      21.556468   16.040226   20.945787 O.co2      1 MOL1        -0.6695
@<TRIPOS>BOND
    1     1     2    1
    2     1     3    1
    3     1     4    2
    4     4     5    1
    5     4     6    1
    6     6     7    1
    7     6     8    1
    8     6     9    1
    9     9    10    1
   10     9    11    1
   11     9    12    1
   12    12    13    1
   13    12    14    1
   14    12    15    1
   15    15    16    1
   16    15    17    1
   17    15    18    1
   18    18    19    1
   19    18    20    2
@<TRIPOS>SUBSTRUCTURE
       1 MOL1            1 RESIDUE      1      MOL     
@<SCITEGIC>MOL_PROPERTY
VConf Rank
SciTegic.value.IntegerValue
905

@<SCITEGIC>MOL_PROPERTY
Conf_Id
SciTegic.value.IntegerValue
58

@<SCITEGIC>MOL_PROPERTY
Delta U+W
SciTegic.value.DoubleValue
0.019

@<SCITEGIC>MOL_PROPERTY
U+W
SciTegic.value.DoubleValue
-51.727

@<SCITEGIC>MOL_PROPERTY
Grad RMS
SciTegic.value.DoubleValue
0.000000

@<SCITEGIC>MOL_PROPERTY
U
SciTegic.value.DoubleValue
8.963

@<SCITEGIC>MOL_PROPERTY
W
SciTegic.value.DoubleValue
-60.690

@<SCITEGIC>MOL_PROPERTY
W(PB)
SciTegic.value.DoubleValue
-62.934

@<SCITEGIC>MOL_PROPERTY
W(SA)
SciTegic.value.DoubleValue
2.244

@<SCITEGIC>MOL_PROPERTY
Valence
SciTegic.value.DoubleValue
9.327

@<SCITEGIC>MOL_PROPERTY
Coulomb
SciTegic.value.DoubleValue
-0.780

@<SCITEGIC>MOL_PROPERTY
VdW
SciTegic.value.DoubleValue
0.417

@<SCITEGIC>MOL_PROPERTY
VdW6
SciTegic.value.DoubleValue
-6.635

@<SCITEGIC>MOL_PROPERTY
VdW12
SciTegic.value.DoubleValue
7.052

@<SCITEGIC>MOL_PROPERTY
Bond
SciTegic.value.DoubleValue
0.105

@<SCITEGIC>MOL_PROPERTY
Angle
SciTegic.value.DoubleValue
2.399

@<SCITEGIC>MOL_PROPERTY
Pdih
SciTegic.value.DoubleValue
6.822

@<SCITEGIC>MOL_PROPERTY
Idih
SciTegic.value.DoubleValue
0.000

@<SCITEGIC>MOL_PROPERTY
Tether
SciTegic.value.DoubleValue
0.000

@<TRIPOS>MOLECULE
guest-s22_confgen4.mol2 : confsearch ligand conformer 906
          20          19           1
SMALL
USER_CHARGES
 
@<TRIPOS>ATOM
       1    C1      22.418305   17.996407   24.051751 C.2        1 MOL1        -0.2535
       2    H1      22.941837   18.951098   24.044325 H          1 MOL1         0.0845
       3    H2      23.004760   17.105187   24.268694 H          1 MOL1         0.0845
       4    C2      21.108645   17.916929   23.802467 C.2        1 MOL1        -0.1324
       5    H3      20.603773   16.951199   23.813868 H          1 MOL1         0.0833
       6    C3      20.230349   19.109152   23.494500 C.3        1 MOL1        -0.1813
       7    H4      20.750595   20.041533   23.752860 H          1 MOL1         0.0753
       8    H5      19.325686   19.069233   24.115883 H          1 MOL1         0.0753
       9    C4      19.832688   19.137946   22.003846 C.3        1 MOL1        -0.1855
      10    H6      20.740217   19.173048   21.385437 H          1 MOL1         0.0755
      11    H7      19.310555   18.205387   21.748615 H          1 MOL1         0.0755
      12    C5      18.931926   20.349245   21.672621 C.3        1 MOL1        -0.1855
      13    H8      19.455692   21.275426   21.945459 H          1 MOL1         0.0755
      14    H9      18.018138   20.311422   22.281928 H          1 MOL1         0.0755
      15    C6      18.546204   20.412788   20.171930 C.3        1 MOL1        -0.1958
      16    H10     18.010649   21.347965   19.970427 H          1 MOL1         0.0753
      17    H11     19.448678   20.422983   19.548796 H          1 MOL1         0.0753
      18    C7      17.650190   19.265898   19.712942 C.2        1 MOL1         0.6174
      19    O1      16.476420   19.295849   20.026728 O.co2      1 MOL1        -0.6695
      20    O2      18.145778   18.379503   19.045360 O.co2      1 MOL1        -0.6695
@<TRIPOS>BOND
    1     1     2    1
    2     1     3    1
    3     1     4    2
    4     4     5    1
    5     4     6    1
    6     6     7    1
    7     6     8    1
    8     6     9    1
    9     9    10    1
   10     9    11    1
   11     9    12    1
   12    12    13    1
   13    12    14    1
   14    12    15    1
   15    15    16    1
   16    15    17    1
   17    15    18    1
   18    18    19    1
   19    18    20    2
@<TRIPOS>SUBSTRUCTURE
       1 MOL1            1 RESIDUE      1      MOL     
@<SCITEGIC>MOL_PROPERTY
VConf Rank
SciTegic.value.IntegerValue
906

@<SCITEGIC>MOL_PROPERTY
Conf_Id
SciTegic.value.IntegerValue
54

@<SCITEGIC>MOL_PROPERTY
Delta U+W
SciTegic.value.DoubleValue
-0.048

@<SCITEGIC>MOL_PROPERTY
U+W
SciTegic.value.DoubleValue
-51.793

@<SCITEGIC>MOL_PROPERTY
Grad RMS
SciTegic.value.DoubleValue
0.000000

@<SCITEGIC>MOL_PROPERTY
U
SciTegic.value.DoubleValue
8.964

@<SCITEGIC>MOL_PROPERTY
W
SciTegic.value.DoubleValue
-60.756

@<SCITEGIC>MOL_PROPERTY
W(PB)
SciTegic.value.DoubleValue
-63.007

@<SCITEGIC>MOL_PROPERTY
W(SA)
SciTegic.value.DoubleValue
2.251

@<SCITEGIC>MOL_PROPERTY
Valence
SciTegic.value.DoubleValue
9.327

@<SCITEGIC>MOL_PROPERTY
Coulomb
SciTegic.value.DoubleValue
-0.780

@<SCITEGIC>MOL_PROPERTY
VdW
SciTegic.value.DoubleValue
0.417

@<SCITEGIC>MOL_PROPERTY
VdW6
SciTegic.value.DoubleValue
-6.635

@<SCITEGIC>MOL_PROPERTY
VdW12
SciTegic.value.DoubleValue
7.052

@<SCITEGIC>MOL_PROPERTY
Bond
SciTegic.value.DoubleValue
0.105

@<SCITEGIC>MOL_PROPERTY
Angle
SciTegic.value.DoubleValue
2.399

@<SCITEGIC>MOL_PROPERTY
Pdih
SciTegic.value.DoubleValue
6.822

@<SCITEGIC>MOL_PROPERTY
Idih
SciTegic.value.DoubleValue
0.000

@<SCITEGIC>MOL_PROPERTY
Tether
SciTegic.value.DoubleValue
0.000

@<TRIPOS>MOLECULE
guest-s22_confgen4.mol2 : confsearch ligand conformer 907
          20          19           1
SMALL
USER_CHARGES
 
@<TRIPOS>ATOM
       1    C1      16.684084   19.865022   20.880992 C.2        1 MOL1        -0.2535
       2    H1      15.833494   20.374971   21.330032 H          1 MOL1         0.0845
       3    H2      16.876810   20.046441   19.824842 H          1 MOL1         0.0845
       4    C2      17.460341   19.051671   21.601794 C.2        1 MOL1        -0.1324
       5    H3      17.247554   18.881309   22.656759 H          1 MOL1         0.0833
       6    C3      18.653456   18.304920   21.044401 C.3        1 MOL1        -0.1813
       7    H4      18.572854   18.242608   19.950714 H          1 MOL1         0.0753
       8    H5      18.652499   17.270000   21.411804 H          1 MOL1         0.0753
       9    C4      19.994163   18.984420   21.403547 C.3        1 MOL1        -0.1855
      10    H6      20.802032   18.477295   20.858427 H          1 MOL1         0.0755
      11    H7      19.983022   20.024471   21.049559 H          1 MOL1         0.0755
      12    C5      20.298973   18.950189   22.920129 C.3        1 MOL1        -0.1855
      13    H8      20.295724   17.911042   23.277343 H          1 MOL1         0.0755
      14    H9      19.503706   19.474837   23.465831 H          1 MOL1         0.0755
      15    C6      21.658744   19.609183   23.269315 C.3        1 MOL1        -0.1958
      16    H10     21.689952   20.637386   22.888979 H          1 MOL1         0.0753
      17    H11     21.767143   19.670198   24.358572 H          1 MOL1         0.0753
      18    C7      22.871021   18.853695   22.732232 C.2        1 MOL1         0.6174
      19    O1      23.450450   19.307514   21.765092 O.co2      1 MOL1        -0.6695
      20    O2      23.210178   17.835793   23.303164 O.co2      1 MOL1        -0.6695
@<TRIPOS>BOND
    1     1     2    1
    2     1     3    1
    3     1     4    2
    4     4     5    1
    5     4     6    1
    6     6     7    1
    7     6     8    1
    8     6     9    1
    9     9    10    1
   10     9    11    1
   11     9    12    1
   12    12    13    1
   13    12    14    1
   14    12    15    1
   15    15    16    1
   16    15    17    1
   17    15    18    1
   18    18    19    1
   19    18    20    2
@<TRIPOS>SUBSTRUCTURE
       1 MOL1            1 RESIDUE      1      MOL     
@<SCITEGIC>MOL_PROPERTY
VConf Rank
SciTegic.value.IntegerValue
907

@<SCITEGIC>MOL_PROPERTY
Conf_Id
SciTegic.value.IntegerValue
27

@<SCITEGIC>MOL_PROPERTY
Delta U+W
SciTegic.value.DoubleValue
0.478

@<SCITEGIC>MOL_PROPERTY
U+W
SciTegic.value.DoubleValue
-51.267

@<SCITEGIC>MOL_PROPERTY
Grad RMS
SciTegic.value.DoubleValue
0.000000

@<SCITEGIC>MOL_PROPERTY
U
SciTegic.value.DoubleValue
9.192

@<SCITEGIC>MOL_PROPERTY
W
SciTegic.value.DoubleValue
-60.459

@<SCITEGIC>MOL_PROPERTY
W(PB)
SciTegic.value.DoubleValue
-62.649

@<SCITEGIC>MOL_PROPERTY
W(SA)
SciTegic.value.DoubleValue
2.190

@<SCITEGIC>MOL_PROPERTY
Valence
SciTegic.value.DoubleValue
9.572

@<SCITEGIC>MOL_PROPERTY
Coulomb
SciTegic.value.DoubleValue
-0.884

@<SCITEGIC>MOL_PROPERTY
VdW
SciTegic.value.DoubleValue
0.504

@<SCITEGIC>MOL_PROPERTY
VdW6
SciTegic.value.DoubleValue
-7.168

@<SCITEGIC>MOL_PROPERTY
VdW12
SciTegic.value.DoubleValue
7.672

@<SCITEGIC>MOL_PROPERTY
Bond
SciTegic.value.DoubleValue
0.127

@<SCITEGIC>MOL_PROPERTY
Angle
SciTegic.value.DoubleValue
2.504

@<SCITEGIC>MOL_PROPERTY
Pdih
SciTegic.value.DoubleValue
6.941

@<SCITEGIC>MOL_PROPERTY
Idih
SciTegic.value.DoubleValue
0.001

@<SCITEGIC>MOL_PROPERTY
Tether
SciTegic.value.DoubleValue
0.000

@<TRIPOS>MOLECULE
guest-s22_confgen4.mol2 : confsearch ligand conformer 908
          20          19           1
SMALL
USER_CHARGES
 
@<TRIPOS>ATOM
       1    C1      21.348376   19.486377   24.756813 C.2        1 MOL1        -0.2535
       2    H1      22.118219   18.723230   24.859064 H          1 MOL1         0.0845
       3    H2      20.953508   19.925568   25.671355 H          1 MOL1         0.0845
       4    C2      20.900830   19.869272   23.558159 C.2        1 MOL1        -0.1324
       5    H3      20.131879   20.637152   23.478354 H          1 MOL1         0.0833
       6    C3      21.406535   19.308683   22.245986 C.3        1 MOL1        -0.1813
       7    H4      22.385953   18.835355   22.398489 H          1 MOL1         0.0753
       8    H5      21.567822   20.124021   21.528162 H          1 MOL1         0.0753
       9    C4      20.440889   18.264698   21.641267 C.3        1 MOL1        -0.1855
      10    H6      20.921537   17.802412   20.768257 H          1 MOL1         0.0755
      11    H7      20.271102   17.459852   22.369760 H          1 MOL1         0.0755
      12    C5      19.087640   18.875889   21.210914 C.3        1 MOL1        -0.1855
      13    H8      19.260659   19.697635   20.502285 H          1 MOL1         0.0755
      14    H9      18.577089   19.307827   22.082378 H          1 MOL1         0.0755
      15    C6      18.162677   17.821215   20.555042 C.3        1 MOL1        -0.1958
      16    H10     18.647472   17.388675   19.671629 H          1 MOL1         0.0753
      17    H11     17.970448   16.999132   21.254925 H          1 MOL1         0.0753
      18    C7      16.819876   18.399049   20.122562 C.2        1 MOL1         0.6174
      19    O1      15.903393   18.380181   20.920286 O.co2      1 MOL1        -0.6695
      20    O2      16.730765   18.868760   19.005364 O.co2      1 MOL1        -0.6695
@<TRIPOS>BOND
    1     1     2    1
    2     1     3    1
    3     1     4    2
    4     4     5    1
    5     4     6    1
    6     6     7    1
    7     6     8    1
    8     6     9    1
    9     9    10    1
   10     9    11    1
   11     9    12    1
   12    12    13    1
   13    12    14    1
   14    12    15    1
   15    15    16    1
   16    15    17    1
   17    15    18    1
   18    18    19    1
   19    18    20    2
@<TRIPOS>SUBSTRUCTURE
       1 MOL1            1 RESIDUE      1      MOL     
@<SCITEGIC>MOL_PROPERTY
VConf Rank
SciTegic.value.IntegerValue
908

@<SCITEGIC>MOL_PROPERTY
Conf_Id
SciTegic.value.IntegerValue
41

@<SCITEGIC>MOL_PROPERTY
Delta U+W
SciTegic.value.DoubleValue
-0.634

@<SCITEGIC>MOL_PROPERTY
U+W
SciTegic.value.DoubleValue
-52.379

@<SCITEGIC>MOL_PROPERTY
Grad RMS
SciTegic.value.DoubleValue
0.000000

@<SCITEGIC>MOL_PROPERTY
U
SciTegic.value.DoubleValue
7.828

@<SCITEGIC>MOL_PROPERTY
W
SciTegic.value.DoubleValue
-60.207

@<SCITEGIC>MOL_PROPERTY
W(PB)
SciTegic.value.DoubleValue
-62.449

@<SCITEGIC>MOL_PROPERTY
W(SA)
SciTegic.value.DoubleValue
2.242

@<SCITEGIC>MOL_PROPERTY
Valence
SciTegic.value.DoubleValue
9.300

@<SCITEGIC>MOL_PROPERTY
Coulomb
SciTegic.value.DoubleValue
-2.080

@<SCITEGIC>MOL_PROPERTY
VdW
SciTegic.value.DoubleValue
0.608

@<SCITEGIC>MOL_PROPERTY
VdW6
SciTegic.value.DoubleValue
-6.341

@<SCITEGIC>MOL_PROPERTY
VdW12
SciTegic.value.DoubleValue
6.949

@<SCITEGIC>MOL_PROPERTY
Bond
SciTegic.value.DoubleValue
0.103

@<SCITEGIC>MOL_PROPERTY
Angle
SciTegic.value.DoubleValue
2.334

@<SCITEGIC>MOL_PROPERTY
Pdih
SciTegic.value.DoubleValue
6.862

@<SCITEGIC>MOL_PROPERTY
Idih
SciTegic.value.DoubleValue
0.001

@<SCITEGIC>MOL_PROPERTY
Tether
SciTegic.value.DoubleValue
0.000

@<TRIPOS>MOLECULE
guest-s22_confgen4.mol2 : confsearch ligand conformer 909
          20          19           1
SMALL
USER_CHARGES
 
@<TRIPOS>ATOM
       1    C1      19.280776   15.668189   23.253711 C.2        1 MOL1        -0.2535
       2    H1      19.496321   14.605150   23.160287 H          1 MOL1         0.0845
       3    H2      18.797952   16.002878   24.170453 H          1 MOL1         0.0845
       4    C2      19.599877   16.525204   22.280358 C.2        1 MOL1        -0.1324
       5    H3      20.083459   16.170172   21.370542 H          1 MOL1         0.0833
       6    C3      19.331345   18.012533   22.338157 C.3        1 MOL1        -0.1813
       7    H4      18.626491   18.240473   23.149082 H          1 MOL1         0.0753
       8    H5      18.853610   18.328194   21.401630 H          1 MOL1         0.0753
       9    C4      20.640248   18.804589   22.554013 C.3        1 MOL1        -0.1855
      10    H6      21.153599   18.406329   23.440026 H          1 MOL1         0.0755
      11    H7      21.316077   18.635790   21.704296 H          1 MOL1         0.0755
      12    C5      20.418143   20.324008   22.754581 C.3        1 MOL1        -0.1855
      13    H8      21.384942   20.796273   22.977408 H          1 MOL1         0.0755
      14    H9      19.786945   20.483622   23.639182 H          1 MOL1         0.0755
      15    C6      19.779741   21.046089   21.536606 C.3        1 MOL1        -0.1958
      16    H10     18.778854   20.649330   21.332126 H          1 MOL1         0.0753
      17    H11     19.649620   22.108755   21.772222 H          1 MOL1         0.0753
      18    C7      20.608981   20.963020   20.258249 C.2        1 MOL1         0.6174
      19    O1      21.631999   21.616461   20.196159 O.co2      1 MOL1        -0.6695
      20    O2      20.202220   20.262515   19.352273 O.co2      1 MOL1        -0.6695
@<TRIPOS>BOND
    1     1     2    1
    2     1     3    1
    3     1     4    2
    4     4     5    1
    5     4     6    1
    6     6     7    1
    7     6     8    1
    8     6     9    1
    9     9    10    1
   10     9    11    1
   11     9    12    1
   12    12    13    1
   13    12    14    1
   14    12    15    1
   15    15    16    1
   16    15    17    1
   17    15    18    1
   18    18    19    1
   19    18    20    2
@<TRIPOS>SUBSTRUCTURE
       1 MOL1            1 RESIDUE      1      MOL     
@<SCITEGIC>MOL_PROPERTY
VConf Rank
SciTegic.value.IntegerValue
909

@<SCITEGIC>MOL_PROPERTY
Conf_Id
SciTegic.value.IntegerValue
84

@<SCITEGIC>MOL_PROPERTY
Delta U+W
SciTegic.value.DoubleValue
0.942

@<SCITEGIC>MOL_PROPERTY
U+W
SciTegic.value.DoubleValue
-50.803

@<SCITEGIC>MOL_PROPERTY
Grad RMS
SciTegic.value.DoubleValue
0.000000

@<SCITEGIC>MOL_PROPERTY
U
SciTegic.value.DoubleValue
10.196

@<SCITEGIC>MOL_PROPERTY
W
SciTegic.value.DoubleValue
-60.999

@<SCITEGIC>MOL_PROPERTY
W(PB)
SciTegic.value.DoubleValue
-63.182

@<SCITEGIC>MOL_PROPERTY
W(SA)
SciTegic.value.DoubleValue
2.182

@<SCITEGIC>MOL_PROPERTY
Valence
SciTegic.value.DoubleValue
9.837

@<SCITEGIC>MOL_PROPERTY
Coulomb
SciTegic.value.DoubleValue
0.032

@<SCITEGIC>MOL_PROPERTY
VdW
SciTegic.value.DoubleValue
0.328

@<SCITEGIC>MOL_PROPERTY
VdW6
SciTegic.value.DoubleValue
-7.642

@<SCITEGIC>MOL_PROPERTY
VdW12
SciTegic.value.DoubleValue
7.969

@<SCITEGIC>MOL_PROPERTY
Bond
SciTegic.value.DoubleValue
0.151

@<SCITEGIC>MOL_PROPERTY
Angle
SciTegic.value.DoubleValue
2.748

@<SCITEGIC>MOL_PROPERTY
Pdih
SciTegic.value.DoubleValue
6.937

@<SCITEGIC>MOL_PROPERTY
Idih
SciTegic.value.DoubleValue
0.001

@<SCITEGIC>MOL_PROPERTY
Tether
SciTegic.value.DoubleValue
0.000

@<TRIPOS>MOLECULE
guest-s22_confgen4.mol2 : confsearch ligand conformer 910
          20          19           1
SMALL
USER_CHARGES
 
@<TRIPOS>ATOM
       1    C1      20.603904   16.092918   20.951707 C.2        1 MOL1        -0.2535
       2    H1      21.139424   15.536016   20.184675 H          1 MOL1         0.0845
       3    H2      20.793463   15.824758   21.989850 H          1 MOL1         0.0845
       4    C2      19.750596   17.067857   20.627634 C.2        1 MOL1        -0.1324
       5    H3      19.575707   17.321269   19.582248 H          1 MOL1         0.0833
       6    C3      18.971610   17.882607   21.636112 C.3        1 MOL1        -0.1813
       7    H4      19.007203   17.401208   22.622914 H          1 MOL1         0.0753
       8    H5      17.914606   17.919689   21.340392 H          1 MOL1         0.0753
       9    C4      19.529824   19.317093   21.744307 C.3        1 MOL1        -0.1855
      10    H6      20.588905   19.272213   22.034157 H          1 MOL1         0.0755
      11    H7      19.490754   19.800631   20.758552 H          1 MOL1         0.0755
      12    C5      18.742080   20.164380   22.768953 C.3        1 MOL1        -0.1855
      13    H8      18.790906   19.690822   23.759443 H          1 MOL1         0.0755
      14    H9      17.682171   20.187424   22.481497 H          1 MOL1         0.0755
      15    C6      19.267901   21.619833   22.869227 C.3        1 MOL1        -0.1958
      16    H10     19.250836   22.097781   21.882248 H          1 MOL1         0.0753
      17    H11     18.604796   22.205242   23.516964 H          1 MOL1         0.0753
      18    C7      20.678659   21.731640   23.440326 C.2        1 MOL1         0.6174
      19    O1      21.591531   21.976211   22.676243 O.co2      1 MOL1        -0.6695
      20    O2      20.824696   21.583821   24.637794 O.co2      1 MOL1        -0.6695
@<TRIPOS>BOND
    1     1     2    1
    2     1     3    1
    3     1     4    2
    4     4     5    1
    5     4     6    1
    6     6     7    1
    7     6     8    1
    8     6     9    1
    9     9    10    1
   10     9    11    1
   11     9    12    1
   12    12    13    1
   13    12    14    1
   14    12    15    1
   15    15    16    1
   16    15    17    1
   17    15    18    1
   18    18    19    1
   19    18    20    2
@<TRIPOS>SUBSTRUCTURE
       1 MOL1            1 RESIDUE      1      MOL     
@<SCITEGIC>MOL_PROPERTY
VConf Rank
SciTegic.value.IntegerValue
910

@<SCITEGIC>MOL_PROPERTY
Conf_Id
SciTegic.value.IntegerValue
81

@<SCITEGIC>MOL_PROPERTY
Delta U+W
SciTegic.value.DoubleValue
-0.051

@<SCITEGIC>MOL_PROPERTY
U+W
SciTegic.value.DoubleValue
-51.796

@<SCITEGIC>MOL_PROPERTY
Grad RMS
SciTegic.value.DoubleValue
0.000000

@<SCITEGIC>MOL_PROPERTY
U
SciTegic.value.DoubleValue
9.412

@<SCITEGIC>MOL_PROPERTY
W
SciTegic.value.DoubleValue
-61.209

@<SCITEGIC>MOL_PROPERTY
W(PB)
SciTegic.value.DoubleValue
-63.452

@<SCITEGIC>MOL_PROPERTY
W(SA)
SciTegic.value.DoubleValue
2.243

@<SCITEGIC>MOL_PROPERTY
Valence
SciTegic.value.DoubleValue
9.329

@<SCITEGIC>MOL_PROPERTY
Coulomb
SciTegic.value.DoubleValue
-0.323

@<SCITEGIC>MOL_PROPERTY
VdW
SciTegic.value.DoubleValue
0.406

@<SCITEGIC>MOL_PROPERTY
VdW6
SciTegic.value.DoubleValue
-6.640

@<SCITEGIC>MOL_PROPERTY
VdW12
SciTegic.value.DoubleValue
7.046

@<SCITEGIC>MOL_PROPERTY
Bond
SciTegic.value.DoubleValue
0.105

@<SCITEGIC>MOL_PROPERTY
Angle
SciTegic.value.DoubleValue
2.401

@<SCITEGIC>MOL_PROPERTY
Pdih
SciTegic.value.DoubleValue
6.823

@<SCITEGIC>MOL_PROPERTY
Idih
SciTegic.value.DoubleValue
0.000

@<SCITEGIC>MOL_PROPERTY
Tether
SciTegic.value.DoubleValue
0.000

@<TRIPOS>MOLECULE
guest-s22_confgen4.mol2 : confsearch ligand conformer 911
          20          19           1
SMALL
USER_CHARGES
 
@<TRIPOS>ATOM
       1    C1      22.887450   19.063217   21.963760 C.2        1 MOL1        -0.2535
       2    H1      23.229485   18.542313   22.856582 H          1 MOL1         0.0845
       3    H2      23.609665   19.212537   21.162977 H          1 MOL1         0.0845
       4    C2      21.630798   19.500957   21.850239 C.2        1 MOL1        -0.1324
       5    H3      21.309329   20.022210   20.949030 H          1 MOL1         0.0833
       6    C3      20.574704   19.334851   22.921966 C.3        1 MOL1        -0.1813
       7    H4      20.023250   20.274432   23.056201 H          1 MOL1         0.0753
       8    H5      21.056227   19.130198   23.887610 H          1 MOL1         0.0753
       9    C4      19.591611   18.181351   22.609437 C.3        1 MOL1        -0.1855
      10    H6      20.154616   17.239038   22.565754 H          1 MOL1         0.0755
      11    H7      18.887996   18.076700   23.446662 H          1 MOL1         0.0755
      12    C5      18.794669   18.348398   21.289942 C.3        1 MOL1        -0.1855
      13    H8      18.152184   17.467672   21.153132 H          1 MOL1         0.0755
      14    H9      19.489817   18.351713   20.439969 H          1 MOL1         0.0755
      15    C6      17.910280   19.623735   21.230273 C.3        1 MOL1        -0.1958
      16    H10     18.529446   20.526145   21.287987 H          1 MOL1         0.0753
      17    H11     17.394497   19.662850   20.263813 H          1 MOL1         0.0753
      18    C7      16.842628   19.692758   22.318344 C.2        1 MOL1         0.6174
      19    O1      16.985930   20.499319   23.216126 O.co2      1 MOL1        -0.6695
      20    O2      15.885647   18.948646   22.229213 O.co2      1 MOL1        -0.6695
@<TRIPOS>BOND
    1     1     2    1
    2     1     3    1
    3     1     4    2
    4     4     5    1
    5     4     6    1
    6     6     7    1
    7     6     8    1
    8     6     9    1
    9     9    10    1
   10     9    11    1
   11     9    12    1
   12    12    13    1
   13    12    14    1
   14    12    15    1
   15    15    16    1
   16    15    17    1
   17    15    18    1
   18    18    19    1
   19    18    20    2
@<TRIPOS>SUBSTRUCTURE
       1 MOL1            1 RESIDUE      1      MOL     
@<SCITEGIC>MOL_PROPERTY
VConf Rank
SciTegic.value.IntegerValue
911

@<SCITEGIC>MOL_PROPERTY
Conf_Id
SciTegic.value.IntegerValue
86

@<SCITEGIC>MOL_PROPERTY
Delta U+W
SciTegic.value.DoubleValue
1.248

@<SCITEGIC>MOL_PROPERTY
U+W
SciTegic.value.DoubleValue
-50.498

@<SCITEGIC>MOL_PROPERTY
Grad RMS
SciTegic.value.DoubleValue
0.000000

@<SCITEGIC>MOL_PROPERTY
U
SciTegic.value.DoubleValue
10.404

@<SCITEGIC>MOL_PROPERTY
W
SciTegic.value.DoubleValue
-60.901

@<SCITEGIC>MOL_PROPERTY
W(PB)
SciTegic.value.DoubleValue
-63.061

@<SCITEGIC>MOL_PROPERTY
W(SA)
SciTegic.value.DoubleValue
2.159

@<SCITEGIC>MOL_PROPERTY
Valence
SciTegic.value.DoubleValue
10.021

@<SCITEGIC>MOL_PROPERTY
Coulomb
SciTegic.value.DoubleValue
0.094

@<SCITEGIC>MOL_PROPERTY
VdW
SciTegic.value.DoubleValue
0.289

@<SCITEGIC>MOL_PROPERTY
VdW6
SciTegic.value.DoubleValue
-8.409

@<SCITEGIC>MOL_PROPERTY
VdW12
SciTegic.value.DoubleValue
8.698

@<SCITEGIC>MOL_PROPERTY
Bond
SciTegic.value.DoubleValue
0.179

@<SCITEGIC>MOL_PROPERTY
Angle
SciTegic.value.DoubleValue
2.939

@<SCITEGIC>MOL_PROPERTY
Pdih
SciTegic.value.DoubleValue
6.902

@<SCITEGIC>MOL_PROPERTY
Idih
SciTegic.value.DoubleValue
0.001

@<SCITEGIC>MOL_PROPERTY
Tether
SciTegic.value.DoubleValue
0.000

@<TRIPOS>MOLECULE
guest-s22_confgen4.mol2 : confsearch ligand conformer 912
          20          19           1
SMALL
USER_CHARGES
 
@<TRIPOS>ATOM
       1    C1      21.154487   20.136897   24.623766 C.2        1 MOL1        -0.2535
       2    H1      21.903387   20.872779   24.911397 H          1 MOL1         0.0845
       3    H2      20.159993   20.238881   25.055047 H          1 MOL1         0.0845
       4    C2      21.447254   19.150794   23.771761 C.2        1 MOL1        -0.1324
       5    H3      22.448383   19.067810   23.349572 H          1 MOL1         0.0833
       6    C3      20.460493   18.092920   23.325379 C.3        1 MOL1        -0.1813
       7    H4      19.552007   18.126330   23.941980 H          1 MOL1         0.0753
       8    H5      20.903990   17.100506   23.481091 H          1 MOL1         0.0753
       9    C4      20.077833   18.239124   21.835326 C.3        1 MOL1        -0.1855
      10    H6      20.986252   18.209740   21.218209 H          1 MOL1         0.0755
      11    H7      19.471231   17.371876   21.540497 H          1 MOL1         0.0755
      12    C5      19.289707   19.538678   21.546163 C.3        1 MOL1        -0.1855
      13    H8      19.897675   20.406749   21.834078 H          1 MOL1         0.0755
      14    H9      18.383188   19.569499   22.166345 H          1 MOL1         0.0755
      15    C6      18.896355   19.677991   20.052544 C.3        1 MOL1        -0.1958
      16    H10     18.452002   20.665538   19.881539 H          1 MOL1         0.0753
      17    H11     19.789215   19.617364   19.418586 H          1 MOL1         0.0753
      18    C7      17.888653   18.635653   19.576316 C.2        1 MOL1         0.6174
      19    O1      16.724858   18.775953   19.897288 O.co2      1 MOL1        -0.6695
      20    O2      18.290744   17.718075   18.888230 O.co2      1 MOL1        -0.6695
@<TRIPOS>BOND
    1     1     2    1
    2     1     3    1
    3     1     4    2
    4     4     5    1
    5     4     6    1
    6     6     7    1
    7     6     8    1
    8     6     9    1
    9     9    10    1
   10     9    11    1
   11     9    12    1
   12    12    13    1
   13    12    14    1
   14    12    15    1
   15    15    16    1
   16    15    17    1
   17    15    18    1
   18    18    19    1
   19    18    20    2
@<TRIPOS>SUBSTRUCTURE
       1 MOL1            1 RESIDUE      1      MOL     
@<SCITEGIC>MOL_PROPERTY
VConf Rank
SciTegic.value.IntegerValue
912

@<SCITEGIC>MOL_PROPERTY
Conf_Id
SciTegic.value.IntegerValue
28

@<SCITEGIC>MOL_PROPERTY
Delta U+W
SciTegic.value.DoubleValue
0.446

@<SCITEGIC>MOL_PROPERTY
U+W
SciTegic.value.DoubleValue
-51.299

@<SCITEGIC>MOL_PROPERTY
Grad RMS
SciTegic.value.DoubleValue
0.000000

@<SCITEGIC>MOL_PROPERTY
U
SciTegic.value.DoubleValue
9.295

@<SCITEGIC>MOL_PROPERTY
W
SciTegic.value.DoubleValue
-60.594

@<SCITEGIC>MOL_PROPERTY
W(PB)
SciTegic.value.DoubleValue
-62.806

@<SCITEGIC>MOL_PROPERTY
W(SA)
SciTegic.value.DoubleValue
2.212

@<SCITEGIC>MOL_PROPERTY
Valence
SciTegic.value.DoubleValue
9.495

@<SCITEGIC>MOL_PROPERTY
Coulomb
SciTegic.value.DoubleValue
-0.610

@<SCITEGIC>MOL_PROPERTY
VdW
SciTegic.value.DoubleValue
0.409

@<SCITEGIC>MOL_PROPERTY
VdW6
SciTegic.value.DoubleValue
-7.332

@<SCITEGIC>MOL_PROPERTY
VdW12
SciTegic.value.DoubleValue
7.741

@<SCITEGIC>MOL_PROPERTY
Bond
SciTegic.value.DoubleValue
0.126

@<SCITEGIC>MOL_PROPERTY
Angle
SciTegic.value.DoubleValue
2.497

@<SCITEGIC>MOL_PROPERTY
Pdih
SciTegic.value.DoubleValue
6.872

@<SCITEGIC>MOL_PROPERTY
Idih
SciTegic.value.DoubleValue
0.000

@<SCITEGIC>MOL_PROPERTY
Tether
SciTegic.value.DoubleValue
0.000

@<TRIPOS>MOLECULE
guest-s22_confgen4.mol2 : confsearch ligand conformer 913
          20          19           1
SMALL
USER_CHARGES
 
@<TRIPOS>ATOM
       1    C1      19.531310   20.379865   19.242168 C.2        1 MOL1        -0.2535
       2    H1      20.555232   20.555323   19.565109 H          1 MOL1         0.0845
       3    H2      19.302773   20.588551   18.198443 H          1 MOL1         0.0845
       4    C2      18.584573   19.925961   20.071406 C.2        1 MOL1        -0.1324
       5    H3      17.576682   19.767435   19.688569 H          1 MOL1         0.0833
       6    C3      18.750107   19.593006   21.544904 C.3        1 MOL1        -0.1813
       7    H4      18.532868   18.526346   21.685267 H          1 MOL1         0.0753
       8    H5      17.982477   20.132725   22.115168 H          1 MOL1         0.0753
       9    C4      20.142547   19.923588   22.136873 C.3        1 MOL1        -0.1855
      10    H6      20.910575   19.321329   21.632303 H          1 MOL1         0.0755
      11    H7      20.379742   20.975510   21.927368 H          1 MOL1         0.0755
      12    C5      20.230973   19.703358   23.667474 C.3        1 MOL1        -0.1855
      13    H8      19.494478   20.345823   24.168674 H          1 MOL1         0.0755
      14    H9      21.217882   20.038209   24.015746 H          1 MOL1         0.0755
      15    C6      20.016186   18.233269   24.120643 C.3        1 MOL1        -0.1958
      16    H10     20.085161   18.177149   25.213232 H          1 MOL1         0.0753
      17    H11     19.009956   17.889215   23.856017 H          1 MOL1         0.0753
      18    C7      21.034932   17.249748   23.551653 C.2        1 MOL1         0.6174
      19    O1      22.177008   17.305767   23.963935 O.co2      1 MOL1        -0.6695
      20    O2      20.656243   16.440566   22.727835 O.co2      1 MOL1        -0.6695
@<TRIPOS>BOND
    1     1     2    1
    2     1     3    1
    3     1     4    2
    4     4     5    1
    5     4     6    1
    6     6     7    1
    7     6     8    1
    8     6     9    1
    9     9    10    1
   10     9    11    1
   11     9    12    1
   12    12    13    1
   13    12    14    1
   14    12    15    1
   15    15    16    1
   16    15    17    1
   17    15    18    1
   18    18    19    1
   19    18    20    2
@<TRIPOS>SUBSTRUCTURE
       1 MOL1            1 RESIDUE      1      MOL     
@<SCITEGIC>MOL_PROPERTY
VConf Rank
SciTegic.value.IntegerValue
913

@<SCITEGIC>MOL_PROPERTY
Conf_Id
SciTegic.value.IntegerValue
53

@<SCITEGIC>MOL_PROPERTY
Delta U+W
SciTegic.value.DoubleValue
0.549

@<SCITEGIC>MOL_PROPERTY
U+W
SciTegic.value.DoubleValue
-51.197

@<SCITEGIC>MOL_PROPERTY
Grad RMS
SciTegic.value.DoubleValue
0.000000

@<SCITEGIC>MOL_PROPERTY
U
SciTegic.value.DoubleValue
10.870

@<SCITEGIC>MOL_PROPERTY
W
SciTegic.value.DoubleValue
-62.067

@<SCITEGIC>MOL_PROPERTY
W(PB)
SciTegic.value.DoubleValue
-64.228

@<SCITEGIC>MOL_PROPERTY
W(SA)
SciTegic.value.DoubleValue
2.161

@<SCITEGIC>MOL_PROPERTY
Valence
SciTegic.value.DoubleValue
8.803

@<SCITEGIC>MOL_PROPERTY
Coulomb
SciTegic.value.DoubleValue
1.020

@<SCITEGIC>MOL_PROPERTY
VdW
SciTegic.value.DoubleValue
1.048

@<SCITEGIC>MOL_PROPERTY
VdW6
SciTegic.value.DoubleValue
-8.312

@<SCITEGIC>MOL_PROPERTY
VdW12
SciTegic.value.DoubleValue
9.360

@<SCITEGIC>MOL_PROPERTY
Bond
SciTegic.value.DoubleValue
0.212

@<SCITEGIC>MOL_PROPERTY
Angle
SciTegic.value.DoubleValue
3.379

@<SCITEGIC>MOL_PROPERTY
Pdih
SciTegic.value.DoubleValue
5.211

@<SCITEGIC>MOL_PROPERTY
Idih
SciTegic.value.DoubleValue
0.001

@<SCITEGIC>MOL_PROPERTY
Tether
SciTegic.value.DoubleValue
0.000

@<TRIPOS>MOLECULE
guest-s22_confgen4.mol2 : confsearch ligand conformer 914
          20          19           1
SMALL
USER_CHARGES
 
@<TRIPOS>ATOM
       1    C1      17.911290   16.876145   21.223962 C.2        1 MOL1        -0.2535
       2    H1      18.103895   16.549536   22.243535 H          1 MOL1         0.0845
       3    H2      17.654689   16.106174   20.498549 H          1 MOL1         0.0845
       4    C2      17.976610   18.162555   20.864048 C.2        1 MOL1        -0.1324
       5    H3      17.771535   18.436599   19.829569 H          1 MOL1         0.0833
       6    C3      18.326727   19.334796   21.765801 C.3        1 MOL1        -0.1813
       7    H4      17.396604   19.822072   22.086480 H          1 MOL1         0.0753
       8    H5      18.851059   20.096202   21.174263 H          1 MOL1         0.0753
       9    C4      19.181979   18.996608   23.014778 C.3        1 MOL1        -0.1855
      10    H6      19.300377   19.909244   23.614707 H          1 MOL1         0.0755
      11    H7      18.632343   18.293332   23.654017 H          1 MOL1         0.0755
      12    C5      20.586466   18.415999   22.703062 C.3        1 MOL1        -0.1855
      13    H8      20.481947   17.464316   22.166469 H          1 MOL1         0.0755
      14    H9      21.086524   18.177191   23.651708 H          1 MOL1         0.0755
      15    C6      21.505794   19.359723   21.880541 C.3        1 MOL1        -0.1958
      16    H10     22.468749   18.865959   21.705954 H          1 MOL1         0.0753
      17    H11     21.073982   19.553566   20.892125 H          1 MOL1         0.0753
      18    C7      21.796479   20.695270   22.558952 C.2        1 MOL1         0.6174
      19    O1      21.281302   21.697416   22.103483 O.co2      1 MOL1        -0.6695
      20    O2      22.546217   20.700084   23.515707 O.co2      1 MOL1        -0.6695
@<TRIPOS>BOND
    1     1     2    1
    2     1     3    1
    3     1     4    2
    4     4     5    1
    5     4     6    1
    6     6     7    1
    7     6     8    1
    8     6     9    1
    9     9    10    1
   10     9    11    1
   11     9    12    1
   12    12    13    1
   13    12    14    1
   14    12    15    1
   15    15    16    1
   16    15    17    1
   17    15    18    1
   18    18    19    1
   19    18    20    2
@<TRIPOS>SUBSTRUCTURE
       1 MOL1            1 RESIDUE      1      MOL     
@<SCITEGIC>MOL_PROPERTY
VConf Rank
SciTegic.value.IntegerValue
914

@<SCITEGIC>MOL_PROPERTY
Conf_Id
SciTegic.value.IntegerValue
66

@<SCITEGIC>MOL_PROPERTY
Delta U+W
SciTegic.value.DoubleValue
1.737

@<SCITEGIC>MOL_PROPERTY
U+W
SciTegic.value.DoubleValue
-50.008

@<SCITEGIC>MOL_PROPERTY
Grad RMS
SciTegic.value.DoubleValue
0.000000

@<SCITEGIC>MOL_PROPERTY
U
SciTegic.value.DoubleValue
11.091

@<SCITEGIC>MOL_PROPERTY
W
SciTegic.value.DoubleValue
-61.099

@<SCITEGIC>MOL_PROPERTY
W(PB)
SciTegic.value.DoubleValue
-63.213

@<SCITEGIC>MOL_PROPERTY
W(SA)
SciTegic.value.DoubleValue
2.114

@<SCITEGIC>MOL_PROPERTY
Valence
SciTegic.value.DoubleValue
9.664

@<SCITEGIC>MOL_PROPERTY
Coulomb
SciTegic.value.DoubleValue
0.658

@<SCITEGIC>MOL_PROPERTY
VdW
SciTegic.value.DoubleValue
0.769

@<SCITEGIC>MOL_PROPERTY
VdW6
SciTegic.value.DoubleValue
-9.171

@<SCITEGIC>MOL_PROPERTY
VdW12
SciTegic.value.DoubleValue
9.940

@<SCITEGIC>MOL_PROPERTY
Bond
SciTegic.value.DoubleValue
0.244

@<SCITEGIC>MOL_PROPERTY
Angle
SciTegic.value.DoubleValue
3.658

@<SCITEGIC>MOL_PROPERTY
Pdih
SciTegic.value.DoubleValue
5.762

@<SCITEGIC>MOL_PROPERTY
Idih
SciTegic.value.DoubleValue
0.001

@<SCITEGIC>MOL_PROPERTY
Tether
SciTegic.value.DoubleValue
0.000

@<TRIPOS>MOLECULE
guest-s22_confgen4.mol2 : confsearch ligand conformer 915
          20          19           1
SMALL
USER_CHARGES
 
@<TRIPOS>ATOM
       1    C1      19.317758   19.186556   19.274936 C.2        1 MOL1        -0.2535
       2    H1      18.530378   19.861473   19.603117 H          1 MOL1         0.0845
       3    H2      19.835709   19.443734   18.352699 H          1 MOL1         0.0845
       4    C2      19.642941   18.084005   19.958688 C.2        1 MOL1        -0.1324
       5    H3      20.438686   17.441483   19.582795 H          1 MOL1         0.0833
       6    C3      19.012941   17.605893   21.256805 C.3        1 MOL1        -0.1813
       7    H4      19.783492   17.118621   21.867106 H          1 MOL1         0.0753
       8    H5      18.294131   16.809110   21.024355 H          1 MOL1         0.0753
       9    C4      18.308201   18.693293   22.109577 C.3        1 MOL1        -0.1855
      10    H6      17.496718   19.146043   21.524765 H          1 MOL1         0.0755
      11    H7      17.820587   18.207572   22.965695 H          1 MOL1         0.0755
      12    C5      19.244715   19.809120   22.639268 C.3        1 MOL1        -0.1855
      13    H8      18.633496   20.564288   23.152407 H          1 MOL1         0.0755
      14    H9      19.731579   20.325780   21.801638 H          1 MOL1         0.0755
      15    C6      20.327384   19.294434   23.623058 C.3        1 MOL1        -0.1958
      16    H10     19.860651   18.731776   24.440204 H          1 MOL1         0.0753
      17    H11     21.019603   18.615561   23.112366 H          1 MOL1         0.0753
      18    C7      21.150458   20.421649   24.236393 C.2        1 MOL1         0.6174
      19    O1      22.173854   20.758191   23.674118 O.co2      1 MOL1        -0.6695
      20    O2      20.738815   20.943797   25.253666 O.co2      1 MOL1        -0.6695
@<TRIPOS>BOND
    1     1     2    1
    2     1     3    1
    3     1     4    2
    4     4     5    1
    5     4     6    1
    6     6     7    1
    7     6     8    1
    8     6     9    1
    9     9    10    1
   10     9    11    1
   11     9    12    1
   12    12    13    1
   13    12    14    1
   14    12    15    1
   15    15    16    1
   16    15    17    1
   17    15    18    1
   18    18    19    1
   19    18    20    2
@<TRIPOS>SUBSTRUCTURE
       1 MOL1            1 RESIDUE      1      MOL     
@<SCITEGIC>MOL_PROPERTY
VConf Rank
SciTegic.value.IntegerValue
915

@<SCITEGIC>MOL_PROPERTY
Conf_Id
SciTegic.value.IntegerValue
64

@<SCITEGIC>MOL_PROPERTY
Delta U+W
SciTegic.value.DoubleValue
0.366

@<SCITEGIC>MOL_PROPERTY
U+W
SciTegic.value.DoubleValue
-51.379

@<SCITEGIC>MOL_PROPERTY
Grad RMS
SciTegic.value.DoubleValue
0.000000

@<SCITEGIC>MOL_PROPERTY
U
SciTegic.value.DoubleValue
10.000

@<SCITEGIC>MOL_PROPERTY
W
SciTegic.value.DoubleValue
-61.379

@<SCITEGIC>MOL_PROPERTY
W(PB)
SciTegic.value.DoubleValue
-63.541

@<SCITEGIC>MOL_PROPERTY
W(SA)
SciTegic.value.DoubleValue
2.162

@<SCITEGIC>MOL_PROPERTY
Valence
SciTegic.value.DoubleValue
9.398

@<SCITEGIC>MOL_PROPERTY
Coulomb
SciTegic.value.DoubleValue
-0.504

@<SCITEGIC>MOL_PROPERTY
VdW
SciTegic.value.DoubleValue
1.105

@<SCITEGIC>MOL_PROPERTY
VdW6
SciTegic.value.DoubleValue
-7.975

@<SCITEGIC>MOL_PROPERTY
VdW12
SciTegic.value.DoubleValue
9.080

@<SCITEGIC>MOL_PROPERTY
Bond
SciTegic.value.DoubleValue
0.216

@<SCITEGIC>MOL_PROPERTY
Angle
SciTegic.value.DoubleValue
3.417

@<SCITEGIC>MOL_PROPERTY
Pdih
SciTegic.value.DoubleValue
5.765

@<SCITEGIC>MOL_PROPERTY
Idih
SciTegic.value.DoubleValue
0.001

@<SCITEGIC>MOL_PROPERTY
Tether
SciTegic.value.DoubleValue
0.000

@<TRIPOS>MOLECULE
guest-s22_confgen4.mol2 : confsearch ligand conformer 916
          20          19           1
SMALL
USER_CHARGES
 
@<TRIPOS>ATOM
       1    C1      22.245495   20.274011   23.479765 C.2        1 MOL1        -0.2535
       2    H1      21.545501   20.580331   24.255389 H          1 MOL1         0.0845
       3    H2      23.037779   20.972271   23.215522 H          1 MOL1         0.0845
       4    C2      22.137336   19.090132   22.870877 C.2        1 MOL1        -0.1324
       5    H3      22.847030   18.803736   22.095181 H          1 MOL1         0.0833
       6    C3      21.064052   18.069160   23.183376 C.3        1 MOL1        -0.1813
       7    H4      20.525430   18.342841   24.100796 H          1 MOL1         0.0753
       8    H5      21.538637   17.098784   23.380815 H          1 MOL1         0.0753
       9    C4      20.056559   17.904500   22.023296 C.3        1 MOL1        -0.1855
      10    H6      20.595447   17.631441   21.105623 H          1 MOL1         0.0755
      11    H7      19.383781   17.067226   22.254000 H          1 MOL1         0.0755
      12    C5      19.216310   19.178584   21.777789 C.3        1 MOL1        -0.1855
      13    H8      19.876491   20.018046   21.519536 H          1 MOL1         0.0755
      14    H9      18.691738   19.459555   22.701460 H          1 MOL1         0.0755
      15    C6      18.182621   18.977354   20.642442 C.3        1 MOL1        -0.1958
      16    H10     18.692785   18.708377   19.709719 H          1 MOL1         0.0753
      17    H11     17.503207   18.153032   20.890185 H          1 MOL1         0.0753
      18    C7      17.341113   20.221362   20.380901 C.2        1 MOL1         0.6174
      19    O1      16.318654   20.367096   21.021282 O.co2      1 MOL1        -0.6695
      20    O2      17.737162   21.018775   19.553877 O.co2      1 MOL1        -0.6695
@<TRIPOS>BOND
    1     1     2    1
    2     1     3    1
    3     1     4    2
    4     4     5    1
    5     4     6    1
    6     6     7    1
    7     6     8    1
    8     6     9    1
    9     9    10    1
   10     9    11    1
   11     9    12    1
   12    12    13    1
   13    12    14    1
   14    12    15    1
   15    15    16    1
   16    15    17    1
   17    15    18    1
   18    18    19    1
   19    18    20    2
@<TRIPOS>SUBSTRUCTURE
       1 MOL1            1 RESIDUE      1      MOL     
@<SCITEGIC>MOL_PROPERTY
VConf Rank
SciTegic.value.IntegerValue
916

@<SCITEGIC>MOL_PROPERTY
Conf_Id
SciTegic.value.IntegerValue
42

@<SCITEGIC>MOL_PROPERTY
Delta U+W
SciTegic.value.DoubleValue
-0.601

@<SCITEGIC>MOL_PROPERTY
U+W
SciTegic.value.DoubleValue
-52.347

@<SCITEGIC>MOL_PROPERTY
Grad RMS
SciTegic.value.DoubleValue
0.000000

@<SCITEGIC>MOL_PROPERTY
U
SciTegic.value.DoubleValue
8.428

@<SCITEGIC>MOL_PROPERTY
W
SciTegic.value.DoubleValue
-60.774

@<SCITEGIC>MOL_PROPERTY
W(PB)
SciTegic.value.DoubleValue
-62.982

@<SCITEGIC>MOL_PROPERTY
W(SA)
SciTegic.value.DoubleValue
2.208

@<SCITEGIC>MOL_PROPERTY
Valence
SciTegic.value.DoubleValue
9.231

@<SCITEGIC>MOL_PROPERTY
Coulomb
SciTegic.value.DoubleValue
-1.304

@<SCITEGIC>MOL_PROPERTY
VdW
SciTegic.value.DoubleValue
0.501

@<SCITEGIC>MOL_PROPERTY
VdW6
SciTegic.value.DoubleValue
-6.515

@<SCITEGIC>MOL_PROPERTY
VdW12
SciTegic.value.DoubleValue
7.016

@<SCITEGIC>MOL_PROPERTY
Bond
SciTegic.value.DoubleValue
0.103

@<SCITEGIC>MOL_PROPERTY
Angle
SciTegic.value.DoubleValue
2.328

@<SCITEGIC>MOL_PROPERTY
Pdih
SciTegic.value.DoubleValue
6.799

@<SCITEGIC>MOL_PROPERTY
Idih
SciTegic.value.DoubleValue
0.000

@<SCITEGIC>MOL_PROPERTY
Tether
SciTegic.value.DoubleValue
0.000

@<TRIPOS>MOLECULE
guest-s22_confgen4.mol2 : confsearch ligand conformer 917
          20          19           1
SMALL
USER_CHARGES
 
@<TRIPOS>ATOM
       1    C1      21.579676   20.918088   20.439037 C.2        1 MOL1        -0.2535
       2    H1      21.312447   20.443724   19.496189 H          1 MOL1         0.0845
       3    H2      22.623038   21.192934   20.583785 H          1 MOL1         0.0845
       4    C2      20.666649   21.151802   21.385495 C.2        1 MOL1        -0.1324
       5    H3      20.955509   21.625175   22.323517 H          1 MOL1         0.0833
       6    C3      19.200444   20.797219   21.257365 C.3        1 MOL1        -0.1813
       7    H4      18.960651   20.510710   20.224398 H          1 MOL1         0.0753
       8    H5      18.595450   21.686007   21.480631 H          1 MOL1         0.0753
       9    C4      18.787335   19.659398   22.217919 C.3        1 MOL1        -0.1855
      10    H6      19.021840   19.950869   23.251065 H          1 MOL1         0.0755
      11    H7      17.697455   19.530946   22.168909 H          1 MOL1         0.0755
      12    C5      19.473527   18.314655   21.880167 C.3        1 MOL1        -0.1855
      13    H8      20.564090   18.417674   21.966264 H          1 MOL1         0.0755
      14    H9      19.263355   18.054004   20.834165 H          1 MOL1         0.0755
      15    C6      18.996794   17.156229   22.794279 C.3        1 MOL1        -0.1958
      16    H10     17.906274   17.053872   22.739352 H          1 MOL1         0.0753
      17    H11     19.422690   16.210473   22.439105 H          1 MOL1         0.0753
      18    C7      19.397451   17.316959   24.257990 C.2        1 MOL1         0.6174
      19    O1      18.550202   17.679383   25.050445 O.co2      1 MOL1        -0.6695
      20    O2      20.543091   17.057431   24.569837 O.co2      1 MOL1        -0.6695
@<TRIPOS>BOND
    1     1     2    1
    2     1     3    1
    3     1     4    2
    4     4     5    1
    5     4     6    1
    6     6     7    1
    7     6     8    1
    8     6     9    1
    9     9    10    1
   10     9    11    1
   11     9    12    1
   12    12    13    1
   13    12    14    1
   14    12    15    1
   15    15    16    1
   16    15    17    1
   17    15    18    1
   18    18    19    1
   19    18    20    2
@<TRIPOS>SUBSTRUCTURE
       1 MOL1            1 RESIDUE      1      MOL     
@<SCITEGIC>MOL_PROPERTY
VConf Rank
SciTegic.value.IntegerValue
917

@<SCITEGIC>MOL_PROPERTY
Conf_Id
SciTegic.value.IntegerValue
68

@<SCITEGIC>MOL_PROPERTY
Delta U+W
SciTegic.value.DoubleValue
0.492

@<SCITEGIC>MOL_PROPERTY
U+W
SciTegic.value.DoubleValue
-51.253

@<SCITEGIC>MOL_PROPERTY
Grad RMS
SciTegic.value.DoubleValue
0.000000

@<SCITEGIC>MOL_PROPERTY
U
SciTegic.value.DoubleValue
10.179

@<SCITEGIC>MOL_PROPERTY
W
SciTegic.value.DoubleValue
-61.432

@<SCITEGIC>MOL_PROPERTY
W(PB)
SciTegic.value.DoubleValue
-63.627

@<SCITEGIC>MOL_PROPERTY
W(SA)
SciTegic.value.DoubleValue
2.195

@<SCITEGIC>MOL_PROPERTY
Valence
SciTegic.value.DoubleValue
9.483

@<SCITEGIC>MOL_PROPERTY
Coulomb
SciTegic.value.DoubleValue
0.361

@<SCITEGIC>MOL_PROPERTY
VdW
SciTegic.value.DoubleValue
0.335

@<SCITEGIC>MOL_PROPERTY
VdW6
SciTegic.value.DoubleValue
-7.385

@<SCITEGIC>MOL_PROPERTY
VdW12
SciTegic.value.DoubleValue
7.720

@<SCITEGIC>MOL_PROPERTY
Bond
SciTegic.value.DoubleValue
0.125

@<SCITEGIC>MOL_PROPERTY
Angle
SciTegic.value.DoubleValue
2.487

@<SCITEGIC>MOL_PROPERTY
Pdih
SciTegic.value.DoubleValue
6.870

@<SCITEGIC>MOL_PROPERTY
Idih
SciTegic.value.DoubleValue
0.001

@<SCITEGIC>MOL_PROPERTY
Tether
SciTegic.value.DoubleValue
0.000

@<TRIPOS>MOLECULE
guest-s22_confgen4.mol2 : confsearch ligand conformer 918
          20          19           1
SMALL
USER_CHARGES
 
@<TRIPOS>ATOM
       1    C1      20.122815   18.796266   25.222974 C.2        1 MOL1        -0.2535
       2    H1      19.118850   18.903225   25.630533 H          1 MOL1         0.0845
       3    H2      20.954716   19.110404   25.851015 H          1 MOL1         0.0845
       4    C2      20.329832   18.302705   23.999357 C.2        1 MOL1        -0.1324
       5    H3      21.343199   18.201685   23.611895 H          1 MOL1         0.0833
       6    C3      19.224651   17.840982   23.073524 C.3        1 MOL1        -0.1813
       7    H4      18.310316   17.653506   23.652630 H          1 MOL1         0.0753
       8    H5      19.498573   16.882429   22.612936 H          1 MOL1         0.0753
       9    C4      18.908910   18.877781   21.971918 C.3        1 MOL1        -0.1855
      10    H6      18.019527   18.546917   21.418501 H          1 MOL1         0.0755
      11    H7      18.647113   19.836923   22.440009 H          1 MOL1         0.0755
      12    C5      20.079277   19.076484   20.979704 C.3        1 MOL1        -0.1855
      13    H8      20.364141   18.104106   20.555859 H          1 MOL1         0.0755
      14    H9      20.960958   19.461646   21.509896 H          1 MOL1         0.0755
      15    C6      19.720074   20.044105   19.822320 C.3        1 MOL1        -0.1958
      16    H10     20.536249   20.058711   19.090438 H          1 MOL1         0.0753
      17    H11     18.826703   19.689165   19.294429 H          1 MOL1         0.0753
      18    C7      19.481471   21.483526   20.269506 C.2        1 MOL1         0.6174
      19    O1      20.450502   22.173478   20.518605 O.co2      1 MOL1        -0.6695
      20    O2      18.335595   21.882747   20.338172 O.co2      1 MOL1        -0.6695
@<TRIPOS>BOND
    1     1     2    1
    2     1     3    1
    3     1     4    2
    4     4     5    1
    5     4     6    1
    6     6     7    1
    7     6     8    1
    8     6     9    1
    9     9    10    1
   10     9    11    1
   11     9    12    1
   12    12    13    1
   13    12    14    1
   14    12    15    1
   15    15    16    1
   16    15    17    1
   17    15    18    1
   18    18    19    1
   19    18    20    2
@<TRIPOS>SUBSTRUCTURE
       1 MOL1            1 RESIDUE      1      MOL     
@<SCITEGIC>MOL_PROPERTY
VConf Rank
SciTegic.value.IntegerValue
918

@<SCITEGIC>MOL_PROPERTY
Conf_Id
SciTegic.value.IntegerValue
87

@<SCITEGIC>MOL_PROPERTY
Delta U+W
SciTegic.value.DoubleValue
0.339

@<SCITEGIC>MOL_PROPERTY
U+W
SciTegic.value.DoubleValue
-51.407

@<SCITEGIC>MOL_PROPERTY
Grad RMS
SciTegic.value.DoubleValue
0.000000

@<SCITEGIC>MOL_PROPERTY
U
SciTegic.value.DoubleValue
10.461

@<SCITEGIC>MOL_PROPERTY
W
SciTegic.value.DoubleValue
-61.867

@<SCITEGIC>MOL_PROPERTY
W(PB)
SciTegic.value.DoubleValue
-64.045

@<SCITEGIC>MOL_PROPERTY
W(SA)
SciTegic.value.DoubleValue
2.178

@<SCITEGIC>MOL_PROPERTY
Valence
SciTegic.value.DoubleValue
9.555

@<SCITEGIC>MOL_PROPERTY
Coulomb
SciTegic.value.DoubleValue
0.483

@<SCITEGIC>MOL_PROPERTY
VdW
SciTegic.value.DoubleValue
0.423

@<SCITEGIC>MOL_PROPERTY
VdW6
SciTegic.value.DoubleValue
-7.223

@<SCITEGIC>MOL_PROPERTY
VdW12
SciTegic.value.DoubleValue
7.646

@<SCITEGIC>MOL_PROPERTY
Bond
SciTegic.value.DoubleValue
0.126

@<SCITEGIC>MOL_PROPERTY
Angle
SciTegic.value.DoubleValue
2.492

@<SCITEGIC>MOL_PROPERTY
Pdih
SciTegic.value.DoubleValue
6.936

@<SCITEGIC>MOL_PROPERTY
Idih
SciTegic.value.DoubleValue
0.001

@<SCITEGIC>MOL_PROPERTY
Tether
SciTegic.value.DoubleValue
0.000

@<TRIPOS>MOLECULE
guest-s22_confgen4.mol2 : confsearch ligand conformer 919
          20          19           1
SMALL
USER_CHARGES
 
@<TRIPOS>ATOM
       1    C1      18.828389   21.457075   22.978379 C.2        1 MOL1        -0.2535
       2    H1      17.764055   21.337357   23.174023 H          1 MOL1         0.0845
       3    H2      19.399389   22.075825   23.668399 H          1 MOL1         0.0845
       4    C2      19.413878   20.866232   21.933477 C.2        1 MOL1        -0.1324
       5    H3      20.478526   21.005356   21.749200 H          1 MOL1         0.0833
       6    C3      18.679934   20.004327   20.928463 C.3        1 MOL1        -0.1813
       7    H4      19.261971   19.922102   20.000882 H          1 MOL1         0.0753
       8    H5      17.746734   20.512467   20.650363 H          1 MOL1         0.0753
       9    C4      18.329846   18.592810   21.461592 C.3        1 MOL1        -0.1855
      10    H6      17.915163   18.666592   22.476249 H          1 MOL1         0.0755
      11    H7      17.523598   18.186594   20.835743 H          1 MOL1         0.0755
      12    C5      19.500115   17.577434   21.437465 C.3        1 MOL1        -0.1855
      13    H8      19.921167   17.516689   20.424517 H          1 MOL1         0.0755
      14    H9      19.095899   16.580692   21.662419 H          1 MOL1         0.0755
      15    C6      20.631513   17.885084   22.451641 C.3        1 MOL1        -0.1958
      16    H10     21.159798   18.802149   22.172381 H          1 MOL1         0.0753
      17    H11     20.212145   18.040549   23.452783 H          1 MOL1         0.0753
      18    C7      21.665517   16.768429   22.538513 C.2        1 MOL1         0.6174
      19    O1      22.609864   16.799596   21.774231 O.co2      1 MOL1        -0.6695
      20    O2      21.488856   15.884950   23.354073 O.co2      1 MOL1        -0.6695
@<TRIPOS>BOND
    1     1     2    1
    2     1     3    1
    3     1     4    2
    4     4     5    1
    5     4     6    1
    6     6     7    1
    7     6     8    1
    8     6     9    1
    9     9    10    1
   10     9    11    1
   11     9    12    1
   12    12    13    1
   13    12    14    1
   14    12    15    1
   15    15    16    1
   16    15    17    1
   17    15    18    1
   18    18    19    1
   19    18    20    2
@<TRIPOS>SUBSTRUCTURE
       1 MOL1            1 RESIDUE      1      MOL     
@<SCITEGIC>MOL_PROPERTY
VConf Rank
SciTegic.value.IntegerValue
919

@<SCITEGIC>MOL_PROPERTY
Conf_Id
SciTegic.value.IntegerValue
51

@<SCITEGIC>MOL_PROPERTY
Delta U+W
SciTegic.value.DoubleValue
1.709

@<SCITEGIC>MOL_PROPERTY
U+W
SciTegic.value.DoubleValue
-50.036

@<SCITEGIC>MOL_PROPERTY
Grad RMS
SciTegic.value.DoubleValue
0.000000

@<SCITEGIC>MOL_PROPERTY
U
SciTegic.value.DoubleValue
10.643

@<SCITEGIC>MOL_PROPERTY
W
SciTegic.value.DoubleValue
-60.679

@<SCITEGIC>MOL_PROPERTY
W(PB)
SciTegic.value.DoubleValue
-62.882

@<SCITEGIC>MOL_PROPERTY
W(SA)
SciTegic.value.DoubleValue
2.203

@<SCITEGIC>MOL_PROPERTY
Valence
SciTegic.value.DoubleValue
11.231

@<SCITEGIC>MOL_PROPERTY
Coulomb
SciTegic.value.DoubleValue
-1.077

@<SCITEGIC>MOL_PROPERTY
VdW
SciTegic.value.DoubleValue
0.489

@<SCITEGIC>MOL_PROPERTY
VdW6
SciTegic.value.DoubleValue
-7.546

@<SCITEGIC>MOL_PROPERTY
VdW12
SciTegic.value.DoubleValue
8.035

@<SCITEGIC>MOL_PROPERTY
Bond
SciTegic.value.DoubleValue
0.159

@<SCITEGIC>MOL_PROPERTY
Angle
SciTegic.value.DoubleValue
3.005

@<SCITEGIC>MOL_PROPERTY
Pdih
SciTegic.value.DoubleValue
8.065

@<SCITEGIC>MOL_PROPERTY
Idih
SciTegic.value.DoubleValue
0.002

@<SCITEGIC>MOL_PROPERTY
Tether
SciTegic.value.DoubleValue
0.000

@<TRIPOS>MOLECULE
guest-s22_confgen4.mol2 : confsearch ligand conformer 920
          20          19           1
SMALL
USER_CHARGES
 
@<TRIPOS>ATOM
       1    C1      17.592485   17.187470   22.458698 C.2        1 MOL1        -0.2535
       2    H1      17.816214   16.402614   21.738030 H          1 MOL1         0.0845
       3    H2      16.544406   17.386390   22.675451 H          1 MOL1         0.0845
       4    C2      18.565250   17.882937   23.053483 C.2        1 MOL1        -0.1324
       5    H3      18.321589   18.658479   23.778713 H          1 MOL1         0.0833
       6    C3      20.041229   17.651512   22.809495 C.3        1 MOL1        -0.1813
       7    H4      20.231598   16.569951   22.829303 H          1 MOL1         0.0753
       8    H5      20.633550   18.073155   23.632482 H          1 MOL1         0.0753
       9    C4      20.540721   18.212839   21.455025 C.3        1 MOL1        -0.1855
      10    H6      21.485676   17.709351   21.209473 H          1 MOL1         0.0755
      11    H7      19.838694   17.942451   20.654413 H          1 MOL1         0.0755
      12    C5      20.804015   19.739769   21.438731 C.3        1 MOL1        -0.1855
      13    H8      21.318368   19.990510   20.500616 H          1 MOL1         0.0755
      14    H9      21.495290   20.008342   22.249314 H          1 MOL1         0.0755
      15    C6      19.523792   20.608119   21.540059 C.3        1 MOL1        -0.1958
      16    H10     18.786810   20.286492   20.794582 H          1 MOL1         0.0753
      17    H11     19.061121   20.498049   22.525911 H          1 MOL1         0.0753
      18    C7      19.799031   22.091993   21.325628 C.2        1 MOL1         0.6174
      19    O1      20.095832   22.766447   22.292018 O.co2      1 MOL1        -0.6695
      20    O2      19.729572   22.530906   20.194516 O.co2      1 MOL1        -0.6695
@<TRIPOS>BOND
    1     1     2    1
    2     1     3    1
    3     1     4    2
    4     4     5    1
    5     4     6    1
    6     6     7    1
    7     6     8    1
    8     6     9    1
    9     9    10    1
   10     9    11    1
   11     9    12    1
   12    12    13    1
   13    12    14    1
   14    12    15    1
   15    15    16    1
   16    15    17    1
   17    15    18    1
   18    18    19    1
   19    18    20    2
@<TRIPOS>SUBSTRUCTURE
       1 MOL1            1 RESIDUE      1      MOL     
@<SCITEGIC>MOL_PROPERTY
VConf Rank
SciTegic.value.IntegerValue
920

@<SCITEGIC>MOL_PROPERTY
Conf_Id
SciTegic.value.IntegerValue
91

@<SCITEGIC>MOL_PROPERTY
Delta U+W
SciTegic.value.DoubleValue
1.604

@<SCITEGIC>MOL_PROPERTY
U+W
SciTegic.value.DoubleValue
-50.141

@<SCITEGIC>MOL_PROPERTY
Grad RMS
SciTegic.value.DoubleValue
0.000000

@<SCITEGIC>MOL_PROPERTY
U
SciTegic.value.DoubleValue
10.644

@<SCITEGIC>MOL_PROPERTY
W
SciTegic.value.DoubleValue
-60.786

@<SCITEGIC>MOL_PROPERTY
W(PB)
SciTegic.value.DoubleValue
-62.965

@<SCITEGIC>MOL_PROPERTY
W(SA)
SciTegic.value.DoubleValue
2.179

@<SCITEGIC>MOL_PROPERTY
Valence
SciTegic.value.DoubleValue
11.230

@<SCITEGIC>MOL_PROPERTY
Coulomb
SciTegic.value.DoubleValue
-1.075

@<SCITEGIC>MOL_PROPERTY
VdW
SciTegic.value.DoubleValue
0.489

@<SCITEGIC>MOL_PROPERTY
VdW6
SciTegic.value.DoubleValue
-7.547

@<SCITEGIC>MOL_PROPERTY
VdW12
SciTegic.value.DoubleValue
8.036

@<SCITEGIC>MOL_PROPERTY
Bond
SciTegic.value.DoubleValue
0.159

@<SCITEGIC>MOL_PROPERTY
Angle
SciTegic.value.DoubleValue
3.006

@<SCITEGIC>MOL_PROPERTY
Pdih
SciTegic.value.DoubleValue
8.064

@<SCITEGIC>MOL_PROPERTY
Idih
SciTegic.value.DoubleValue
0.002

@<SCITEGIC>MOL_PROPERTY
Tether
SciTegic.value.DoubleValue
0.000

@<TRIPOS>MOLECULE
guest-s22_confgen4.mol2 : confsearch ligand conformer 921
          20          19           1
SMALL
USER_CHARGES
 
@<TRIPOS>ATOM
       1    C1      20.462502   18.741000   25.504019 C.2        1 MOL1        -0.2535
       2    H1      19.586250   18.099270   25.581194 H          1 MOL1         0.0845
       3    H2      20.814177   19.220405   26.416034 H          1 MOL1         0.0845
       4    C2      21.083080   18.937146   24.337803 C.2        1 MOL1        -0.1324
       5    H3      21.958324   19.584059   24.282033 H          1 MOL1         0.0833
       6    C3      20.653674   18.305566   23.032292 C.3        1 MOL1        -0.1813
       7    H4      19.948165   17.484870   23.220758 H          1 MOL1         0.0753
       8    H5      21.526451   17.863479   22.533330 H          1 MOL1         0.0753
       9    C4      19.995982   19.344771   22.100429 C.3        1 MOL1        -0.1855
      10    H6      19.126212   19.786871   22.605832 H          1 MOL1         0.0755
      11    H7      20.703586   20.163086   21.908548 H          1 MOL1         0.0755
      12    C5      19.553787   18.716822   20.760556 C.3        1 MOL1        -0.1855
      13    H8      18.845634   17.898561   20.951638 H          1 MOL1         0.0755
      14    H9      20.422998   18.273412   20.255202 H          1 MOL1         0.0755
      15    C6      18.891711   19.762184   19.823928 C.3        1 MOL1        -0.1958
      16    H10     18.019452   20.204194   20.319616 H          1 MOL1         0.0753
      17    H11     19.595254   20.578799   19.623736 H          1 MOL1         0.0753
      18    C7      18.422935   19.222366   18.471833 C.2        1 MOL1         0.6174
      19    O1      17.900547   20.012041   17.710477 O.co2      1 MOL1        -0.6695
      20    O2      18.582355   18.047038   18.203811 O.co2      1 MOL1        -0.6695
@<TRIPOS>BOND
    1     1     2    1
    2     1     3    1
    3     1     4    2
    4     4     5    1
    5     4     6    1
    6     6     7    1
    7     6     8    1
    8     6     9    1
    9     9    10    1
   10     9    11    1
   11     9    12    1
   12    12    13    1
   13    12    14    1
   14    12    15    1
   15    15    16    1
   16    15    17    1
   17    15    18    1
   18    18    19    1
   19    18    20    2
@<TRIPOS>SUBSTRUCTURE
       1 MOL1            1 RESIDUE      1      MOL     
@<SCITEGIC>MOL_PROPERTY
VConf Rank
SciTegic.value.IntegerValue
921

@<SCITEGIC>MOL_PROPERTY
Conf_Id
SciTegic.value.IntegerValue
33

@<SCITEGIC>MOL_PROPERTY
Delta U+W
SciTegic.value.DoubleValue
0.000

@<SCITEGIC>MOL_PROPERTY
U+W
SciTegic.value.DoubleValue
-51.745

@<SCITEGIC>MOL_PROPERTY
Grad RMS
SciTegic.value.DoubleValue
0.000000

@<SCITEGIC>MOL_PROPERTY
U
SciTegic.value.DoubleValue
7.593

@<SCITEGIC>MOL_PROPERTY
W
SciTegic.value.DoubleValue
-59.338

@<SCITEGIC>MOL_PROPERTY
W(PB)
SciTegic.value.DoubleValue
-61.574

@<SCITEGIC>MOL_PROPERTY
W(SA)
SciTegic.value.DoubleValue
2.236

@<SCITEGIC>MOL_PROPERTY
Valence
SciTegic.value.DoubleValue
9.570

@<SCITEGIC>MOL_PROPERTY
Coulomb
SciTegic.value.DoubleValue
-3.091

@<SCITEGIC>MOL_PROPERTY
VdW
SciTegic.value.DoubleValue
1.114

@<SCITEGIC>MOL_PROPERTY
VdW6
SciTegic.value.DoubleValue
-6.064

@<SCITEGIC>MOL_PROPERTY
VdW12
SciTegic.value.DoubleValue
7.178

@<SCITEGIC>MOL_PROPERTY
Bond
SciTegic.value.DoubleValue
0.117

@<SCITEGIC>MOL_PROPERTY
Angle
SciTegic.value.DoubleValue
2.692

@<SCITEGIC>MOL_PROPERTY
Pdih
SciTegic.value.DoubleValue
6.761

@<SCITEGIC>MOL_PROPERTY
Idih
SciTegic.value.DoubleValue
0.000

@<SCITEGIC>MOL_PROPERTY
Tether
SciTegic.value.DoubleValue
0.000

@<TRIPOS>MOLECULE
guest-s22_confgen4.mol2 : confsearch ligand conformer 922
          20          19           1
SMALL
USER_CHARGES
 
@<TRIPOS>ATOM
       1    C1      21.184592   16.451018   23.969699 C.2        1 MOL1        -0.2535
       2    H1      20.220495   16.293371   24.450576 H          1 MOL1         0.0845
       3    H2      22.050878   15.961824   24.411850 H          1 MOL1         0.0845
       4    C2      21.304625   17.215799   22.881408 C.2        1 MOL1        -0.1324
       5    H3      22.279094   17.361454   22.415764 H          1 MOL1         0.0833
       6    C3      20.148651   17.925136   22.211864 C.3        1 MOL1        -0.1813
       7    H4      19.193796   17.524953   22.578882 H          1 MOL1         0.0753
       8    H5      20.181763   17.727999   21.132933 H          1 MOL1         0.0753
       9    C4      20.204015   19.446786   22.475160 C.3        1 MOL1        -0.1855
      10    H6      20.255518   19.616196   23.559590 H          1 MOL1         0.0755
      11    H7      21.129244   19.861649   22.052273 H          1 MOL1         0.0755
      12    C5      18.984270   20.215250   21.913141 C.3        1 MOL1        -0.1855
      13    H8      19.046575   21.262458   22.240203 H          1 MOL1         0.0755
      14    H9      18.058816   19.810164   22.345384 H          1 MOL1         0.0755
      15    C6      18.891027   20.181669   20.365513 C.3        1 MOL1        -0.1958
      16    H10     19.826084   20.544021   19.921945 H          1 MOL1         0.0753
      17    H11     18.737252   19.156789   20.009540 H          1 MOL1         0.0753
      18    C7      17.749545   21.035755   19.825583 C.2        1 MOL1         0.6174
      19    O1      16.657134   20.519063   19.697613 O.co2      1 MOL1        -0.6695
      20    O2      17.977994   22.200693   19.565843 O.co2      1 MOL1        -0.6695
@<TRIPOS>BOND
    1     1     2    1
    2     1     3    1
    3     1     4    2
    4     4     5    1
    5     4     6    1
    6     6     7    1
    7     6     8    1
    8     6     9    1
    9     9    10    1
   10     9    11    1
   11     9    12    1
   12    12    13    1
   13    12    14    1
   14    12    15    1
   15    15    16    1
   16    15    17    1
   17    15    18    1
   18    18    19    1
   19    18    20    2
@<TRIPOS>SUBSTRUCTURE
       1 MOL1            1 RESIDUE      1      MOL     
@<SCITEGIC>MOL_PROPERTY
VConf Rank
SciTegic.value.IntegerValue
922

@<SCITEGIC>MOL_PROPERTY
Conf_Id
SciTegic.value.IntegerValue
37

@<SCITEGIC>MOL_PROPERTY
Delta U+W
SciTegic.value.DoubleValue
-0.384

@<SCITEGIC>MOL_PROPERTY
U+W
SciTegic.value.DoubleValue
-52.130

@<SCITEGIC>MOL_PROPERTY
Grad RMS
SciTegic.value.DoubleValue
0.000000

@<SCITEGIC>MOL_PROPERTY
U
SciTegic.value.DoubleValue
7.491

@<SCITEGIC>MOL_PROPERTY
W
SciTegic.value.DoubleValue
-59.621

@<SCITEGIC>MOL_PROPERTY
W(PB)
SciTegic.value.DoubleValue
-61.853

@<SCITEGIC>MOL_PROPERTY
W(SA)
SciTegic.value.DoubleValue
2.232

@<SCITEGIC>MOL_PROPERTY
Valence
SciTegic.value.DoubleValue
9.604

@<SCITEGIC>MOL_PROPERTY
Coulomb
SciTegic.value.DoubleValue
-2.799

@<SCITEGIC>MOL_PROPERTY
VdW
SciTegic.value.DoubleValue
0.686

@<SCITEGIC>MOL_PROPERTY
VdW6
SciTegic.value.DoubleValue
-6.435

@<SCITEGIC>MOL_PROPERTY
VdW12
SciTegic.value.DoubleValue
7.121

@<SCITEGIC>MOL_PROPERTY
Bond
SciTegic.value.DoubleValue
0.124

@<SCITEGIC>MOL_PROPERTY
Angle
SciTegic.value.DoubleValue
2.493

@<SCITEGIC>MOL_PROPERTY
Pdih
SciTegic.value.DoubleValue
6.986

@<SCITEGIC>MOL_PROPERTY
Idih
SciTegic.value.DoubleValue
0.001

@<SCITEGIC>MOL_PROPERTY
Tether
SciTegic.value.DoubleValue
0.000

@<TRIPOS>MOLECULE
guest-s22_confgen4.mol2 : confsearch ligand conformer 923
          20          19           1
SMALL
USER_CHARGES
 
@<TRIPOS>ATOM
       1    C1      20.434343   15.955559   20.700177 C.2        1 MOL1        -0.2535
       2    H1      20.630767   14.954543   20.319946 H          1 MOL1         0.0845
       3    H2      21.084697   16.751963   20.344750 H          1 MOL1         0.0845
       4    C2      19.435723   16.174863   21.563066 C.2        1 MOL1        -0.1324
       5    H3      18.817868   15.336015   21.882782 H          1 MOL1         0.0833
       6    C3      19.042085   17.507825   22.177294 C.3        1 MOL1        -0.1813
       7    H4      19.081065   17.417506   23.271121 H          1 MOL1         0.0753
       8    H5      17.990582   17.711449   21.934366 H          1 MOL1         0.0753
       9    C4      19.906722   18.712119   21.736770 C.3        1 MOL1        -0.1855
      10    H6      20.957630   18.523703   21.995957 H          1 MOL1         0.0755
      11    H7      19.855337   18.820820   20.644694 H          1 MOL1         0.0755
      12    C5      19.442088   20.024882   22.404447 C.3        1 MOL1        -0.1855
      13    H8      19.491108   19.922560   23.497486 H          1 MOL1         0.0755
      14    H9      18.391070   20.219059   22.148988 H          1 MOL1         0.0755
      15    C6      20.306348   21.232337   21.964911 C.3        1 MOL1        -0.1958
      16    H10     21.357705   21.060295   22.225010 H          1 MOL1         0.0753
      17    H11     20.257698   21.356732   20.876443 H          1 MOL1         0.0753
      18    C7      19.866830   22.541233   22.611132 C.2        1 MOL1         0.6174
      19    O1      20.361549   22.848856   23.677560 O.co2      1 MOL1        -0.6695
      20    O2      19.026848   23.208821   22.040691 O.co2      1 MOL1        -0.6695
@<TRIPOS>BOND
    1     1     2    1
    2     1     3    1
    3     1     4    2
    4     4     5    1
    5     4     6    1
    6     6     7    1
    7     6     8    1
    8     6     9    1
    9     9    10    1
   10     9    11    1
   11     9    12    1
   12    12    13    1
   13    12    14    1
   14    12    15    1
   15    15    16    1
   16    15    17    1
   17    15    18    1
   18    18    19    1
   19    18    20    2
@<TRIPOS>SUBSTRUCTURE
       1 MOL1            1 RESIDUE      1      MOL     
@<SCITEGIC>MOL_PROPERTY
VConf Rank
SciTegic.value.IntegerValue
923

@<SCITEGIC>MOL_PROPERTY
Conf_Id
SciTegic.value.IntegerValue
44

@<SCITEGIC>MOL_PROPERTY
Delta U+W
SciTegic.value.DoubleValue
-1.440

@<SCITEGIC>MOL_PROPERTY
U+W
SciTegic.value.DoubleValue
-53.185

@<SCITEGIC>MOL_PROPERTY
Grad RMS
SciTegic.value.DoubleValue
0.000000

@<SCITEGIC>MOL_PROPERTY
U
SciTegic.value.DoubleValue
6.572

@<SCITEGIC>MOL_PROPERTY
W
SciTegic.value.DoubleValue
-59.757

@<SCITEGIC>MOL_PROPERTY
W(PB)
SciTegic.value.DoubleValue
-62.007

@<SCITEGIC>MOL_PROPERTY
W(SA)
SciTegic.value.DoubleValue
2.249

@<SCITEGIC>MOL_PROPERTY
Valence
SciTegic.value.DoubleValue
7.989

@<SCITEGIC>MOL_PROPERTY
Coulomb
SciTegic.value.DoubleValue
-2.697

@<SCITEGIC>MOL_PROPERTY
VdW
SciTegic.value.DoubleValue
1.281

@<SCITEGIC>MOL_PROPERTY
VdW6
SciTegic.value.DoubleValue
-6.467

@<SCITEGIC>MOL_PROPERTY
VdW12
SciTegic.value.DoubleValue
7.748

@<SCITEGIC>MOL_PROPERTY
Bond
SciTegic.value.DoubleValue
0.136

@<SCITEGIC>MOL_PROPERTY
Angle
SciTegic.value.DoubleValue
2.854

@<SCITEGIC>MOL_PROPERTY
Pdih
SciTegic.value.DoubleValue
4.997

@<SCITEGIC>MOL_PROPERTY
Idih
SciTegic.value.DoubleValue
0.001

@<SCITEGIC>MOL_PROPERTY
Tether
SciTegic.value.DoubleValue
0.000

@<TRIPOS>MOLECULE
guest-s22_confgen4.mol2 : confsearch ligand conformer 924
          20          19           1
SMALL
USER_CHARGES
 
@<TRIPOS>ATOM
       1    C1      20.990631   22.046522   20.648897 C.2        1 MOL1        -0.2535
       2    H1      20.056306   22.404100   21.078726 H          1 MOL1         0.0845
       3    H2      21.513567   22.711419   19.963548 H          1 MOL1         0.0845
       4    C2      21.478298   20.839190   20.945960 C.2        1 MOL1        -0.1324
       5    H3      22.415107   20.500168   20.504270 H          1 MOL1         0.0833
       6    C3      20.809796   19.863155   21.888488 C.3        1 MOL1        -0.1813
       7    H4      20.044148   20.381257   22.480056 H          1 MOL1         0.0753
       8    H5      21.550784   19.474073   22.599462 H          1 MOL1         0.0753
       9    C4      20.171185   18.689990   21.111428 C.3        1 MOL1        -0.1855
      10    H6      19.391621   19.075088   20.439734 H          1 MOL1         0.0755
      11    H7      20.935221   18.231596   20.468616 H          1 MOL1         0.0755
      12    C5      19.575465   17.594108   22.027115 C.3        1 MOL1        -0.1855
      13    H8      20.356359   17.201195   22.692846 H          1 MOL1         0.0755
      14    H9      19.248973   16.751817   21.401455 H          1 MOL1         0.0755
      15    C6      18.370670   18.081730   22.873135 C.3        1 MOL1        -0.1958
      16    H10     18.682323   18.862412   23.576065 H          1 MOL1         0.0753
      17    H11     17.602613   18.516679   22.222517 H          1 MOL1         0.0753
      18    C7      17.726456   16.961145   23.681350 C.2        1 MOL1         0.6174
      19    O1      16.825312   16.328218   23.167467 O.co2      1 MOL1        -0.6695
      20    O2      18.155951   16.737484   24.795901 O.co2      1 MOL1        -0.6695
@<TRIPOS>BOND
    1     1     2    1
    2     1     3    1
    3     1     4    2
    4     4     5    1
    5     4     6    1
    6     6     7    1
    7     6     8    1
    8     6     9    1
    9     9    10    1
   10     9    11    1
   11     9    12    1
   12    12    13    1
   13    12    14    1
   14    12    15    1
   15    15    16    1
   16    15    17    1
   17    15    18    1
   18    18    19    1
   19    18    20    2
@<TRIPOS>SUBSTRUCTURE
       1 MOL1            1 RESIDUE      1      MOL     
@<SCITEGIC>MOL_PROPERTY
VConf Rank
SciTegic.value.IntegerValue
924

@<SCITEGIC>MOL_PROPERTY
Conf_Id
SciTegic.value.IntegerValue
38

@<SCITEGIC>MOL_PROPERTY
Delta U+W
SciTegic.value.DoubleValue
-0.381

@<SCITEGIC>MOL_PROPERTY
U+W
SciTegic.value.DoubleValue
-52.126

@<SCITEGIC>MOL_PROPERTY
Grad RMS
SciTegic.value.DoubleValue
0.000000

@<SCITEGIC>MOL_PROPERTY
U
SciTegic.value.DoubleValue
7.601

@<SCITEGIC>MOL_PROPERTY
W
SciTegic.value.DoubleValue
-59.727

@<SCITEGIC>MOL_PROPERTY
W(PB)
SciTegic.value.DoubleValue
-61.964

@<SCITEGIC>MOL_PROPERTY
W(SA)
SciTegic.value.DoubleValue
2.236

@<SCITEGIC>MOL_PROPERTY
Valence
SciTegic.value.DoubleValue
9.602

@<SCITEGIC>MOL_PROPERTY
Coulomb
SciTegic.value.DoubleValue
-2.686

@<SCITEGIC>MOL_PROPERTY
VdW
SciTegic.value.DoubleValue
0.685

@<SCITEGIC>MOL_PROPERTY
VdW6
SciTegic.value.DoubleValue
-6.453

@<SCITEGIC>MOL_PROPERTY
VdW12
SciTegic.value.DoubleValue
7.139

@<SCITEGIC>MOL_PROPERTY
Bond
SciTegic.value.DoubleValue
0.125

@<SCITEGIC>MOL_PROPERTY
Angle
SciTegic.value.DoubleValue
2.485

@<SCITEGIC>MOL_PROPERTY
Pdih
SciTegic.value.DoubleValue
6.991

@<SCITEGIC>MOL_PROPERTY
Idih
SciTegic.value.DoubleValue
0.001

@<SCITEGIC>MOL_PROPERTY
Tether
SciTegic.value.DoubleValue
0.000

@<TRIPOS>MOLECULE
guest-s22_confgen4.mol2 : confsearch ligand conformer 925
          20          19           1
SMALL
USER_CHARGES
 
@<TRIPOS>ATOM
       1    C1      21.515784   16.629733   23.678354 C.2        1 MOL1        -0.2535
       2    H1      20.652677   15.966153   23.695212 H          1 MOL1         0.0845
       3    H2      22.500212   16.173524   23.768039 H          1 MOL1         0.0845
       4    C2      21.376959   17.951867   23.550474 C.2        1 MOL1        -0.1324
       5    H3      22.254072   18.598466   23.534903 H          1 MOL1         0.0833
       6    C3      20.044517   18.655933   23.421870 C.3        1 MOL1        -0.1813
       7    H4      20.006454   19.500971   24.122289 H          1 MOL1         0.0753
       8    H5      19.227208   17.976970   23.700718 H          1 MOL1         0.0753
       9    C4      19.820850   19.166666   21.983073 C.3        1 MOL1        -0.1855
      10    H6      20.638320   19.847289   21.707524 H          1 MOL1         0.0755
      11    H7      19.864412   18.319322   21.284946 H          1 MOL1         0.0755
      12    C5      18.464141   19.891747   21.834982 C.3        1 MOL1        -0.1855
      13    H8      18.421446   20.746379   22.524531 H          1 MOL1         0.0755
      14    H9      17.654801   19.209011   22.127251 H          1 MOL1         0.0755
      15    C6      18.207197   20.386248   20.387798 C.3        1 MOL1        -0.1958
      16    H10     18.274203   19.548223   19.683467 H          1 MOL1         0.0753
      17    H11     17.188421   20.784129   20.311874 H          1 MOL1         0.0753
      18    C7      19.161572   21.485333   19.929489 C.2        1 MOL1         0.6174
      19    O1      20.046979   21.191434   19.150614 O.co2      1 MOL1        -0.6695
      20    O2      18.986489   22.609835   20.356033 O.co2      1 MOL1        -0.6695
@<TRIPOS>BOND
    1     1     2    1
    2     1     3    1
    3     1     4    2
    4     4     5    1
    5     4     6    1
    6     6     7    1
    7     6     8    1
    8     6     9    1
    9     9    10    1
   10     9    11    1
   11     9    12    1
   12    12    13    1
   13    12    14    1
   14    12    15    1
   15    15    16    1
   16    15    17    1
   17    15    18    1
   18    18    19    1
   19    18    20    2
@<TRIPOS>SUBSTRUCTURE
       1 MOL1            1 RESIDUE      1      MOL     
@<SCITEGIC>MOL_PROPERTY
VConf Rank
SciTegic.value.IntegerValue
925

@<SCITEGIC>MOL_PROPERTY
Conf_Id
SciTegic.value.IntegerValue
58

@<SCITEGIC>MOL_PROPERTY
Delta U+W
SciTegic.value.DoubleValue
0.019

@<SCITEGIC>MOL_PROPERTY
U+W
SciTegic.value.DoubleValue
-51.727

@<SCITEGIC>MOL_PROPERTY
Grad RMS
SciTegic.value.DoubleValue
0.000000

@<SCITEGIC>MOL_PROPERTY
U
SciTegic.value.DoubleValue
8.963

@<SCITEGIC>MOL_PROPERTY
W
SciTegic.value.DoubleValue
-60.690

@<SCITEGIC>MOL_PROPERTY
W(PB)
SciTegic.value.DoubleValue
-62.934

@<SCITEGIC>MOL_PROPERTY
W(SA)
SciTegic.value.DoubleValue
2.244

@<SCITEGIC>MOL_PROPERTY
Valence
SciTegic.value.DoubleValue
9.327

@<SCITEGIC>MOL_PROPERTY
Coulomb
SciTegic.value.DoubleValue
-0.780

@<SCITEGIC>MOL_PROPERTY
VdW
SciTegic.value.DoubleValue
0.417

@<SCITEGIC>MOL_PROPERTY
VdW6
SciTegic.value.DoubleValue
-6.635

@<SCITEGIC>MOL_PROPERTY
VdW12
SciTegic.value.DoubleValue
7.052

@<SCITEGIC>MOL_PROPERTY
Bond
SciTegic.value.DoubleValue
0.105

@<SCITEGIC>MOL_PROPERTY
Angle
SciTegic.value.DoubleValue
2.399

@<SCITEGIC>MOL_PROPERTY
Pdih
SciTegic.value.DoubleValue
6.822

@<SCITEGIC>MOL_PROPERTY
Idih
SciTegic.value.DoubleValue
0.000

@<SCITEGIC>MOL_PROPERTY
Tether
SciTegic.value.DoubleValue
0.000

@<TRIPOS>MOLECULE
guest-s22_confgen4.mol2 : confsearch ligand conformer 926
          20          19           1
SMALL
USER_CHARGES
 
@<TRIPOS>ATOM
       1    C1      20.678645   20.320358   18.777694 C.2        1 MOL1        -0.2535
       2    H1      19.867750   21.045167   18.725948 H          1 MOL1         0.0845
       3    H2      21.108967   19.982097   17.836594 H          1 MOL1         0.0845
       4    C2      21.129076   19.859704   19.947556 C.2        1 MOL1        -0.1324
       5    H3      21.941213   19.133614   19.977333 H          1 MOL1         0.0833
       6    C3      20.582280   20.283108   21.292690 C.3        1 MOL1        -0.1813
       7    H4      19.963471   21.184341   21.185015 H          1 MOL1         0.0753
       8    H5      21.413226   20.548010   21.960135 H          1 MOL1         0.0753
       9    C4      19.743950   19.156879   21.932864 C.3        1 MOL1        -0.1855
      10    H6      18.916662   18.891396   21.260269 H          1 MOL1         0.0755
      11    H7      20.365772   18.257458   22.041552 H          1 MOL1         0.0755
      12    C5      19.179840   19.572359   23.310356 C.3        1 MOL1        -0.1855
      13    H8      18.572910   20.480508   23.194225 H          1 MOL1         0.0755
      14    H9      20.005427   19.828359   23.989004 H          1 MOL1         0.0755
      15    C6      18.308574   18.464222   23.956748 C.3        1 MOL1        -0.1958
      16    H10     17.839805   18.851906   24.868852 H          1 MOL1         0.0753
      17    H11     17.495430   18.177773   23.278809 H          1 MOL1         0.0753
      18    C7      19.086791   17.209222   24.341741 C.2        1 MOL1         0.6174
      19    O1      19.787173   17.252052   25.334075 O.co2      1 MOL1        -0.6695
      20    O2      18.964124   16.219664   23.646977 O.co2      1 MOL1        -0.6695
@<TRIPOS>BOND
    1     1     2    1
    2     1     3    1
    3     1     4    2
    4     4     5    1
    5     4     6    1
    6     6     7    1
    7     6     8    1
    8     6     9    1
    9     9    10    1
   10     9    11    1
   11     9    12    1
   12    12    13    1
   13    12    14    1
   14    12    15    1
   15    15    16    1
   16    15    17    1
   17    15    18    1
   18    18    19    1
   19    18    20    2
@<TRIPOS>SUBSTRUCTURE
       1 MOL1            1 RESIDUE      1      MOL     
@<SCITEGIC>MOL_PROPERTY
VConf Rank
SciTegic.value.IntegerValue
926

@<SCITEGIC>MOL_PROPERTY
Conf_Id
SciTegic.value.IntegerValue
54

@<SCITEGIC>MOL_PROPERTY
Delta U+W
SciTegic.value.DoubleValue
-0.048

@<SCITEGIC>MOL_PROPERTY
U+W
SciTegic.value.DoubleValue
-51.793

@<SCITEGIC>MOL_PROPERTY
Grad RMS
SciTegic.value.DoubleValue
0.000000

@<SCITEGIC>MOL_PROPERTY
U
SciTegic.value.DoubleValue
8.964

@<SCITEGIC>MOL_PROPERTY
W
SciTegic.value.DoubleValue
-60.756

@<SCITEGIC>MOL_PROPERTY
W(PB)
SciTegic.value.DoubleValue
-63.007

@<SCITEGIC>MOL_PROPERTY
W(SA)
SciTegic.value.DoubleValue
2.251

@<SCITEGIC>MOL_PROPERTY
Valence
SciTegic.value.DoubleValue
9.327

@<SCITEGIC>MOL_PROPERTY
Coulomb
SciTegic.value.DoubleValue
-0.780

@<SCITEGIC>MOL_PROPERTY
VdW
SciTegic.value.DoubleValue
0.417

@<SCITEGIC>MOL_PROPERTY
VdW6
SciTegic.value.DoubleValue
-6.635

@<SCITEGIC>MOL_PROPERTY
VdW12
SciTegic.value.DoubleValue
7.052

@<SCITEGIC>MOL_PROPERTY
Bond
SciTegic.value.DoubleValue
0.105

@<SCITEGIC>MOL_PROPERTY
Angle
SciTegic.value.DoubleValue
2.399

@<SCITEGIC>MOL_PROPERTY
Pdih
SciTegic.value.DoubleValue
6.822

@<SCITEGIC>MOL_PROPERTY
Idih
SciTegic.value.DoubleValue
0.000

@<SCITEGIC>MOL_PROPERTY
Tether
SciTegic.value.DoubleValue
0.000

@<TRIPOS>MOLECULE
guest-s22_confgen4.mol2 : confsearch ligand conformer 927
          20          19           1
SMALL
USER_CHARGES
 
@<TRIPOS>ATOM
       1    C1      20.049718   21.917967   20.174972 C.2        1 MOL1        -0.2535
       2    H1      19.543162   22.880986   20.209358 H          1 MOL1         0.0845
       3    H2      21.112396   21.918787   19.937859 H          1 MOL1         0.0845
       4    C2      19.390327   20.782224   20.417795 C.2        1 MOL1        -0.1324
       5    H3      18.325919   20.803698   20.649799 H          1 MOL1         0.0833
       6    C3      20.026053   19.408779   20.381041 C.3        1 MOL1        -0.1813
       7    H4      20.958483   19.448156   19.801771 H          1 MOL1         0.0753
       8    H5      19.367195   18.705139   19.854883 H          1 MOL1         0.0753
       9    C4      20.343870   18.868612   21.793631 C.3        1 MOL1        -0.1855
      10    H6      20.923765   17.940976   21.692659 H          1 MOL1         0.0755
      11    H7      20.988562   19.584380   22.322011 H          1 MOL1         0.0755
      12    C5      19.073194   18.590118   22.631443 C.3        1 MOL1        -0.1855
      13    H8      18.421376   17.885528   22.096539 H          1 MOL1         0.0755
      14    H9      18.502337   19.520233   22.751868 H          1 MOL1         0.0755
      15    C6      19.399377   18.022252   24.037257 C.3        1 MOL1        -0.1958
      16    H10     20.077177   18.699274   24.571168 H          1 MOL1         0.0753
      17    H11     18.479244   17.961550   24.630238 H          1 MOL1         0.0753
      18    C7      20.020192   16.628360   24.015187 C.2        1 MOL1         0.6174
      19    O1      21.211946   16.525131   24.229934 O.co2      1 MOL1        -0.6695
      20    O2      19.291907   15.680813   23.794118 O.co2      1 MOL1        -0.6695
@<TRIPOS>BOND
    1     1     2    1
    2     1     3    1
    3     1     4    2
    4     4     5    1
    5     4     6    1
    6     6     7    1
    7     6     8    1
    8     6     9    1
    9     9    10    1
   10     9    11    1
   11     9    12    1
   12    12    13    1
   13    12    14    1
   14    12    15    1
   15    15    16    1
   16    15    17    1
   17    15    18    1
   18    18    19    1
   19    18    20    2
@<TRIPOS>SUBSTRUCTURE
       1 MOL1            1 RESIDUE      1      MOL     
@<SCITEGIC>MOL_PROPERTY
VConf Rank
SciTegic.value.IntegerValue
927

@<SCITEGIC>MOL_PROPERTY
Conf_Id
SciTegic.value.IntegerValue
27

@<SCITEGIC>MOL_PROPERTY
Delta U+W
SciTegic.value.DoubleValue
0.478

@<SCITEGIC>MOL_PROPERTY
U+W
SciTegic.value.DoubleValue
-51.267

@<SCITEGIC>MOL_PROPERTY
Grad RMS
SciTegic.value.DoubleValue
0.000000

@<SCITEGIC>MOL_PROPERTY
U
SciTegic.value.DoubleValue
9.192

@<SCITEGIC>MOL_PROPERTY
W
SciTegic.value.DoubleValue
-60.459

@<SCITEGIC>MOL_PROPERTY
W(PB)
SciTegic.value.DoubleValue
-62.649

@<SCITEGIC>MOL_PROPERTY
W(SA)
SciTegic.value.DoubleValue
2.190

@<SCITEGIC>MOL_PROPERTY
Valence
SciTegic.value.DoubleValue
9.572

@<SCITEGIC>MOL_PROPERTY
Coulomb
SciTegic.value.DoubleValue
-0.884

@<SCITEGIC>MOL_PROPERTY
VdW
SciTegic.value.DoubleValue
0.504

@<SCITEGIC>MOL_PROPERTY
VdW6
SciTegic.value.DoubleValue
-7.168

@<SCITEGIC>MOL_PROPERTY
VdW12
SciTegic.value.DoubleValue
7.672

@<SCITEGIC>MOL_PROPERTY
Bond
SciTegic.value.DoubleValue
0.127

@<SCITEGIC>MOL_PROPERTY
Angle
SciTegic.value.DoubleValue
2.504

@<SCITEGIC>MOL_PROPERTY
Pdih
SciTegic.value.DoubleValue
6.941

@<SCITEGIC>MOL_PROPERTY
Idih
SciTegic.value.DoubleValue
0.001

@<SCITEGIC>MOL_PROPERTY
Tether
SciTegic.value.DoubleValue
0.000

@<TRIPOS>MOLECULE
guest-s22_confgen4.mol2 : confsearch ligand conformer 928
          20          19           1
SMALL
USER_CHARGES
 
@<TRIPOS>ATOM
       1    C1      17.735779   16.191084   22.703780 C.2        1 MOL1        -0.2535
       2    H1      18.366640   15.473227   23.225511 H          1 MOL1         0.0845
       3    H2      16.894231   15.798595   22.135495 H          1 MOL1         0.0845
       4    C2      17.983155   17.502565   22.753776 C.2        1 MOL1        -0.1324
       5    H3      17.337138   18.204048   22.226636 H          1 MOL1         0.0833
       6    C3      19.128716   18.120045   23.527214 C.3        1 MOL1        -0.1813
       7    H4      19.487428   17.411646   24.286195 H          1 MOL1         0.0753
       8    H5      18.776741   19.004640   24.074631 H          1 MOL1         0.0753
       9    C4      20.313048   18.508896   22.613860 C.3        1 MOL1        -0.1855
      10    H6      21.156159   18.824782   23.243351 H          1 MOL1         0.0755
      11    H7      20.650449   17.623611   22.057320 H          1 MOL1         0.0755
      12    C5      19.962867   19.646144   21.626905 C.3        1 MOL1        -0.1855
      13    H8      19.601051   20.521708   22.183534 H          1 MOL1         0.0755
      14    H9      19.146243   19.329292   20.964023 H          1 MOL1         0.0755
      15    C6      21.182617   20.056087   20.765385 C.3        1 MOL1        -0.1958
      16    H10     22.005070   20.392141   21.408172 H          1 MOL1         0.0753
      17    H11     21.548602   19.194761   20.193738 H          1 MOL1         0.0753
      18    C7      20.862737   21.176127   19.781905 C.2        1 MOL1         0.6174
      19    O1      20.465450   20.871423   18.674666 O.co2      1 MOL1        -0.6695
      20    O2      21.002545   22.324164   20.154954 O.co2      1 MOL1        -0.6695
@<TRIPOS>BOND
    1     1     2    1
    2     1     3    1
    3     1     4    2
    4     4     5    1
    5     4     6    1
    6     6     7    1
    7     6     8    1
    8     6     9    1
    9     9    10    1
   10     9    11    1
   11     9    12    1
   12    12    13    1
   13    12    14    1
   14    12    15    1
   15    15    16    1
   16    15    17    1
   17    15    18    1
   18    18    19    1
   19    18    20    2
@<TRIPOS>SUBSTRUCTURE
       1 MOL1            1 RESIDUE      1      MOL     
@<SCITEGIC>MOL_PROPERTY
VConf Rank
SciTegic.value.IntegerValue
928

@<SCITEGIC>MOL_PROPERTY
Conf_Id
SciTegic.value.IntegerValue
41

@<SCITEGIC>MOL_PROPERTY
Delta U+W
SciTegic.value.DoubleValue
-0.634

@<SCITEGIC>MOL_PROPERTY
U+W
SciTegic.value.DoubleValue
-52.379

@<SCITEGIC>MOL_PROPERTY
Grad RMS
SciTegic.value.DoubleValue
0.000000

@<SCITEGIC>MOL_PROPERTY
U
SciTegic.value.DoubleValue
7.828

@<SCITEGIC>MOL_PROPERTY
W
SciTegic.value.DoubleValue
-60.207

@<SCITEGIC>MOL_PROPERTY
W(PB)
SciTegic.value.DoubleValue
-62.449

@<SCITEGIC>MOL_PROPERTY
W(SA)
SciTegic.value.DoubleValue
2.242

@<SCITEGIC>MOL_PROPERTY
Valence
SciTegic.value.DoubleValue
9.300

@<SCITEGIC>MOL_PROPERTY
Coulomb
SciTegic.value.DoubleValue
-2.080

@<SCITEGIC>MOL_PROPERTY
VdW
SciTegic.value.DoubleValue
0.608

@<SCITEGIC>MOL_PROPERTY
VdW6
SciTegic.value.DoubleValue
-6.341

@<SCITEGIC>MOL_PROPERTY
VdW12
SciTegic.value.DoubleValue
6.949

@<SCITEGIC>MOL_PROPERTY
Bond
SciTegic.value.DoubleValue
0.103

@<SCITEGIC>MOL_PROPERTY
Angle
SciTegic.value.DoubleValue
2.334

@<SCITEGIC>MOL_PROPERTY
Pdih
SciTegic.value.DoubleValue
6.862

@<SCITEGIC>MOL_PROPERTY
Idih
SciTegic.value.DoubleValue
0.001

@<SCITEGIC>MOL_PROPERTY
Tether
SciTegic.value.DoubleValue
0.000

@<TRIPOS>MOLECULE
guest-s22_confgen4.mol2 : confsearch ligand conformer 929
          20          19           1
SMALL
USER_CHARGES
 
@<TRIPOS>ATOM
       1    C1      18.613389   16.865171   24.612680 C.2        1 MOL1        -0.2535
       2    H1      18.085832   15.942612   24.848914 H          1 MOL1         0.0845
       3    H2      19.153159   17.354934   25.421588 H          1 MOL1         0.0845
       4    C2      18.598353   17.371754   23.377017 C.2        1 MOL1        -0.1324
       5    H3      18.052523   16.865821   22.580922 H          1 MOL1         0.0833
       6    C3      19.305224   18.646861   22.974481 C.3        1 MOL1        -0.1813
       7    H4      19.602332   19.214802   23.866414 H          1 MOL1         0.0753
       8    H5      18.609430   19.280570   22.409470 H          1 MOL1         0.0753
       9    C4      20.553801   18.342013   22.116986 C.3        1 MOL1        -0.1855
      10    H6      21.189686   17.627811   22.658026 H          1 MOL1         0.0755
      11    H7      20.248104   17.840583   21.188344 H          1 MOL1         0.0755
      12    C5      21.396644   19.597496   21.782966 C.3        1 MOL1        -0.1855
      13    H8      22.299677   19.283312   21.241481 H          1 MOL1         0.0755
      14    H9      21.743508   20.059339   22.717200 H          1 MOL1         0.0755
      15    C6      20.652010   20.663709   20.933772 C.3        1 MOL1        -0.1958
      16    H10     19.784514   21.054918   21.477289 H          1 MOL1         0.0753
      17    H11     21.317671   21.516668   20.757529 H          1 MOL1         0.0753
      18    C7      20.188046   20.160830   19.569739 C.2        1 MOL1         0.6174
      19    O1      21.029659   19.968125   18.714194 O.co2      1 MOL1        -0.6695
      20    O2      18.997640   19.992247   19.392349 O.co2      1 MOL1        -0.6695
@<TRIPOS>BOND
    1     1     2    1
    2     1     3    1
    3     1     4    2
    4     4     5    1
    5     4     6    1
    6     6     7    1
    7     6     8    1
    8     6     9    1
    9     9    10    1
   10     9    11    1
   11     9    12    1
   12    12    13    1
   13    12    14    1
   14    12    15    1
   15    15    16    1
   16    15    17    1
   17    15    18    1
   18    18    19    1
   19    18    20    2
@<TRIPOS>SUBSTRUCTURE
       1 MOL1            1 RESIDUE      1      MOL     
@<SCITEGIC>MOL_PROPERTY
VConf Rank
SciTegic.value.IntegerValue
929

@<SCITEGIC>MOL_PROPERTY
Conf_Id
SciTegic.value.IntegerValue
84

@<SCITEGIC>MOL_PROPERTY
Delta U+W
SciTegic.value.DoubleValue
0.942

@<SCITEGIC>MOL_PROPERTY
U+W
SciTegic.value.DoubleValue
-50.803

@<SCITEGIC>MOL_PROPERTY
Grad RMS
SciTegic.value.DoubleValue
0.000000

@<SCITEGIC>MOL_PROPERTY
U
SciTegic.value.DoubleValue
10.196

@<SCITEGIC>MOL_PROPERTY
W
SciTegic.value.DoubleValue
-60.999

@<SCITEGIC>MOL_PROPERTY
W(PB)
SciTegic.value.DoubleValue
-63.182

@<SCITEGIC>MOL_PROPERTY
W(SA)
SciTegic.value.DoubleValue
2.182

@<SCITEGIC>MOL_PROPERTY
Valence
SciTegic.value.DoubleValue
9.837

@<SCITEGIC>MOL_PROPERTY
Coulomb
SciTegic.value.DoubleValue
0.032

@<SCITEGIC>MOL_PROPERTY
VdW
SciTegic.value.DoubleValue
0.328

@<SCITEGIC>MOL_PROPERTY
VdW6
SciTegic.value.DoubleValue
-7.642

@<SCITEGIC>MOL_PROPERTY
VdW12
SciTegic.value.DoubleValue
7.969

@<SCITEGIC>MOL_PROPERTY
Bond
SciTegic.value.DoubleValue
0.151

@<SCITEGIC>MOL_PROPERTY
Angle
SciTegic.value.DoubleValue
2.748

@<SCITEGIC>MOL_PROPERTY
Pdih
SciTegic.value.DoubleValue
6.937

@<SCITEGIC>MOL_PROPERTY
Idih
SciTegic.value.DoubleValue
0.001

@<SCITEGIC>MOL_PROPERTY
Tether
SciTegic.value.DoubleValue
0.000

@<TRIPOS>MOLECULE
guest-s22_confgen4.mol2 : confsearch ligand conformer 930
          20          19           1
SMALL
USER_CHARGES
 
@<TRIPOS>ATOM
       1    C1      21.342330   21.559864   20.136807 C.2        1 MOL1        -0.2535
       2    H1      21.282958   22.244481   19.292392 H          1 MOL1         0.0845
       3    H2      21.793112   21.934205   21.054547 H          1 MOL1         0.0845
       4    C2      20.876910   20.311273   20.046993 C.2        1 MOL1        -0.1324
       5    H3      20.428449   19.956444   19.119300 H          1 MOL1         0.0833
       6    C3      20.925566   19.305174   21.175294 C.3        1 MOL1        -0.1813
       7    H4      21.608930   19.650110   21.963216 H          1 MOL1         0.0753
       8    H5      21.327937   18.353958   20.801974 H          1 MOL1         0.0753
       9    C4      19.523487   19.074023   21.776798 C.3        1 MOL1        -0.1855
      10    H6      19.124523   20.030512   22.142361 H          1 MOL1         0.0755
      11    H7      18.840456   18.725094   20.990181 H          1 MOL1         0.0755
      12    C5      19.555337   18.045233   22.929582 C.3        1 MOL1        -0.1855
      13    H8      20.226952   18.397907   23.724733 H          1 MOL1         0.0755
      14    H9      19.973107   17.099168   22.559446 H          1 MOL1         0.0755
      15    C6      18.149935   17.775060   23.526857 C.3        1 MOL1        -0.1958
      16    H10     17.460083   17.447809   22.739543 H          1 MOL1         0.0753
      17    H11     18.212012   16.957414   24.254577 H          1 MOL1         0.0753
      18    C7      17.538446   18.976628   24.241846 C.2        1 MOL1         0.6174
      19    O1      16.644939   19.584282   23.685631 O.co2      1 MOL1        -0.6695
      20    O2      17.964104   19.264772   25.343161 O.co2      1 MOL1        -0.6695
@<TRIPOS>BOND
    1     1     2    1
    2     1     3    1
    3     1     4    2
    4     4     5    1
    5     4     6    1
    6     6     7    1
    7     6     8    1
    8     6     9    1
    9     9    10    1
   10     9    11    1
   11     9    12    1
   12    12    13    1
   13    12    14    1
   14    12    15    1
   15    15    16    1
   16    15    17    1
   17    15    18    1
   18    18    19    1
   19    18    20    2
@<TRIPOS>SUBSTRUCTURE
       1 MOL1            1 RESIDUE      1      MOL     
@<SCITEGIC>MOL_PROPERTY
VConf Rank
SciTegic.value.IntegerValue
930

@<SCITEGIC>MOL_PROPERTY
Conf_Id
SciTegic.value.IntegerValue
81

@<SCITEGIC>MOL_PROPERTY
Delta U+W
SciTegic.value.DoubleValue
-0.051

@<SCITEGIC>MOL_PROPERTY
U+W
SciTegic.value.DoubleValue
-51.796

@<SCITEGIC>MOL_PROPERTY
Grad RMS
SciTegic.value.DoubleValue
0.000000

@<SCITEGIC>MOL_PROPERTY
U
SciTegic.value.DoubleValue
9.412

@<SCITEGIC>MOL_PROPERTY
W
SciTegic.value.DoubleValue
-61.209

@<SCITEGIC>MOL_PROPERTY
W(PB)
SciTegic.value.DoubleValue
-63.452

@<SCITEGIC>MOL_PROPERTY
W(SA)
SciTegic.value.DoubleValue
2.243

@<SCITEGIC>MOL_PROPERTY
Valence
SciTegic.value.DoubleValue
9.329

@<SCITEGIC>MOL_PROPERTY
Coulomb
SciTegic.value.DoubleValue
-0.323

@<SCITEGIC>MOL_PROPERTY
VdW
SciTegic.value.DoubleValue
0.406

@<SCITEGIC>MOL_PROPERTY
VdW6
SciTegic.value.DoubleValue
-6.640

@<SCITEGIC>MOL_PROPERTY
VdW12
SciTegic.value.DoubleValue
7.046

@<SCITEGIC>MOL_PROPERTY
Bond
SciTegic.value.DoubleValue
0.105

@<SCITEGIC>MOL_PROPERTY
Angle
SciTegic.value.DoubleValue
2.401

@<SCITEGIC>MOL_PROPERTY
Pdih
SciTegic.value.DoubleValue
6.823

@<SCITEGIC>MOL_PROPERTY
Idih
SciTegic.value.DoubleValue
0.000

@<SCITEGIC>MOL_PROPERTY
Tether
SciTegic.value.DoubleValue
0.000

@<TRIPOS>MOLECULE
guest-s22_confgen4.mol2 : confsearch ligand conformer 931
          20          19           1
SMALL
USER_CHARGES
 
@<TRIPOS>ATOM
       1    C1      17.251511   21.066700   21.118308 C.2        1 MOL1        -0.2535
       2    H1      17.234065   21.901650   21.816889 H          1 MOL1         0.0845
       3    H2      16.707705   21.184615   20.182618 H          1 MOL1         0.0845
       4    C2      17.915463   19.941043   21.393519 C.2        1 MOL1        -0.1324
       5    H3      17.918308   19.116196   20.681590 H          1 MOL1         0.0833
       6    C3      18.687949   19.703299   22.673468 C.3        1 MOL1        -0.1813
       7    H4      18.467945   18.701967   23.065725 H          1 MOL1         0.0753
       8    H5      18.350652   20.407673   23.445675 H          1 MOL1         0.0753
       9    C4      20.213962   19.876581   22.483827 C.3        1 MOL1        -0.1855
      10    H6      20.416621   20.911134   22.174853 H          1 MOL1         0.0755
      11    H7      20.710376   19.746514   23.455232 H          1 MOL1         0.0755
      12    C5      20.852367   18.912797   21.450556 C.3        1 MOL1        -0.1855
      13    H8      21.925006   19.138437   21.374960 H          1 MOL1         0.0755
      14    H9      20.430180   19.109711   20.456233 H          1 MOL1         0.0755
      15    C6      20.683224   17.406019   21.787007 C.3        1 MOL1        -0.1958
      16    H10     19.622957   17.128895   21.795771 H          1 MOL1         0.0753
      17    H11     21.154693   16.803660   21.001839 H          1 MOL1         0.0753
      18    C7      21.308306   16.990536   23.115612 C.2        1 MOL1         0.6174
      19    O1      20.568405   16.717032   24.040181 O.co2      1 MOL1        -0.6695
      20    O2      22.520533   16.934582   23.185152 O.co2      1 MOL1        -0.6695
@<TRIPOS>BOND
    1     1     2    1
    2     1     3    1
    3     1     4    2
    4     4     5    1
    5     4     6    1
    6     6     7    1
    7     6     8    1
    8     6     9    1
    9     9    10    1
   10     9    11    1
   11     9    12    1
   12    12    13    1
   13    12    14    1
   14    12    15    1
   15    15    16    1
   16    15    17    1
   17    15    18    1
   18    18    19    1
   19    18    20    2
@<TRIPOS>SUBSTRUCTURE
       1 MOL1            1 RESIDUE      1      MOL     
@<SCITEGIC>MOL_PROPERTY
VConf Rank
SciTegic.value.IntegerValue
931

@<SCITEGIC>MOL_PROPERTY
Conf_Id
SciTegic.value.IntegerValue
86

@<SCITEGIC>MOL_PROPERTY
Delta U+W
SciTegic.value.DoubleValue
1.248

@<SCITEGIC>MOL_PROPERTY
U+W
SciTegic.value.DoubleValue
-50.498

@<SCITEGIC>MOL_PROPERTY
Grad RMS
SciTegic.value.DoubleValue
0.000000

@<SCITEGIC>MOL_PROPERTY
U
SciTegic.value.DoubleValue
10.404

@<SCITEGIC>MOL_PROPERTY
W
SciTegic.value.DoubleValue
-60.901

@<SCITEGIC>MOL_PROPERTY
W(PB)
SciTegic.value.DoubleValue
-63.061

@<SCITEGIC>MOL_PROPERTY
W(SA)
SciTegic.value.DoubleValue
2.159

@<SCITEGIC>MOL_PROPERTY
Valence
SciTegic.value.DoubleValue
10.021

@<SCITEGIC>MOL_PROPERTY
Coulomb
SciTegic.value.DoubleValue
0.094

@<SCITEGIC>MOL_PROPERTY
VdW
SciTegic.value.DoubleValue
0.289

@<SCITEGIC>MOL_PROPERTY
VdW6
SciTegic.value.DoubleValue
-8.409

@<SCITEGIC>MOL_PROPERTY
VdW12
SciTegic.value.DoubleValue
8.698

@<SCITEGIC>MOL_PROPERTY
Bond
SciTegic.value.DoubleValue
0.179

@<SCITEGIC>MOL_PROPERTY
Angle
SciTegic.value.DoubleValue
2.939

@<SCITEGIC>MOL_PROPERTY
Pdih
SciTegic.value.DoubleValue
6.902

@<SCITEGIC>MOL_PROPERTY
Idih
SciTegic.value.DoubleValue
0.001

@<SCITEGIC>MOL_PROPERTY
Tether
SciTegic.value.DoubleValue
0.000

@<TRIPOS>MOLECULE
guest-s22_confgen4.mol2 : confsearch ligand conformer 932
          20          19           1
SMALL
USER_CHARGES
 
@<TRIPOS>ATOM
       1    C1      19.570794   18.296459   25.037339 C.2        1 MOL1        -0.2535
       2    H1      18.981107   17.632227   25.666759 H          1 MOL1         0.0845
       3    H2      20.652801   18.177076   25.058102 H          1 MOL1         0.0845
       4    C2      18.985640   19.218403   24.268158 C.2        1 MOL1        -0.1324
       5    H3      17.900748   19.320069   24.260256 H          1 MOL1         0.0833
       6    C3      19.737826   20.175433   23.367957 C.3        1 MOL1        -0.1813
       7    H4      20.814289   20.145456   23.584727 H          1 MOL1         0.0753
       8    H5      19.407832   21.201129   23.579787 H          1 MOL1         0.0753
       9    C4      19.505202   19.876896   21.869684 C.3        1 MOL1        -0.1855
      10    H6      18.428529   19.902820   21.652831 H          1 MOL1         0.0755
      11    H7      19.963409   20.679155   21.275178 H          1 MOL1         0.0755
      12    C5      20.094861   18.514544   21.433909 C.3        1 MOL1        -0.1855
      13    H8      19.632681   17.710933   22.022694 H          1 MOL1         0.0755
      14    H9      21.170957   18.487570   21.654454 H          1 MOL1         0.0755
      15    C6      19.870803   18.221943   19.927518 C.3        1 MOL1        -0.1958
      16    H10     20.195694   17.199688   19.700842 H          1 MOL1         0.0753
      17    H11     18.802414   18.276573   19.685986 H          1 MOL1         0.0753
      18    C7      20.630328   19.159708   18.993470 C.2        1 MOL1         0.6174
      19    O1      21.824375   18.982937   18.851589 O.co2      1 MOL1        -0.6695
      20    O2      20.007417   20.034138   18.423873 O.co2      1 MOL1        -0.6695
@<TRIPOS>BOND
    1     1     2    1
    2     1     3    1
    3     1     4    2
    4     4     5    1
    5     4     6    1
    6     6     7    1
    7     6     8    1
    8     6     9    1
    9     9    10    1
   10     9    11    1
   11     9    12    1
   12    12    13    1
   13    12    14    1
   14    12    15    1
   15    15    16    1
   16    15    17    1
   17    15    18    1
   18    18    19    1
   19    18    20    2
@<TRIPOS>SUBSTRUCTURE
       1 MOL1            1 RESIDUE      1      MOL     
@<SCITEGIC>MOL_PROPERTY
VConf Rank
SciTegic.value.IntegerValue
932

@<SCITEGIC>MOL_PROPERTY
Conf_Id
SciTegic.value.IntegerValue
28

@<SCITEGIC>MOL_PROPERTY
Delta U+W
SciTegic.value.DoubleValue
0.446

@<SCITEGIC>MOL_PROPERTY
U+W
SciTegic.value.DoubleValue
-51.299

@<SCITEGIC>MOL_PROPERTY
Grad RMS
SciTegic.value.DoubleValue
0.000000

@<SCITEGIC>MOL_PROPERTY
U
SciTegic.value.DoubleValue
9.295

@<SCITEGIC>MOL_PROPERTY
W
SciTegic.value.DoubleValue
-60.594

@<SCITEGIC>MOL_PROPERTY
W(PB)
SciTegic.value.DoubleValue
-62.806

@<SCITEGIC>MOL_PROPERTY
W(SA)
SciTegic.value.DoubleValue
2.212

@<SCITEGIC>MOL_PROPERTY
Valence
SciTegic.value.DoubleValue
9.495

@<SCITEGIC>MOL_PROPERTY
Coulomb
SciTegic.value.DoubleValue
-0.610

@<SCITEGIC>MOL_PROPERTY
VdW
SciTegic.value.DoubleValue
0.409

@<SCITEGIC>MOL_PROPERTY
VdW6
SciTegic.value.DoubleValue
-7.332

@<SCITEGIC>MOL_PROPERTY
VdW12
SciTegic.value.DoubleValue
7.741

@<SCITEGIC>MOL_PROPERTY
Bond
SciTegic.value.DoubleValue
0.126

@<SCITEGIC>MOL_PROPERTY
Angle
SciTegic.value.DoubleValue
2.497

@<SCITEGIC>MOL_PROPERTY
Pdih
SciTegic.value.DoubleValue
6.872

@<SCITEGIC>MOL_PROPERTY
Idih
SciTegic.value.DoubleValue
0.000

@<SCITEGIC>MOL_PROPERTY
Tether
SciTegic.value.DoubleValue
0.000

@<TRIPOS>MOLECULE
guest-s22_confgen4.mol2 : confsearch ligand conformer 933
          20          19           1
SMALL
USER_CHARGES
 
@<TRIPOS>ATOM
       1    C1      20.388880   16.787574   24.001138 C.2        1 MOL1        -0.2535
       2    H1      20.890906   17.648587   24.437167 H          1 MOL1         0.0845
       3    H2      20.375327   15.874567   24.593906 H          1 MOL1         0.0845
       4    C2      19.806586   16.829378   22.797326 C.2        1 MOL1        -0.1324
       5    H3      19.316743   15.934381   22.414475 H          1 MOL1         0.0833
       6    C3      19.744826   18.022612   21.858266 C.3        1 MOL1        -0.1813
       7    H4      18.691121   18.290269   21.707520 H          1 MOL1         0.0753
       8    H5      20.119467   17.713971   20.873311 H          1 MOL1         0.0753
       9    C4      20.536272   19.267241   22.330615 C.3        1 MOL1        -0.1855
      10    H6      20.111652   19.638744   23.273407 H          1 MOL1         0.0755
      11    H7      21.571929   18.971718   22.546888 H          1 MOL1         0.0755
      12    C5      20.567625   20.411649   21.287347 C.3        1 MOL1        -0.1855
      13    H8      21.038848   20.047281   20.364541 H          1 MOL1         0.0755
      14    H9      21.213930   21.215984   21.665161 H          1 MOL1         0.0755
      15    C6      19.175888   21.010971   20.945966 C.3        1 MOL1        -0.1958
      16    H10     19.295823   21.801295   20.195859 H          1 MOL1         0.0753
      17    H11     18.527138   20.251821   20.494619 H          1 MOL1         0.0753
      18    C7      18.451583   21.626288   22.139980 C.2        1 MOL1         0.6174
      19    O1      18.886349   22.663536   22.601008 O.co2      1 MOL1        -0.6695
      20    O2      17.460808   21.064873   22.564287 O.co2      1 MOL1        -0.6695
@<TRIPOS>BOND
    1     1     2    1
    2     1     3    1
    3     1     4    2
    4     4     5    1
    5     4     6    1
    6     6     7    1
    7     6     8    1
    8     6     9    1
    9     9    10    1
   10     9    11    1
   11     9    12    1
   12    12    13    1
   13    12    14    1
   14    12    15    1
   15    15    16    1
   16    15    17    1
   17    15    18    1
   18    18    19    1
   19    18    20    2
@<TRIPOS>SUBSTRUCTURE
       1 MOL1            1 RESIDUE      1      MOL     
@<SCITEGIC>MOL_PROPERTY
VConf Rank
SciTegic.value.IntegerValue
933

@<SCITEGIC>MOL_PROPERTY
Conf_Id
SciTegic.value.IntegerValue
53

@<SCITEGIC>MOL_PROPERTY
Delta U+W
SciTegic.value.DoubleValue
0.549

@<SCITEGIC>MOL_PROPERTY
U+W
SciTegic.value.DoubleValue
-51.197

@<SCITEGIC>MOL_PROPERTY
Grad RMS
SciTegic.value.DoubleValue
0.000000

@<SCITEGIC>MOL_PROPERTY
U
SciTegic.value.DoubleValue
10.870

@<SCITEGIC>MOL_PROPERTY
W
SciTegic.value.DoubleValue
-62.067

@<SCITEGIC>MOL_PROPERTY
W(PB)
SciTegic.value.DoubleValue
-64.228

@<SCITEGIC>MOL_PROPERTY
W(SA)
SciTegic.value.DoubleValue
2.161

@<SCITEGIC>MOL_PROPERTY
Valence
SciTegic.value.DoubleValue
8.803

@<SCITEGIC>MOL_PROPERTY
Coulomb
SciTegic.value.DoubleValue
1.020

@<SCITEGIC>MOL_PROPERTY
VdW
SciTegic.value.DoubleValue
1.048

@<SCITEGIC>MOL_PROPERTY
VdW6
SciTegic.value.DoubleValue
-8.312

@<SCITEGIC>MOL_PROPERTY
VdW12
SciTegic.value.DoubleValue
9.360

@<SCITEGIC>MOL_PROPERTY
Bond
SciTegic.value.DoubleValue
0.212

@<SCITEGIC>MOL_PROPERTY
Angle
SciTegic.value.DoubleValue
3.379

@<SCITEGIC>MOL_PROPERTY
Pdih
SciTegic.value.DoubleValue
5.211

@<SCITEGIC>MOL_PROPERTY
Idih
SciTegic.value.DoubleValue
0.001

@<SCITEGIC>MOL_PROPERTY
Tether
SciTegic.value.DoubleValue
0.000

@<TRIPOS>MOLECULE
guest-s22_confgen4.mol2 : confsearch ligand conformer 934
          20          19           1
SMALL
USER_CHARGES
 
@<TRIPOS>ATOM
       1    C1      20.812062   21.030726   23.468767 C.2        1 MOL1        -0.2535
       2    H1      19.872931   21.476091   23.147858 H          1 MOL1         0.0845
       3    H2      21.653368   21.705190   23.617846 H          1 MOL1         0.0845
       4    C2      20.941097   19.716567   23.680881 C.2        1 MOL1        -0.1324
       5    H3      21.903771   19.321976   24.004701 H          1 MOL1         0.0833
       6    C3      19.858304   18.664292   23.507205 C.3        1 MOL1        -0.1813
       7    H4      19.426785   18.437786   24.491018 H          1 MOL1         0.0753
       8    H5      20.322710   17.724172   23.183043 H          1 MOL1         0.0753
       9    C4      18.716918   19.023529   22.520311 C.3        1 MOL1        -0.1855
      10    H6      17.969408   18.218817   22.542805 H          1 MOL1         0.0755
      11    H7      18.194504   19.920687   22.877402 H          1 MOL1         0.0755
      12    C5      19.171403   19.244575   21.053533 C.3        1 MOL1        -0.1855
      13    H8      19.863947   20.094655   21.005559 H          1 MOL1         0.0755
      14    H9      18.296463   19.530582   20.453785 H          1 MOL1         0.0755
      15    C6      19.843593   18.009387   20.394146 C.3        1 MOL1        -0.1958
      16    H10     20.133597   18.259752   19.367120 H          1 MOL1         0.0753
      17    H11     20.767798   17.746182   20.920996 H          1 MOL1         0.0753
      18    C7      18.949761   16.774563   20.325597 C.2        1 MOL1         0.6174
      19    O1      19.204263   15.837390   21.056414 O.co2      1 MOL1        -0.6695
      20    O2      18.031885   16.775869   19.528722 O.co2      1 MOL1        -0.6695
@<TRIPOS>BOND
    1     1     2    1
    2     1     3    1
    3     1     4    2
    4     4     5    1
    5     4     6    1
    6     6     7    1
    7     6     8    1
    8     6     9    1
    9     9    10    1
   10     9    11    1
   11     9    12    1
   12    12    13    1
   13    12    14    1
   14    12    15    1
   15    15    16    1
   16    15    17    1
   17    15    18    1
   18    18    19    1
   19    18    20    2
@<TRIPOS>SUBSTRUCTURE
       1 MOL1            1 RESIDUE      1      MOL     
@<SCITEGIC>MOL_PROPERTY
VConf Rank
SciTegic.value.IntegerValue
934

@<SCITEGIC>MOL_PROPERTY
Conf_Id
SciTegic.value.IntegerValue
66

@<SCITEGIC>MOL_PROPERTY
Delta U+W
SciTegic.value.DoubleValue
1.737

@<SCITEGIC>MOL_PROPERTY
U+W
SciTegic.value.DoubleValue
-50.008

@<SCITEGIC>MOL_PROPERTY
Grad RMS
SciTegic.value.DoubleValue
0.000000

@<SCITEGIC>MOL_PROPERTY
U
SciTegic.value.DoubleValue
11.091

@<SCITEGIC>MOL_PROPERTY
W
SciTegic.value.DoubleValue
-61.099

@<SCITEGIC>MOL_PROPERTY
W(PB)
SciTegic.value.DoubleValue
-63.213

@<SCITEGIC>MOL_PROPERTY
W(SA)
SciTegic.value.DoubleValue
2.114

@<SCITEGIC>MOL_PROPERTY
Valence
SciTegic.value.DoubleValue
9.664

@<SCITEGIC>MOL_PROPERTY
Coulomb
SciTegic.value.DoubleValue
0.658

@<SCITEGIC>MOL_PROPERTY
VdW
SciTegic.value.DoubleValue
0.769

@<SCITEGIC>MOL_PROPERTY
VdW6
SciTegic.value.DoubleValue
-9.171

@<SCITEGIC>MOL_PROPERTY
VdW12
SciTegic.value.DoubleValue
9.940

@<SCITEGIC>MOL_PROPERTY
Bond
SciTegic.value.DoubleValue
0.244

@<SCITEGIC>MOL_PROPERTY
Angle
SciTegic.value.DoubleValue
3.658

@<SCITEGIC>MOL_PROPERTY
Pdih
SciTegic.value.DoubleValue
5.762

@<SCITEGIC>MOL_PROPERTY
Idih
SciTegic.value.DoubleValue
0.001

@<SCITEGIC>MOL_PROPERTY
Tether
SciTegic.value.DoubleValue
0.000

@<TRIPOS>MOLECULE
guest-s22_confgen4.mol2 : confsearch ligand conformer 935
          20          19           1
SMALL
USER_CHARGES
 
@<TRIPOS>ATOM
       1    C1      18.932601   18.379044   19.423159 C.2        1 MOL1        -0.2535
       2    H1      18.020471   18.116636   19.954519 H          1 MOL1         0.0845
       3    H2      18.820946   18.763477   18.410894 H          1 MOL1         0.0845
       4    C2      20.143902   18.236451   19.972066 C.2        1 MOL1        -0.1324
       5    H3      21.024915   18.512742   19.393430 H          1 MOL1         0.0833
       6    C3      20.448951   17.720848   21.369097 C.3        1 MOL1        -0.1813
       7    H4      21.329855   18.247090   21.757333 H          1 MOL1         0.0753
       8    H5      20.760255   16.670570   21.294342 H          1 MOL1         0.0753
       9    C4      19.297164   17.837322   22.401637 C.3        1 MOL1        -0.1855
      10    H6      18.430341   17.264298   22.047018 H          1 MOL1         0.0755
      11    H7      19.611335   17.351258   23.335269 H          1 MOL1         0.0755
      12    C5      18.857958   19.289079   22.721327 C.3        1 MOL1        -0.1855
      13    H8      17.988077   19.251697   23.391469 H          1 MOL1         0.0755
      14    H9      18.519392   19.793605   21.806765 H          1 MOL1         0.0755
      15    C6      19.967309   20.138227   23.394532 C.3        1 MOL1        -0.1958
      16    H10     20.352277   19.623668   24.282889 H          1 MOL1         0.0753
      17    H11     20.810263   20.282554   22.709374 H          1 MOL1         0.0753
      18    C7      19.476389   21.516403   23.823337 C.2        1 MOL1         0.6174
      19    O1      19.591233   22.437545   23.039080 O.co2      1 MOL1        -0.6695
      20    O2      18.978463   21.629862   24.926120 O.co2      1 MOL1        -0.6695
@<TRIPOS>BOND
    1     1     2    1
    2     1     3    1
    3     1     4    2
    4     4     5    1
    5     4     6    1
    6     6     7    1
    7     6     8    1
    8     6     9    1
    9     9    10    1
   10     9    11    1
   11     9    12    1
   12    12    13    1
   13    12    14    1
   14    12    15    1
   15    15    16    1
   16    15    17    1
   17    15    18    1
   18    18    19    1
   19    18    20    2
@<TRIPOS>SUBSTRUCTURE
       1 MOL1            1 RESIDUE      1      MOL     
@<SCITEGIC>MOL_PROPERTY
VConf Rank
SciTegic.value.IntegerValue
935

@<SCITEGIC>MOL_PROPERTY
Conf_Id
SciTegic.value.IntegerValue
64

@<SCITEGIC>MOL_PROPERTY
Delta U+W
SciTegic.value.DoubleValue
0.366

@<SCITEGIC>MOL_PROPERTY
U+W
SciTegic.value.DoubleValue
-51.379

@<SCITEGIC>MOL_PROPERTY
Grad RMS
SciTegic.value.DoubleValue
0.000000

@<SCITEGIC>MOL_PROPERTY
U
SciTegic.value.DoubleValue
10.000

@<SCITEGIC>MOL_PROPERTY
W
SciTegic.value.DoubleValue
-61.379

@<SCITEGIC>MOL_PROPERTY
W(PB)
SciTegic.value.DoubleValue
-63.541

@<SCITEGIC>MOL_PROPERTY
W(SA)
SciTegic.value.DoubleValue
2.162

@<SCITEGIC>MOL_PROPERTY
Valence
SciTegic.value.DoubleValue
9.398

@<SCITEGIC>MOL_PROPERTY
Coulomb
SciTegic.value.DoubleValue
-0.504

@<SCITEGIC>MOL_PROPERTY
VdW
SciTegic.value.DoubleValue
1.105

@<SCITEGIC>MOL_PROPERTY
VdW6
SciTegic.value.DoubleValue
-7.975

@<SCITEGIC>MOL_PROPERTY
VdW12
SciTegic.value.DoubleValue
9.080

@<SCITEGIC>MOL_PROPERTY
Bond
SciTegic.value.DoubleValue
0.216

@<SCITEGIC>MOL_PROPERTY
Angle
SciTegic.value.DoubleValue
3.417

@<SCITEGIC>MOL_PROPERTY
Pdih
SciTegic.value.DoubleValue
5.765

@<SCITEGIC>MOL_PROPERTY
Idih
SciTegic.value.DoubleValue
0.001

@<SCITEGIC>MOL_PROPERTY
Tether
SciTegic.value.DoubleValue
0.000

@<TRIPOS>MOLECULE
guest-s22_confgen4.mol2 : confsearch ligand conformer 936
          20          19           1
SMALL
USER_CHARGES
 
@<TRIPOS>ATOM
       1    C1      21.174684   18.083868   24.526920 C.2        1 MOL1        -0.2535
       2    H1      22.098239   17.947749   23.966621 H          1 MOL1         0.0845
       3    H2      20.909398   17.314844   25.250335 H          1 MOL1         0.0845
       4    C2      20.392779   19.149466   24.334207 C.2        1 MOL1        -0.1324
       5    H3      19.471057   19.265518   24.903725 H          1 MOL1         0.0833
       6    C3      20.694782   20.257309   23.347567 C.3        1 MOL1        -0.1813
       7    H4      21.723103   20.170189   22.971214 H          1 MOL1         0.0753
       8    H5      20.635245   21.224233   23.864633 H          1 MOL1         0.0753
       9    C4      19.708987   20.266827   22.157584 C.3        1 MOL1        -0.1855
      10    H6      18.680488   20.353279   22.534146 H          1 MOL1         0.0755
      11    H7      19.897165   21.161391   21.548300 H          1 MOL1         0.0755
      12    C5      19.836789   19.009645   21.267223 C.3        1 MOL1        -0.1855
      13    H8      19.624386   18.108784   21.859308 H          1 MOL1         0.0755
      14    H9      20.870112   18.915776   20.905669 H          1 MOL1         0.0755
      15    C6      18.872896   19.060602   20.056301 C.3        1 MOL1        -0.1958
      16    H10     17.835325   19.141781   20.401909 H          1 MOL1         0.0753
      17    H11     19.081001   19.945648   19.443217 H          1 MOL1         0.0753
      18    C7      18.980035   17.830326   19.162413 C.2        1 MOL1         0.6174
      19    O1      19.797944   17.843914   18.263753 O.co2      1 MOL1        -0.6695
      20    O2      18.252713   16.885465   19.396788 O.co2      1 MOL1        -0.6695
@<TRIPOS>BOND
    1     1     2    1
    2     1     3    1
    3     1     4    2
    4     4     5    1
    5     4     6    1
    6     6     7    1
    7     6     8    1
    8     6     9    1
    9     9    10    1
   10     9    11    1
   11     9    12    1
   12    12    13    1
   13    12    14    1
   14    12    15    1
   15    15    16    1
   16    15    17    1
   17    15    18    1
   18    18    19    1
   19    18    20    2
@<TRIPOS>SUBSTRUCTURE
       1 MOL1            1 RESIDUE      1      MOL     
@<SCITEGIC>MOL_PROPERTY
VConf Rank
SciTegic.value.IntegerValue
936

@<SCITEGIC>MOL_PROPERTY
Conf_Id
SciTegic.value.IntegerValue
42

@<SCITEGIC>MOL_PROPERTY
Delta U+W
SciTegic.value.DoubleValue
-0.601

@<SCITEGIC>MOL_PROPERTY
U+W
SciTegic.value.DoubleValue
-52.347

@<SCITEGIC>MOL_PROPERTY
Grad RMS
SciTegic.value.DoubleValue
0.000000

@<SCITEGIC>MOL_PROPERTY
U
SciTegic.value.DoubleValue
8.428

@<SCITEGIC>MOL_PROPERTY
W
SciTegic.value.DoubleValue
-60.774

@<SCITEGIC>MOL_PROPERTY
W(PB)
SciTegic.value.DoubleValue
-62.982

@<SCITEGIC>MOL_PROPERTY
W(SA)
SciTegic.value.DoubleValue
2.208

@<SCITEGIC>MOL_PROPERTY
Valence
SciTegic.value.DoubleValue
9.231

@<SCITEGIC>MOL_PROPERTY
Coulomb
SciTegic.value.DoubleValue
-1.304

@<SCITEGIC>MOL_PROPERTY
VdW
SciTegic.value.DoubleValue
0.501

@<SCITEGIC>MOL_PROPERTY
VdW6
SciTegic.value.DoubleValue
-6.515

@<SCITEGIC>MOL_PROPERTY
VdW12
SciTegic.value.DoubleValue
7.016

@<SCITEGIC>MOL_PROPERTY
Bond
SciTegic.value.DoubleValue
0.103

@<SCITEGIC>MOL_PROPERTY
Angle
SciTegic.value.DoubleValue
2.328

@<SCITEGIC>MOL_PROPERTY
Pdih
SciTegic.value.DoubleValue
6.799

@<SCITEGIC>MOL_PROPERTY
Idih
SciTegic.value.DoubleValue
0.000

@<SCITEGIC>MOL_PROPERTY
Tether
SciTegic.value.DoubleValue
0.000

@<TRIPOS>MOLECULE
guest-s22_confgen4.mol2 : confsearch ligand conformer 937
          20          19           1
SMALL
USER_CHARGES
 
@<TRIPOS>ATOM
       1    C1      16.699663   19.653653   21.796099 C.2        1 MOL1        -0.2535
       2    H1      16.735255   20.684440   22.144820 H          1 MOL1         0.0845
       3    H2      15.844235   19.051742   22.097831 H          1 MOL1         0.0845
       4    C2      17.667870   19.142471   21.031055 C.2        1 MOL1        -0.1324
       5    H3      17.614587   18.107281   20.694976 H          1 MOL1         0.0833
       6    C3      18.886209   19.915763   20.573262 C.3        1 MOL1        -0.1813
       7    H4      18.766866   20.986828   20.785834 H          1 MOL1         0.0753
       8    H5      18.980069   19.824985   19.482959 H          1 MOL1         0.0753
       9    C4      20.186954   19.400881   21.229707 C.3        1 MOL1        -0.1855
      10    H6      20.307785   18.331054   21.010143 H          1 MOL1         0.0755
      11    H7      21.043593   19.913045   20.770796 H          1 MOL1         0.0755
      12    C5      20.215753   19.632397   22.759033 C.3        1 MOL1        -0.1855
      13    H8      19.387511   19.090624   23.236370 H          1 MOL1         0.0755
      14    H9      20.055552   20.698946   22.966491 H          1 MOL1         0.0755
      15    C6      21.554450   19.188602   23.403829 C.3        1 MOL1        -0.1958
      16    H10     22.395722   19.702261   22.923057 H          1 MOL1         0.0753
      17    H11     21.566391   19.480380   24.460575 H          1 MOL1         0.0753
      18    C7      21.803194   17.684234   23.342060 C.2        1 MOL1         0.6174
      19    O1      22.590572   17.264190   22.516975 O.co2      1 MOL1        -0.6695
      20    O2      21.215740   16.973774   24.134043 O.co2      1 MOL1        -0.6695
@<TRIPOS>BOND
    1     1     2    1
    2     1     3    1
    3     1     4    2
    4     4     5    1
    5     4     6    1
    6     6     7    1
    7     6     8    1
    8     6     9    1
    9     9    10    1
   10     9    11    1
   11     9    12    1
   12    12    13    1
   13    12    14    1
   14    12    15    1
   15    15    16    1
   16    15    17    1
   17    15    18    1
   18    18    19    1
   19    18    20    2
@<TRIPOS>SUBSTRUCTURE
       1 MOL1            1 RESIDUE      1      MOL     
@<SCITEGIC>MOL_PROPERTY
VConf Rank
SciTegic.value.IntegerValue
937

@<SCITEGIC>MOL_PROPERTY
Conf_Id
SciTegic.value.IntegerValue
68

@<SCITEGIC>MOL_PROPERTY
Delta U+W
SciTegic.value.DoubleValue
0.492

@<SCITEGIC>MOL_PROPERTY
U+W
SciTegic.value.DoubleValue
-51.253

@<SCITEGIC>MOL_PROPERTY
Grad RMS
SciTegic.value.DoubleValue
0.000000

@<SCITEGIC>MOL_PROPERTY
U
SciTegic.value.DoubleValue
10.179

@<SCITEGIC>MOL_PROPERTY
W
SciTegic.value.DoubleValue
-61.432

@<SCITEGIC>MOL_PROPERTY
W(PB)
SciTegic.value.DoubleValue
-63.627

@<SCITEGIC>MOL_PROPERTY
W(SA)
SciTegic.value.DoubleValue
2.195

@<SCITEGIC>MOL_PROPERTY
Valence
SciTegic.value.DoubleValue
9.483

@<SCITEGIC>MOL_PROPERTY
Coulomb
SciTegic.value.DoubleValue
0.361

@<SCITEGIC>MOL_PROPERTY
VdW
SciTegic.value.DoubleValue
0.335

@<SCITEGIC>MOL_PROPERTY
VdW6
SciTegic.value.DoubleValue
-7.385

@<SCITEGIC>MOL_PROPERTY
VdW12
SciTegic.value.DoubleValue
7.720

@<SCITEGIC>MOL_PROPERTY
Bond
SciTegic.value.DoubleValue
0.125

@<SCITEGIC>MOL_PROPERTY
Angle
SciTegic.value.DoubleValue
2.487

@<SCITEGIC>MOL_PROPERTY
Pdih
SciTegic.value.DoubleValue
6.870

@<SCITEGIC>MOL_PROPERTY
Idih
SciTegic.value.DoubleValue
0.001

@<SCITEGIC>MOL_PROPERTY
Tether
SciTegic.value.DoubleValue
0.000

@<TRIPOS>MOLECULE
guest-s22_confgen4.mol2 : confsearch ligand conformer 938
          20          19           1
SMALL
USER_CHARGES
 
@<TRIPOS>ATOM
       1    C1      19.492070   16.114420   22.703910 C.2        1 MOL1        -0.2535
       2    H1      19.997298   16.030327   23.664724 H          1 MOL1         0.0845
       3    H2      19.573224   15.271634   22.019583 H          1 MOL1         0.0845
       4    C2      18.801621   17.208543   22.372439 C.2        1 MOL1        -0.1324
       5    H3      18.301226   17.270768   21.406532 H          1 MOL1         0.0833
       6    C3      18.640681   18.414491   23.273310 C.3        1 MOL1        -0.1813
       7    H4      18.863916   18.133825   24.311536 H          1 MOL1         0.0753
       8    H5      17.595525   18.751478   23.264079 H          1 MOL1         0.0753
       9    C4      19.568594   19.581061   22.865544 C.3        1 MOL1        -0.1855
      10    H6      19.501897   20.369666   23.627382 H          1 MOL1         0.0755
      11    H7      20.611018   19.233281   22.865846 H          1 MOL1         0.0755
      12    C5      19.211743   20.178720   21.483809 C.3        1 MOL1        -0.1855
      13    H8      18.154735   20.477100   21.480043 H          1 MOL1         0.0755
      14    H9      19.328444   19.415689   20.702157 H          1 MOL1         0.0755
      15    C6      20.083493   21.410135   21.125304 C.3        1 MOL1        -0.1958
      16    H10     19.714488   21.862464   20.197273 H          1 MOL1         0.0753
      17    H11     19.999218   22.175111   21.906631 H          1 MOL1         0.0753
      18    C7      21.560278   21.085151   20.919561 C.2        1 MOL1         0.6174
      19    O1      21.892054   20.570059   19.869937 O.co2      1 MOL1        -0.6695
      20    O2      22.341950   21.372869   21.804621 O.co2      1 MOL1        -0.6695
@<TRIPOS>BOND
    1     1     2    1
    2     1     3    1
    3     1     4    2
    4     4     5    1
    5     4     6    1
    6     6     7    1
    7     6     8    1
    8     6     9    1
    9     9    10    1
   10     9    11    1
   11     9    12    1
   12    12    13    1
   13    12    14    1
   14    12    15    1
   15    15    16    1
   16    15    17    1
   17    15    18    1
   18    18    19    1
   19    18    20    2
@<TRIPOS>SUBSTRUCTURE
       1 MOL1            1 RESIDUE      1      MOL     
@<SCITEGIC>MOL_PROPERTY
VConf Rank
SciTegic.value.IntegerValue
938

@<SCITEGIC>MOL_PROPERTY
Conf_Id
SciTegic.value.IntegerValue
87

@<SCITEGIC>MOL_PROPERTY
Delta U+W
SciTegic.value.DoubleValue
0.339

@<SCITEGIC>MOL_PROPERTY
U+W
SciTegic.value.DoubleValue
-51.407

@<SCITEGIC>MOL_PROPERTY
Grad RMS
SciTegic.value.DoubleValue
0.000000

@<SCITEGIC>MOL_PROPERTY
U
SciTegic.value.DoubleValue
10.461

@<SCITEGIC>MOL_PROPERTY
W
SciTegic.value.DoubleValue
-61.867

@<SCITEGIC>MOL_PROPERTY
W(PB)
SciTegic.value.DoubleValue
-64.045

@<SCITEGIC>MOL_PROPERTY
W(SA)
SciTegic.value.DoubleValue
2.178

@<SCITEGIC>MOL_PROPERTY
Valence
SciTegic.value.DoubleValue
9.555

@<SCITEGIC>MOL_PROPERTY
Coulomb
SciTegic.value.DoubleValue
0.483

@<SCITEGIC>MOL_PROPERTY
VdW
SciTegic.value.DoubleValue
0.423

@<SCITEGIC>MOL_PROPERTY
VdW6
SciTegic.value.DoubleValue
-7.223

@<SCITEGIC>MOL_PROPERTY
VdW12
SciTegic.value.DoubleValue
7.646

@<SCITEGIC>MOL_PROPERTY
Bond
SciTegic.value.DoubleValue
0.126

@<SCITEGIC>MOL_PROPERTY
Angle
SciTegic.value.DoubleValue
2.492

@<SCITEGIC>MOL_PROPERTY
Pdih
SciTegic.value.DoubleValue
6.936

@<SCITEGIC>MOL_PROPERTY
Idih
SciTegic.value.DoubleValue
0.001

@<SCITEGIC>MOL_PROPERTY
Tether
SciTegic.value.DoubleValue
0.000

@<TRIPOS>MOLECULE
guest-s22_confgen4.mol2 : confsearch ligand conformer 939
          20          19           1
SMALL
USER_CHARGES
 
@<TRIPOS>ATOM
       1    C1      18.295694   17.495569   24.038062 C.2        1 MOL1        -0.2535
       2    H1      18.095689   16.526122   23.584647 H          1 MOL1         0.0845
       3    H2      18.556025   17.511599   25.094940 H          1 MOL1         0.0845
       4    C2      18.227209   18.623418   23.326036 C.2        1 MOL1        -0.1324
       5    H3      18.421983   19.584868   23.799813 H          1 MOL1         0.0833
       6    C3      17.859491   18.676248   21.858521 C.3        1 MOL1        -0.1813
       7    H4      17.531993   19.687992   21.584560 H          1 MOL1         0.0753
       8    H5      16.988955   18.026874   21.694545 H          1 MOL1         0.0753
       9    C4      18.999805   18.215004   20.917190 C.3        1 MOL1        -0.1855
      10    H6      19.453323   17.290955   21.301103 H          1 MOL1         0.0755
      11    H7      18.551929   17.950976   19.949496 H          1 MOL1         0.0755
      12    C5      20.097245   19.276529   20.652823 C.3        1 MOL1        -0.1855
      13    H8      19.638707   20.203614   20.282289 H          1 MOL1         0.0755
      14    H9      20.744028   18.909109   19.844019 H          1 MOL1         0.0755
      15    C6      20.986497   19.593406   21.882491 C.3        1 MOL1        -0.1958
      16    H10     20.404026   20.100339   22.658265 H          1 MOL1         0.0753
      17    H11     21.375792   18.665799   22.318744 H          1 MOL1         0.0753
      18    C7      22.170696   20.489616   21.538817 C.2        1 MOL1         0.6174
      19    O1      22.013146   21.693595   21.588825 O.co2      1 MOL1        -0.6695
      20    O2      23.214119   19.960679   21.209611 O.co2      1 MOL1        -0.6695
@<TRIPOS>BOND
    1     1     2    1
    2     1     3    1
    3     1     4    2
    4     4     5    1
    5     4     6    1
    6     6     7    1
    7     6     8    1
    8     6     9    1
    9     9    10    1
   10     9    11    1
   11     9    12    1
   12    12    13    1
   13    12    14    1
   14    12    15    1
   15    15    16    1
   16    15    17    1
   17    15    18    1
   18    18    19    1
   19    18    20    2
@<TRIPOS>SUBSTRUCTURE
       1 MOL1            1 RESIDUE      1      MOL     
@<SCITEGIC>MOL_PROPERTY
VConf Rank
SciTegic.value.IntegerValue
939

@<SCITEGIC>MOL_PROPERTY
Conf_Id
SciTegic.value.IntegerValue
51

@<SCITEGIC>MOL_PROPERTY
Delta U+W
SciTegic.value.DoubleValue
1.709

@<SCITEGIC>MOL_PROPERTY
U+W
SciTegic.value.DoubleValue
-50.036

@<SCITEGIC>MOL_PROPERTY
Grad RMS
SciTegic.value.DoubleValue
0.000000

@<SCITEGIC>MOL_PROPERTY
U
SciTegic.value.DoubleValue
10.643

@<SCITEGIC>MOL_PROPERTY
W
SciTegic.value.DoubleValue
-60.679

@<SCITEGIC>MOL_PROPERTY
W(PB)
SciTegic.value.DoubleValue
-62.882

@<SCITEGIC>MOL_PROPERTY
W(SA)
SciTegic.value.DoubleValue
2.203

@<SCITEGIC>MOL_PROPERTY
Valence
SciTegic.value.DoubleValue
11.231

@<SCITEGIC>MOL_PROPERTY
Coulomb
SciTegic.value.DoubleValue
-1.077

@<SCITEGIC>MOL_PROPERTY
VdW
SciTegic.value.DoubleValue
0.489

@<SCITEGIC>MOL_PROPERTY
VdW6
SciTegic.value.DoubleValue
-7.546

@<SCITEGIC>MOL_PROPERTY
VdW12
SciTegic.value.DoubleValue
8.035

@<SCITEGIC>MOL_PROPERTY
Bond
SciTegic.value.DoubleValue
0.159

@<SCITEGIC>MOL_PROPERTY
Angle
SciTegic.value.DoubleValue
3.005

@<SCITEGIC>MOL_PROPERTY
Pdih
SciTegic.value.DoubleValue
8.065

@<SCITEGIC>MOL_PROPERTY
Idih
SciTegic.value.DoubleValue
0.002

@<SCITEGIC>MOL_PROPERTY
Tether
SciTegic.value.DoubleValue
0.000

@<TRIPOS>MOLECULE
guest-s22_confgen4.mol2 : confsearch ligand conformer 940
          20          19           1
SMALL
USER_CHARGES
 
@<TRIPOS>ATOM
       1    C1      20.342807   21.778792   22.560997 C.2        1 MOL1        -0.2535
       2    H1      21.383284   21.826126   22.243847 H          1 MOL1         0.0845
       3    H2      20.061376   22.345970   23.446506 H          1 MOL1         0.0845
       4    C2      19.444637   21.051024   21.892150 C.2        1 MOL1        -0.1324
       5    H3      18.406071   21.023415   22.219889 H          1 MOL1         0.0833
       6    C3      19.762810   20.249464   20.648016 C.3        1 MOL1        -0.1813
       7    H4      20.374066   20.871584   19.980379 H          1 MOL1         0.0753
       8    H5      18.842214   20.030443   20.090819 H          1 MOL1         0.0753
       9    C4      20.532690   18.936815   20.936822 C.3        1 MOL1        -0.1855
      10    H6      21.015790   18.617156   20.003458 H          1 MOL1         0.0755
      11    H7      21.348191   19.128152   21.647652 H          1 MOL1         0.0755
      12    C5      19.654867   17.762180   21.437587 C.3        1 MOL1        -0.1855
      13    H8      20.266704   16.849418   21.434589 H          1 MOL1         0.0755
      14    H9      18.832421   17.582978   20.731537 H          1 MOL1         0.0755
      15    C6      19.080152   17.959279   22.863815 C.3        1 MOL1        -0.1958
      16    H10     19.880981   18.231262   23.561684 H          1 MOL1         0.0753
      17    H11     18.347124   18.772076   22.874440 H          1 MOL1         0.0753
      18    C7      18.388395   16.710710   23.398761 C.2        1 MOL1         0.6174
      19    O1      17.207067   16.560350   23.156389 O.co2      1 MOL1        -0.6695
      20    O2      19.053596   15.910582   24.026602 O.co2      1 MOL1        -0.6695
@<TRIPOS>BOND
    1     1     2    1
    2     1     3    1
    3     1     4    2
    4     4     5    1
    5     4     6    1
    6     6     7    1
    7     6     8    1
    8     6     9    1
    9     9    10    1
   10     9    11    1
   11     9    12    1
   12    12    13    1
   13    12    14    1
   14    12    15    1
   15    15    16    1
   16    15    17    1
   17    15    18    1
   18    18    19    1
   19    18    20    2
@<TRIPOS>SUBSTRUCTURE
       1 MOL1            1 RESIDUE      1      MOL     
@<SCITEGIC>MOL_PROPERTY
VConf Rank
SciTegic.value.IntegerValue
940

@<SCITEGIC>MOL_PROPERTY
Conf_Id
SciTegic.value.IntegerValue
91

@<SCITEGIC>MOL_PROPERTY
Delta U+W
SciTegic.value.DoubleValue
1.604

@<SCITEGIC>MOL_PROPERTY
U+W
SciTegic.value.DoubleValue
-50.141

@<SCITEGIC>MOL_PROPERTY
Grad RMS
SciTegic.value.DoubleValue
0.000000

@<SCITEGIC>MOL_PROPERTY
U
SciTegic.value.DoubleValue
10.644

@<SCITEGIC>MOL_PROPERTY
W
SciTegic.value.DoubleValue
-60.786

@<SCITEGIC>MOL_PROPERTY
W(PB)
SciTegic.value.DoubleValue
-62.965

@<SCITEGIC>MOL_PROPERTY
W(SA)
SciTegic.value.DoubleValue
2.179

@<SCITEGIC>MOL_PROPERTY
Valence
SciTegic.value.DoubleValue
11.230

@<SCITEGIC>MOL_PROPERTY
Coulomb
SciTegic.value.DoubleValue
-1.075

@<SCITEGIC>MOL_PROPERTY
VdW
SciTegic.value.DoubleValue
0.489

@<SCITEGIC>MOL_PROPERTY
VdW6
SciTegic.value.DoubleValue
-7.547

@<SCITEGIC>MOL_PROPERTY
VdW12
SciTegic.value.DoubleValue
8.036

@<SCITEGIC>MOL_PROPERTY
Bond
SciTegic.value.DoubleValue
0.159

@<SCITEGIC>MOL_PROPERTY
Angle
SciTegic.value.DoubleValue
3.006

@<SCITEGIC>MOL_PROPERTY
Pdih
SciTegic.value.DoubleValue
8.064

@<SCITEGIC>MOL_PROPERTY
Idih
SciTegic.value.DoubleValue
0.002

@<SCITEGIC>MOL_PROPERTY
Tether
SciTegic.value.DoubleValue
0.000

@<TRIPOS>MOLECULE
guest-s22_confgen4.mol2 : confsearch ligand conformer 941
          20          19           1
SMALL
USER_CHARGES
 
@<TRIPOS>ATOM
       1    C1      19.766400   21.088512   18.830572 C.2        1 MOL1        -0.2535
       2    H1      18.829528   21.521694   19.177292 H          1 MOL1         0.0845
       3    H2      19.994880   21.172876   17.769461 H          1 MOL1         0.0845
       4    C2      20.604130   20.474613   19.670207 C.2        1 MOL1        -0.1324
       5    H3      21.536681   20.046984   19.302593 H          1 MOL1         0.0833
       6    C3      20.355063   20.319962   21.154016 C.3        1 MOL1        -0.1813
       7    H4      19.546774   20.990671   21.475922 H          1 MOL1         0.0753
       8    H5      21.253596   20.618385   21.710546 H          1 MOL1         0.0753
       9    C4      19.986481   18.864110   21.508297 C.3        1 MOL1        -0.1855
      10    H6      19.089727   18.569281   20.945897 H          1 MOL1         0.0755
      11    H7      20.797191   18.194197   21.190292 H          1 MOL1         0.0755
      12    C5      19.731480   18.687685   23.021229 C.3        1 MOL1        -0.1855
      13    H8      18.920382   19.357072   23.339953 H          1 MOL1         0.0755
      14    H9      20.627544   18.983566   23.584298 H          1 MOL1         0.0755
      15    C6      19.360102   17.223480   23.377009 C.3        1 MOL1        -0.1958
      16    H10     18.462659   16.923658   22.823280 H          1 MOL1         0.0753
      17    H11     20.168166   16.550349   23.067437 H          1 MOL1         0.0753
      18    C7      19.090340   16.960617   24.859389 C.2        1 MOL1         0.6174
      19    O1      18.797749   15.824942   25.176831 O.co2      1 MOL1        -0.6695
      20    O2      19.174203   17.873286   25.658545 O.co2      1 MOL1        -0.6695
@<TRIPOS>BOND
    1     1     2    1
    2     1     3    1
    3     1     4    2
    4     4     5    1
    5     4     6    1
    6     6     7    1
    7     6     8    1
    8     6     9    1
    9     9    10    1
   10     9    11    1
   11     9    12    1
   12    12    13    1
   13    12    14    1
   14    12    15    1
   15    15    16    1
   16    15    17    1
   17    15    18    1
   18    18    19    1
   19    18    20    2
@<TRIPOS>SUBSTRUCTURE
       1 MOL1            1 RESIDUE      1      MOL     
@<SCITEGIC>MOL_PROPERTY
VConf Rank
SciTegic.value.IntegerValue
941

@<SCITEGIC>MOL_PROPERTY
Conf_Id
SciTegic.value.IntegerValue
33

@<SCITEGIC>MOL_PROPERTY
Delta U+W
SciTegic.value.DoubleValue
0.000

@<SCITEGIC>MOL_PROPERTY
U+W
SciTegic.value.DoubleValue
-51.745

@<SCITEGIC>MOL_PROPERTY
Grad RMS
SciTegic.value.DoubleValue
0.000000

@<SCITEGIC>MOL_PROPERTY
U
SciTegic.value.DoubleValue
7.593

@<SCITEGIC>MOL_PROPERTY
W
SciTegic.value.DoubleValue
-59.338

@<SCITEGIC>MOL_PROPERTY
W(PB)
SciTegic.value.DoubleValue
-61.574

@<SCITEGIC>MOL_PROPERTY
W(SA)
SciTegic.value.DoubleValue
2.236

@<SCITEGIC>MOL_PROPERTY
Valence
SciTegic.value.DoubleValue
9.570

@<SCITEGIC>MOL_PROPERTY
Coulomb
SciTegic.value.DoubleValue
-3.091

@<SCITEGIC>MOL_PROPERTY
VdW
SciTegic.value.DoubleValue
1.114

@<SCITEGIC>MOL_PROPERTY
VdW6
SciTegic.value.DoubleValue
-6.064

@<SCITEGIC>MOL_PROPERTY
VdW12
SciTegic.value.DoubleValue
7.178

@<SCITEGIC>MOL_PROPERTY
Bond
SciTegic.value.DoubleValue
0.117

@<SCITEGIC>MOL_PROPERTY
Angle
SciTegic.value.DoubleValue
2.692

@<SCITEGIC>MOL_PROPERTY
Pdih
SciTegic.value.DoubleValue
6.761

@<SCITEGIC>MOL_PROPERTY
Idih
SciTegic.value.DoubleValue
0.000

@<SCITEGIC>MOL_PROPERTY
Tether
SciTegic.value.DoubleValue
0.000

@<TRIPOS>MOLECULE
guest-s22_confgen4.mol2 : confsearch ligand conformer 942
          20          19           1
SMALL
USER_CHARGES
 
@<TRIPOS>ATOM
       1    C1      20.527530   22.325569   20.712287 C.2        1 MOL1        -0.2535
       2    H1      19.953736   22.754314   21.532358 H          1 MOL1         0.0845
       3    H2      20.867675   23.003107   19.930940 H          1 MOL1         0.0845
       4    C2      20.803369   21.019803   20.661671 C.2        1 MOL1        -0.1324
       5    H3      21.378570   20.610514   19.831456 H          1 MOL1         0.0833
       6    C3      20.365981   20.019601   21.708577 C.3        1 MOL1        -0.1813
       7    H4      20.028568   20.541260   22.614458 H          1 MOL1         0.0753
       8    H5      21.226109   19.403228   21.998948 H          1 MOL1         0.0753
       9    C4      19.225796   19.122493   21.176613 C.3        1 MOL1        -0.1855
      10    H6      18.411076   19.764312   20.813789 H          1 MOL1         0.0755
      11    H7      19.580109   18.550516   20.308109 H          1 MOL1         0.0755
      12    C5      18.654887   18.154294   22.240019 C.3        1 MOL1        -0.1855
      13    H8      17.781727   17.639825   21.815277 H          1 MOL1         0.0755
      14    H9      18.287918   18.725875   23.103745 H          1 MOL1         0.0755
      15    C6      19.675605   17.089706   22.719354 C.3        1 MOL1        -0.1958
      16    H10     20.081324   16.540804   21.861170 H          1 MOL1         0.0753
      17    H11     20.519961   17.565990   23.230197 H          1 MOL1         0.0753
      18    C7      19.063333   16.077775   23.681169 C.2        1 MOL1         0.6174
      19    O1      19.081191   16.331877   24.869370 O.co2      1 MOL1        -0.6695
      20    O2      18.566903   15.071187   23.215260 O.co2      1 MOL1        -0.6695
@<TRIPOS>BOND
    1     1     2    1
    2     1     3    1
    3     1     4    2
    4     4     5    1
    5     4     6    1
    6     6     7    1
    7     6     8    1
    8     6     9    1
    9     9    10    1
   10     9    11    1
   11     9    12    1
   12    12    13    1
   13    12    14    1
   14    12    15    1
   15    15    16    1
   16    15    17    1
   17    15    18    1
   18    18    19    1
   19    18    20    2
@<TRIPOS>SUBSTRUCTURE
       1 MOL1            1 RESIDUE      1      MOL     
@<SCITEGIC>MOL_PROPERTY
VConf Rank
SciTegic.value.IntegerValue
942

@<SCITEGIC>MOL_PROPERTY
Conf_Id
SciTegic.value.IntegerValue
37

@<SCITEGIC>MOL_PROPERTY
Delta U+W
SciTegic.value.DoubleValue
-0.384

@<SCITEGIC>MOL_PROPERTY
U+W
SciTegic.value.DoubleValue
-52.130

@<SCITEGIC>MOL_PROPERTY
Grad RMS
SciTegic.value.DoubleValue
0.000000

@<SCITEGIC>MOL_PROPERTY
U
SciTegic.value.DoubleValue
7.491

@<SCITEGIC>MOL_PROPERTY
W
SciTegic.value.DoubleValue
-59.621

@<SCITEGIC>MOL_PROPERTY
W(PB)
SciTegic.value.DoubleValue
-61.853

@<SCITEGIC>MOL_PROPERTY
W(SA)
SciTegic.value.DoubleValue
2.232

@<SCITEGIC>MOL_PROPERTY
Valence
SciTegic.value.DoubleValue
9.604

@<SCITEGIC>MOL_PROPERTY
Coulomb
SciTegic.value.DoubleValue
-2.799

@<SCITEGIC>MOL_PROPERTY
VdW
SciTegic.value.DoubleValue
0.686

@<SCITEGIC>MOL_PROPERTY
VdW6
SciTegic.value.DoubleValue
-6.435

@<SCITEGIC>MOL_PROPERTY
VdW12
SciTegic.value.DoubleValue
7.121

@<SCITEGIC>MOL_PROPERTY
Bond
SciTegic.value.DoubleValue
0.124

@<SCITEGIC>MOL_PROPERTY
Angle
SciTegic.value.DoubleValue
2.493

@<SCITEGIC>MOL_PROPERTY
Pdih
SciTegic.value.DoubleValue
6.986

@<SCITEGIC>MOL_PROPERTY
Idih
SciTegic.value.DoubleValue
0.001

@<SCITEGIC>MOL_PROPERTY
Tether
SciTegic.value.DoubleValue
0.000

@<TRIPOS>MOLECULE
guest-s22_confgen4.mol2 : confsearch ligand conformer 943
          20          19           1
SMALL
USER_CHARGES
 
@<TRIPOS>ATOM
       1    C1      20.298882   16.605881   19.630672 C.2        1 MOL1        -0.2535
       2    H1      20.462784   15.835484   18.879131 H          1 MOL1         0.0845
       3    H2      20.353817   16.295405   20.671890 H          1 MOL1         0.0845
       4    C2      20.043283   17.868656   19.270139 C.2        1 MOL1        -0.1324
       5    H3      20.000740   18.118855   18.210320 H          1 MOL1         0.0833
       6    C3      19.794527   19.045805   20.198285 C.3        1 MOL1        -0.1813
       7    H4      18.814252   19.480734   19.961574 H          1 MOL1         0.0753
       8    H5      20.528613   19.831783   19.975816 H          1 MOL1         0.0753
       9    C4      19.850270   18.712335   21.707481 C.3        1 MOL1        -0.1855
      10    H6      19.103392   17.941064   21.940722 H          1 MOL1         0.0755
      11    H7      20.836346   18.295896   21.955115 H          1 MOL1         0.0755
      12    C5      19.587617   19.959740   22.579270 C.3        1 MOL1        -0.1855
      13    H8      18.602309   20.381269   22.336188 H          1 MOL1         0.0755
      14    H9      20.331716   20.735371   22.350542 H          1 MOL1         0.0755
      15    C6      19.642912   19.628417   24.090975 C.3        1 MOL1        -0.1958
      16    H10     18.896218   18.864486   24.338887 H          1 MOL1         0.0753
      17    H11     20.625666   19.218503   24.353210 H          1 MOL1         0.0753
      18    C7      19.386592   20.844908   24.973265 C.2        1 MOL1         0.6174
      19    O1      18.239581   21.093570   25.288196 O.co2      1 MOL1        -0.6695
      20    O2      20.338542   21.522979   25.305917 O.co2      1 MOL1        -0.6695
@<TRIPOS>BOND
    1     1     2    1
    2     1     3    1
    3     1     4    2
    4     4     5    1
    5     4     6    1
    6     6     7    1
    7     6     8    1
    8     6     9    1
    9     9    10    1
   10     9    11    1
   11     9    12    1
   12    12    13    1
   13    12    14    1
   14    12    15    1
   15    15    16    1
   16    15    17    1
   17    15    18    1
   18    18    19    1
   19    18    20    2
@<TRIPOS>SUBSTRUCTURE
       1 MOL1            1 RESIDUE      1      MOL     
@<SCITEGIC>MOL_PROPERTY
VConf Rank
SciTegic.value.IntegerValue
943

@<SCITEGIC>MOL_PROPERTY
Conf_Id
SciTegic.value.IntegerValue
44

@<SCITEGIC>MOL_PROPERTY
Delta U+W
SciTegic.value.DoubleValue
-1.440

@<SCITEGIC>MOL_PROPERTY
U+W
SciTegic.value.DoubleValue
-53.185

@<SCITEGIC>MOL_PROPERTY
Grad RMS
SciTegic.value.DoubleValue
0.000000

@<SCITEGIC>MOL_PROPERTY
U
SciTegic.value.DoubleValue
6.572

@<SCITEGIC>MOL_PROPERTY
W
SciTegic.value.DoubleValue
-59.757

@<SCITEGIC>MOL_PROPERTY
W(PB)
SciTegic.value.DoubleValue
-62.007

@<SCITEGIC>MOL_PROPERTY
W(SA)
SciTegic.value.DoubleValue
2.249

@<SCITEGIC>MOL_PROPERTY
Valence
SciTegic.value.DoubleValue
7.989

@<SCITEGIC>MOL_PROPERTY
Coulomb
SciTegic.value.DoubleValue
-2.697

@<SCITEGIC>MOL_PROPERTY
VdW
SciTegic.value.DoubleValue
1.281

@<SCITEGIC>MOL_PROPERTY
VdW6
SciTegic.value.DoubleValue
-6.467

@<SCITEGIC>MOL_PROPERTY
VdW12
SciTegic.value.DoubleValue
7.748

@<SCITEGIC>MOL_PROPERTY
Bond
SciTegic.value.DoubleValue
0.136

@<SCITEGIC>MOL_PROPERTY
Angle
SciTegic.value.DoubleValue
2.854

@<SCITEGIC>MOL_PROPERTY
Pdih
SciTegic.value.DoubleValue
4.997

@<SCITEGIC>MOL_PROPERTY
Idih
SciTegic.value.DoubleValue
0.001

@<SCITEGIC>MOL_PROPERTY
Tether
SciTegic.value.DoubleValue
0.000

@<TRIPOS>MOLECULE
guest-s22_confgen4.mol2 : confsearch ligand conformer 944
          20          19           1
SMALL
USER_CHARGES
 
@<TRIPOS>ATOM
       1    C1      22.467740   21.258911   21.872015 C.2        1 MOL1        -0.2535
       2    H1      21.792906   21.789740   21.202389 H          1 MOL1         0.0845
       3    H2      23.507176   21.581861   21.895023 H          1 MOL1         0.0845
       4    C2      22.041845   20.248879   22.635013 C.2        1 MOL1        -0.1324
       5    H3      22.733940   19.730351   23.298164 H          1 MOL1         0.0833
       6    C3      20.615380   19.746301   22.657604 C.3        1 MOL1        -0.1813
       7    H4      19.953418   20.482167   22.183359 H          1 MOL1         0.0753
       8    H5      20.279963   19.641737   23.698034 H          1 MOL1         0.0753
       9    C4      20.494722   18.385763   21.934875 C.3        1 MOL1        -0.1855
      10    H6      20.778518   18.503479   20.879984 H          1 MOL1         0.0755
      11    H7      21.217828   17.684680   22.373834 H          1 MOL1         0.0755
      12    C5      19.082645   17.759916   22.028030 C.3        1 MOL1        -0.1855
      13    H8      18.801433   17.632628   23.082586 H          1 MOL1         0.0755
      14    H9      19.115008   16.751758   21.592058 H          1 MOL1         0.0755
      15    C6      17.990938   18.583445   21.296571 C.3        1 MOL1        -0.1958
      16    H10     17.868001   19.565890   21.766030 H          1 MOL1         0.0753
      17    H11     18.281582   18.754840   20.253237 H          1 MOL1         0.0753
      18    C7      16.631113   17.894399   21.301479 C.2        1 MOL1         0.6174
      19    O1      16.365461   17.143054   20.384067 O.co2      1 MOL1        -0.6695
      20    O2      15.881166   18.111548   22.232681 O.co2      1 MOL1        -0.6695
@<TRIPOS>BOND
    1     1     2    1
    2     1     3    1
    3     1     4    2
    4     4     5    1
    5     4     6    1
    6     6     7    1
    7     6     8    1
    8     6     9    1
    9     9    10    1
   10     9    11    1
   11     9    12    1
   12    12    13    1
   13    12    14    1
   14    12    15    1
   15    15    16    1
   16    15    17    1
   17    15    18    1
   18    18    19    1
   19    18    20    2
@<TRIPOS>SUBSTRUCTURE
       1 MOL1            1 RESIDUE      1      MOL     
@<SCITEGIC>MOL_PROPERTY
VConf Rank
SciTegic.value.IntegerValue
944

@<SCITEGIC>MOL_PROPERTY
Conf_Id
SciTegic.value.IntegerValue
38

@<SCITEGIC>MOL_PROPERTY
Delta U+W
SciTegic.value.DoubleValue
-0.381

@<SCITEGIC>MOL_PROPERTY
U+W
SciTegic.value.DoubleValue
-52.126

@<SCITEGIC>MOL_PROPERTY
Grad RMS
SciTegic.value.DoubleValue
0.000000

@<SCITEGIC>MOL_PROPERTY
U
SciTegic.value.DoubleValue
7.601

@<SCITEGIC>MOL_PROPERTY
W
SciTegic.value.DoubleValue
-59.727

@<SCITEGIC>MOL_PROPERTY
W(PB)
SciTegic.value.DoubleValue
-61.964

@<SCITEGIC>MOL_PROPERTY
W(SA)
SciTegic.value.DoubleValue
2.236

@<SCITEGIC>MOL_PROPERTY
Valence
SciTegic.value.DoubleValue
9.602

@<SCITEGIC>MOL_PROPERTY
Coulomb
SciTegic.value.DoubleValue
-2.686

@<SCITEGIC>MOL_PROPERTY
VdW
SciTegic.value.DoubleValue
0.685

@<SCITEGIC>MOL_PROPERTY
VdW6
SciTegic.value.DoubleValue
-6.453

@<SCITEGIC>MOL_PROPERTY
VdW12
SciTegic.value.DoubleValue
7.139

@<SCITEGIC>MOL_PROPERTY
Bond
SciTegic.value.DoubleValue
0.125

@<SCITEGIC>MOL_PROPERTY
Angle
SciTegic.value.DoubleValue
2.485

@<SCITEGIC>MOL_PROPERTY
Pdih
SciTegic.value.DoubleValue
6.991

@<SCITEGIC>MOL_PROPERTY
Idih
SciTegic.value.DoubleValue
0.001

@<SCITEGIC>MOL_PROPERTY
Tether
SciTegic.value.DoubleValue
0.000

@<TRIPOS>MOLECULE
guest-s22_confgen4.mol2 : confsearch ligand conformer 945
          20          19           1
SMALL
USER_CHARGES
 
@<TRIPOS>ATOM
       1    C1      17.113867   21.498860   21.144040 C.2        1 MOL1        -0.2535
       2    H1      16.710646   21.523160   22.155178 H          1 MOL1         0.0845
       3    H2      16.872353   22.333654   20.488252 H          1 MOL1         0.0845
       4    C2      17.877191   20.487722   20.721430 C.2        1 MOL1        -0.1324
       5    H3      18.271713   20.483124   19.705560 H          1 MOL1         0.0833
       6    C3      18.253662   19.296034   21.573367 C.3        1 MOL1        -0.1813
       7    H4      18.069743   18.370283   21.011866 H          1 MOL1         0.0753
       8    H5      17.619598   19.253703   22.469421 H          1 MOL1         0.0753
       9    C4      19.736663   19.358856   21.995001 C.3        1 MOL1        -0.1855
      10    H6      20.368721   19.398741   21.097035 H          1 MOL1         0.0755
      11    H7      19.917809   20.288387   22.552164 H          1 MOL1         0.0755
      12    C5      20.138890   18.146075   22.864315 C.3        1 MOL1        -0.1855
      13    H8      19.968854   17.214936   22.305957 H          1 MOL1         0.0755
      14    H9      19.491873   18.105582   23.751057 H          1 MOL1         0.0755
      15    C6      21.618828   18.206399   23.323707 C.3        1 MOL1        -0.1958
      16    H10     21.811526   19.144020   23.859050 H          1 MOL1         0.0753
      17    H11     21.817013   17.391258   24.029572 H          1 MOL1         0.0753
      18    C7      22.627111   18.079331   22.185249 C.2        1 MOL1         0.6174
      19    O1      23.210088   19.080368   21.817779 O.co2      1 MOL1        -0.6695
      20    O2      22.810563   16.978739   21.703441 O.co2      1 MOL1        -0.6695
@<TRIPOS>BOND
    1     1     2    1
    2     1     3    1
    3     1     4    2
    4     4     5    1
    5     4     6    1
    6     6     7    1
    7     6     8    1
    8     6     9    1
    9     9    10    1
   10     9    11    1
   11     9    12    1
   12    12    13    1
   13    12    14    1
   14    12    15    1
   15    15    16    1
   16    15    17    1
   17    15    18    1
   18    18    19    1
   19    18    20    2
@<TRIPOS>SUBSTRUCTURE
       1 MOL1            1 RESIDUE      1      MOL     
@<SCITEGIC>MOL_PROPERTY
VConf Rank
SciTegic.value.IntegerValue
945

@<SCITEGIC>MOL_PROPERTY
Conf_Id
SciTegic.value.IntegerValue
58

@<SCITEGIC>MOL_PROPERTY
Delta U+W
SciTegic.value.DoubleValue
0.019

@<SCITEGIC>MOL_PROPERTY
U+W
SciTegic.value.DoubleValue
-51.727

@<SCITEGIC>MOL_PROPERTY
Grad RMS
SciTegic.value.DoubleValue
0.000000

@<SCITEGIC>MOL_PROPERTY
U
SciTegic.value.DoubleValue
8.963

@<SCITEGIC>MOL_PROPERTY
W
SciTegic.value.DoubleValue
-60.690

@<SCITEGIC>MOL_PROPERTY
W(PB)
SciTegic.value.DoubleValue
-62.934

@<SCITEGIC>MOL_PROPERTY
W(SA)
SciTegic.value.DoubleValue
2.244

@<SCITEGIC>MOL_PROPERTY
Valence
SciTegic.value.DoubleValue
9.327

@<SCITEGIC>MOL_PROPERTY
Coulomb
SciTegic.value.DoubleValue
-0.780

@<SCITEGIC>MOL_PROPERTY
VdW
SciTegic.value.DoubleValue
0.417

@<SCITEGIC>MOL_PROPERTY
VdW6
SciTegic.value.DoubleValue
-6.635

@<SCITEGIC>MOL_PROPERTY
VdW12
SciTegic.value.DoubleValue
7.052

@<SCITEGIC>MOL_PROPERTY
Bond
SciTegic.value.DoubleValue
0.105

@<SCITEGIC>MOL_PROPERTY
Angle
SciTegic.value.DoubleValue
2.399

@<SCITEGIC>MOL_PROPERTY
Pdih
SciTegic.value.DoubleValue
6.822

@<SCITEGIC>MOL_PROPERTY
Idih
SciTegic.value.DoubleValue
0.000

@<SCITEGIC>MOL_PROPERTY
Tether
SciTegic.value.DoubleValue
0.000

@<TRIPOS>MOLECULE
guest-s22_confgen4.mol2 : confsearch ligand conformer 946
          20          19           1
SMALL
USER_CHARGES
 
@<TRIPOS>ATOM
       1    C1      18.014808   17.868809   19.244120 C.2        1 MOL1        -0.2535
       2    H1      17.051632   17.906597   19.750520 H          1 MOL1         0.0845
       3    H2      18.115393   17.176368   18.410048 H          1 MOL1         0.0845
       4    C2      19.036284   18.638092   19.629421 C.2        1 MOL1        -0.1324
       5    H3      19.992586   18.584252   19.109568 H          1 MOL1         0.0833
       6    C3      18.971163   19.622018   20.776283 C.3        1 MOL1        -0.1813
       7    H4      17.926757   19.796656   21.068616 H          1 MOL1         0.0753
       8    H5      19.375106   20.590640   20.452667 H          1 MOL1         0.0753
       9    C4      19.767898   19.110823   21.994850 C.3        1 MOL1        -0.1855
      10    H6      19.364039   18.139654   22.312655 H          1 MOL1         0.0755
      11    H7      20.812532   18.939159   21.700398 H          1 MOL1         0.0755
      12    C5      19.714123   20.106578   23.175488 C.3        1 MOL1        -0.1855
      13    H8      18.666021   20.283838   23.452334 H          1 MOL1         0.0755
      14    H9      20.127282   21.076107   22.864028 H          1 MOL1         0.0755
      15    C6      20.484169   19.596562   24.421204 C.3        1 MOL1        -0.1958
      16    H10     20.315452   20.280089   25.261622 H          1 MOL1         0.0753
      17    H11     20.101477   18.615567   24.727889 H          1 MOL1         0.0753
      18    C7      21.992595   19.488785   24.216510 C.2        1 MOL1         0.6174
      19    O1      22.645264   20.514021   24.219768 O.co2      1 MOL1        -0.6695
      20    O2      22.476505   18.383585   24.070449 O.co2      1 MOL1        -0.6695
@<TRIPOS>BOND
    1     1     2    1
    2     1     3    1
    3     1     4    2
    4     4     5    1
    5     4     6    1
    6     6     7    1
    7     6     8    1
    8     6     9    1
    9     9    10    1
   10     9    11    1
   11     9    12    1
   12    12    13    1
   13    12    14    1
   14    12    15    1
   15    15    16    1
   16    15    17    1
   17    15    18    1
   18    18    19    1
   19    18    20    2
@<TRIPOS>SUBSTRUCTURE
       1 MOL1            1 RESIDUE      1      MOL     
@<SCITEGIC>MOL_PROPERTY
VConf Rank
SciTegic.value.IntegerValue
946

@<SCITEGIC>MOL_PROPERTY
Conf_Id
SciTegic.value.IntegerValue
54

@<SCITEGIC>MOL_PROPERTY
Delta U+W
SciTegic.value.DoubleValue
-0.048

@<SCITEGIC>MOL_PROPERTY
U+W
SciTegic.value.DoubleValue
-51.793

@<SCITEGIC>MOL_PROPERTY
Grad RMS
SciTegic.value.DoubleValue
0.000000

@<SCITEGIC>MOL_PROPERTY
U
SciTegic.value.DoubleValue
8.964

@<SCITEGIC>MOL_PROPERTY
W
SciTegic.value.DoubleValue
-60.756

@<SCITEGIC>MOL_PROPERTY
W(PB)
SciTegic.value.DoubleValue
-63.007

@<SCITEGIC>MOL_PROPERTY
W(SA)
SciTegic.value.DoubleValue
2.251

@<SCITEGIC>MOL_PROPERTY
Valence
SciTegic.value.DoubleValue
9.327

@<SCITEGIC>MOL_PROPERTY
Coulomb
SciTegic.value.DoubleValue
-0.780

@<SCITEGIC>MOL_PROPERTY
VdW
SciTegic.value.DoubleValue
0.417

@<SCITEGIC>MOL_PROPERTY
VdW6
SciTegic.value.DoubleValue
-6.635

@<SCITEGIC>MOL_PROPERTY
VdW12
SciTegic.value.DoubleValue
7.052

@<SCITEGIC>MOL_PROPERTY
Bond
SciTegic.value.DoubleValue
0.105

@<SCITEGIC>MOL_PROPERTY
Angle
SciTegic.value.DoubleValue
2.399

@<SCITEGIC>MOL_PROPERTY
Pdih
SciTegic.value.DoubleValue
6.822

@<SCITEGIC>MOL_PROPERTY
Idih
SciTegic.value.DoubleValue
0.000

@<SCITEGIC>MOL_PROPERTY
Tether
SciTegic.value.DoubleValue
0.000

@<TRIPOS>MOLECULE
guest-s22_confgen4.mol2 : confsearch ligand conformer 947
          20          19           1
SMALL
USER_CHARGES
 
@<TRIPOS>ATOM
       1    C1      20.028982   17.916460   18.841906 C.2        1 MOL1        -0.2535
       2    H1      19.369991   17.953773   17.976154 H          1 MOL1         0.0845
       3    H2      21.098573   18.012264   18.662171 H          1 MOL1         0.0845
       4    C2      19.540219   17.762081   20.075173 C.2        1 MOL1        -0.1324
       5    H3      18.466432   17.664588   20.232422 H          1 MOL1         0.0833
       6    C3      20.394684   17.694420   21.323036 C.3        1 MOL1        -0.1813
       7    H4      21.426968   17.435829   21.050915 H          1 MOL1         0.0753
       8    H5      20.038425   16.887726   21.977535 H          1 MOL1         0.0753
       9    C4      20.408042   19.029565   22.101117 C.3        1 MOL1        -0.1855
      10    H6      21.148212   18.957408   22.909773 H          1 MOL1         0.0755
      11    H7      20.748150   19.836077   21.437036 H          1 MOL1         0.0755
      12    C5      19.027947   19.390849   22.700212 C.3        1 MOL1        -0.1855
      13    H8      18.680888   18.577889   23.352963 H          1 MOL1         0.0755
      14    H9      18.290616   19.484405   21.892076 H          1 MOL1         0.0755
      15    C6      19.055959   20.717621   23.502754 C.3        1 MOL1        -0.1958
      16    H10     19.432748   21.532946   22.873384 H          1 MOL1         0.0753
      17    H11     18.035366   20.989314   23.796911 H          1 MOL1         0.0753
      18    C7      19.895952   20.655963   24.775327 C.2        1 MOL1         0.6174
      19    O1      20.983591   21.198265   24.774413 O.co2      1 MOL1        -0.6695
      20    O2      19.434457   20.075520   25.738252 O.co2      1 MOL1        -0.6695
@<TRIPOS>BOND
    1     1     2    1
    2     1     3    1
    3     1     4    2
    4     4     5    1
    5     4     6    1
    6     6     7    1
    7     6     8    1
    8     6     9    1
    9     9    10    1
   10     9    11    1
   11     9    12    1
   12    12    13    1
   13    12    14    1
   14    12    15    1
   15    15    16    1
   16    15    17    1
   17    15    18    1
   18    18    19    1
   19    18    20    2
@<TRIPOS>SUBSTRUCTURE
       1 MOL1            1 RESIDUE      1      MOL     
@<SCITEGIC>MOL_PROPERTY
VConf Rank
SciTegic.value.IntegerValue
947

@<SCITEGIC>MOL_PROPERTY
Conf_Id
SciTegic.value.IntegerValue
27

@<SCITEGIC>MOL_PROPERTY
Delta U+W
SciTegic.value.DoubleValue
0.478

@<SCITEGIC>MOL_PROPERTY
U+W
SciTegic.value.DoubleValue
-51.267

@<SCITEGIC>MOL_PROPERTY
Grad RMS
SciTegic.value.DoubleValue
0.000000

@<SCITEGIC>MOL_PROPERTY
U
SciTegic.value.DoubleValue
9.192

@<SCITEGIC>MOL_PROPERTY
W
SciTegic.value.DoubleValue
-60.459

@<SCITEGIC>MOL_PROPERTY
W(PB)
SciTegic.value.DoubleValue
-62.649

@<SCITEGIC>MOL_PROPERTY
W(SA)
SciTegic.value.DoubleValue
2.190

@<SCITEGIC>MOL_PROPERTY
Valence
SciTegic.value.DoubleValue
9.572

@<SCITEGIC>MOL_PROPERTY
Coulomb
SciTegic.value.DoubleValue
-0.884

@<SCITEGIC>MOL_PROPERTY
VdW
SciTegic.value.DoubleValue
0.504

@<SCITEGIC>MOL_PROPERTY
VdW6
SciTegic.value.DoubleValue
-7.168

@<SCITEGIC>MOL_PROPERTY
VdW12
SciTegic.value.DoubleValue
7.672

@<SCITEGIC>MOL_PROPERTY
Bond
SciTegic.value.DoubleValue
0.127

@<SCITEGIC>MOL_PROPERTY
Angle
SciTegic.value.DoubleValue
2.504

@<SCITEGIC>MOL_PROPERTY
Pdih
SciTegic.value.DoubleValue
6.941

@<SCITEGIC>MOL_PROPERTY
Idih
SciTegic.value.DoubleValue
0.001

@<SCITEGIC>MOL_PROPERTY
Tether
SciTegic.value.DoubleValue
0.000

@<TRIPOS>MOLECULE
guest-s22_confgen4.mol2 : confsearch ligand conformer 948
          20          19           1
SMALL
USER_CHARGES
 
@<TRIPOS>ATOM
       1    C1      22.400312   20.416060   20.811845 C.2        1 MOL1        -0.2535
       2    H1      22.814919   19.811424   20.006846 H          1 MOL1         0.0845
       3    H2      23.093261   21.027519   21.387290 H          1 MOL1         0.0845
       4    C2      21.093643   20.408271   21.087951 C.2        1 MOL1        -0.1324
       5    H3      20.699160   21.023480   21.896154 H          1 MOL1         0.0833
       6    C3      20.071727   19.589716   20.328047 C.3        1 MOL1        -0.1813
       7    H4      20.480847   19.302082   19.350068 H          1 MOL1         0.0753
       8    H5      19.182289   20.199890   20.121531 H          1 MOL1         0.0753
       9    C4      19.660562   18.308996   21.088810 C.3        1 MOL1        -0.1855
      10    H6      19.025069   17.697348   20.433896 H          1 MOL1         0.0755
      11    H7      20.556055   17.710593   21.306324 H          1 MOL1         0.0755
      12    C5      18.898556   18.607427   22.400422 C.3        1 MOL1        -0.1855
      13    H8      18.017631   19.227650   22.184430 H          1 MOL1         0.0755
      14    H9      19.537089   19.185852   23.081879 H          1 MOL1         0.0755
      15    C6      18.447231   17.308137   23.111906 C.3        1 MOL1        -0.1958
      16    H10     17.794057   16.722702   22.453752 H          1 MOL1         0.0753
      17    H11     19.317363   16.682837   23.345315 H          1 MOL1         0.0753
      18    C7      17.693967   17.575445   24.410054 C.2        1 MOL1         0.6174
      19    O1      18.334523   17.651788   25.439869 O.co2      1 MOL1        -0.6695
      20    O2      16.488407   17.717767   24.354659 O.co2      1 MOL1        -0.6695
@<TRIPOS>BOND
    1     1     2    1
    2     1     3    1
    3     1     4    2
    4     4     5    1
    5     4     6    1
    6     6     7    1
    7     6     8    1
    8     6     9    1
    9     9    10    1
   10     9    11    1
   11     9    12    1
   12    12    13    1
   13    12    14    1
   14    12    15    1
   15    15    16    1
   16    15    17    1
   17    15    18    1
   18    18    19    1
   19    18    20    2
@<TRIPOS>SUBSTRUCTURE
       1 MOL1            1 RESIDUE      1      MOL     
@<SCITEGIC>MOL_PROPERTY
VConf Rank
SciTegic.value.IntegerValue
948

@<SCITEGIC>MOL_PROPERTY
Conf_Id
SciTegic.value.IntegerValue
41

@<SCITEGIC>MOL_PROPERTY
Delta U+W
SciTegic.value.DoubleValue
-0.634

@<SCITEGIC>MOL_PROPERTY
U+W
SciTegic.value.DoubleValue
-52.379

@<SCITEGIC>MOL_PROPERTY
Grad RMS
SciTegic.value.DoubleValue
0.000000

@<SCITEGIC>MOL_PROPERTY
U
SciTegic.value.DoubleValue
7.828

@<SCITEGIC>MOL_PROPERTY
W
SciTegic.value.DoubleValue
-60.207

@<SCITEGIC>MOL_PROPERTY
W(PB)
SciTegic.value.DoubleValue
-62.449

@<SCITEGIC>MOL_PROPERTY
W(SA)
SciTegic.value.DoubleValue
2.242

@<SCITEGIC>MOL_PROPERTY
Valence
SciTegic.value.DoubleValue
9.300

@<SCITEGIC>MOL_PROPERTY
Coulomb
SciTegic.value.DoubleValue
-2.080

@<SCITEGIC>MOL_PROPERTY
VdW
SciTegic.value.DoubleValue
0.608

@<SCITEGIC>MOL_PROPERTY
VdW6
SciTegic.value.DoubleValue
-6.341

@<SCITEGIC>MOL_PROPERTY
VdW12
SciTegic.value.DoubleValue
6.949

@<SCITEGIC>MOL_PROPERTY
Bond
SciTegic.value.DoubleValue
0.103

@<SCITEGIC>MOL_PROPERTY
Angle
SciTegic.value.DoubleValue
2.334

@<SCITEGIC>MOL_PROPERTY
Pdih
SciTegic.value.DoubleValue
6.862

@<SCITEGIC>MOL_PROPERTY
Idih
SciTegic.value.DoubleValue
0.001

@<SCITEGIC>MOL_PROPERTY
Tether
SciTegic.value.DoubleValue
0.000

@<TRIPOS>MOLECULE
guest-s22_confgen4.mol2 : confsearch ligand conformer 949
          20          19           1
SMALL
USER_CHARGES
 
@<TRIPOS>ATOM
       1    C1      19.767003   20.457702   25.221286 C.2        1 MOL1        -0.2535
       2    H1      20.272313   20.701786   26.154197 H          1 MOL1         0.0845
       3    H2      18.895810   21.053035   24.952674 H          1 MOL1         0.0845
       4    C2      20.203375   19.467331   24.438687 C.2        1 MOL1        -0.1324
       5    H3      21.077870   18.883504   24.725161 H          1 MOL1         0.0833
       6    C3      19.553962   19.070244   23.131712 C.3        1 MOL1        -0.1813
       7    H4      18.555949   19.521611   23.050395 H          1 MOL1         0.0753
       8    H5      19.414349   17.981569   23.115887 H          1 MOL1         0.0753
       9    C4      20.417889   19.507363   21.927663 C.3        1 MOL1        -0.1855
      10    H6      20.630278   20.581787   22.015206 H          1 MOL1         0.0755
      11    H7      21.389891   18.996666   21.968379 H          1 MOL1         0.0755
      12    C5      19.745429   19.248041   20.556991 C.3        1 MOL1        -0.1855
      13    H8      20.388411   19.656104   19.764877 H          1 MOL1         0.0755
      14    H9      18.801645   19.807532   20.505509 H          1 MOL1         0.0755
      15    C6      19.467108   17.750911   20.251117 C.3        1 MOL1        -0.1958
      16    H10     18.767092   17.329988   20.981738 H          1 MOL1         0.0753
      17    H11     18.981911   17.664835   19.271893 H          1 MOL1         0.0753
      18    C7      20.719100   16.879148   20.215327 C.2        1 MOL1         0.6174
      19    O1      21.475248   17.001941   19.271628 O.co2      1 MOL1        -0.6695
      20    O2      20.896568   16.088479   21.121032 O.co2      1 MOL1        -0.6695
@<TRIPOS>BOND
    1     1     2    1
    2     1     3    1
    3     1     4    2
    4     4     5    1
    5     4     6    1
    6     6     7    1
    7     6     8    1
    8     6     9    1
    9     9    10    1
   10     9    11    1
   11     9    12    1
   12    12    13    1
   13    12    14    1
   14    12    15    1
   15    15    16    1
   16    15    17    1
   17    15    18    1
   18    18    19    1
   19    18    20    2
@<TRIPOS>SUBSTRUCTURE
       1 MOL1            1 RESIDUE      1      MOL     
@<SCITEGIC>MOL_PROPERTY
VConf Rank
SciTegic.value.IntegerValue
949

@<SCITEGIC>MOL_PROPERTY
Conf_Id
SciTegic.value.IntegerValue
84

@<SCITEGIC>MOL_PROPERTY
Delta U+W
SciTegic.value.DoubleValue
0.942

@<SCITEGIC>MOL_PROPERTY
U+W
SciTegic.value.DoubleValue
-50.803

@<SCITEGIC>MOL_PROPERTY
Grad RMS
SciTegic.value.DoubleValue
0.000000

@<SCITEGIC>MOL_PROPERTY
U
SciTegic.value.DoubleValue
10.196

@<SCITEGIC>MOL_PROPERTY
W
SciTegic.value.DoubleValue
-60.999

@<SCITEGIC>MOL_PROPERTY
W(PB)
SciTegic.value.DoubleValue
-63.182

@<SCITEGIC>MOL_PROPERTY
W(SA)
SciTegic.value.DoubleValue
2.182

@<SCITEGIC>MOL_PROPERTY
Valence
SciTegic.value.DoubleValue
9.837

@<SCITEGIC>MOL_PROPERTY
Coulomb
SciTegic.value.DoubleValue
0.032

@<SCITEGIC>MOL_PROPERTY
VdW
SciTegic.value.DoubleValue
0.328

@<SCITEGIC>MOL_PROPERTY
VdW6
SciTegic.value.DoubleValue
-7.642

@<SCITEGIC>MOL_PROPERTY
VdW12
SciTegic.value.DoubleValue
7.969

@<SCITEGIC>MOL_PROPERTY
Bond
SciTegic.value.DoubleValue
0.151

@<SCITEGIC>MOL_PROPERTY
Angle
SciTegic.value.DoubleValue
2.748

@<SCITEGIC>MOL_PROPERTY
Pdih
SciTegic.value.DoubleValue
6.937

@<SCITEGIC>MOL_PROPERTY
Idih
SciTegic.value.DoubleValue
0.001

@<SCITEGIC>MOL_PROPERTY
Tether
SciTegic.value.DoubleValue
0.000

@<TRIPOS>MOLECULE
guest-s22_confgen4.mol2 : confsearch ligand conformer 950
          20          19           1
SMALL
USER_CHARGES
 
@<TRIPOS>ATOM
       1    C1      19.630000   21.889749   19.836380 C.2        1 MOL1        -0.2535
       2    H1      20.181837   22.746137   19.452535 H          1 MOL1         0.0845
       3    H2      19.172954   21.221152   19.108596 H          1 MOL1         0.0845
       4    C2      19.522466   21.670206   21.149354 C.2        1 MOL1        -0.1324
       5    H3      19.988287   22.351277   21.861245 H          1 MOL1         0.0833
       6    C3      18.772705   20.504780   21.755411 C.3        1 MOL1        -0.1813
       7    H4      18.132615   20.029861   20.999418 H          1 MOL1         0.0753
       8    H5      18.107169   20.869259   22.549326 H          1 MOL1         0.0753
       9    C4      19.745774   19.457129   22.335604 C.3        1 MOL1        -0.1855
      10    H6      20.412505   19.101676   21.537606 H          1 MOL1         0.0755
      11    H7      20.383545   19.930444   23.094729 H          1 MOL1         0.0755
      12    C5      18.994913   18.260510   22.962218 C.3        1 MOL1        -0.1855
      13    H8      18.366581   17.775942   22.201886 H          1 MOL1         0.0755
      14    H9      18.317406   18.627632   23.745018 H          1 MOL1         0.0755
      15    C6      19.955209   17.210975   23.579625 C.3        1 MOL1        -0.1958
      16    H10     20.608362   17.685380   24.322042 H          1 MOL1         0.0753
      17    H11     19.372712   16.448647   24.110217 H          1 MOL1         0.0753
      18    C7      20.825969   16.488760   22.555381 C.2        1 MOL1         0.6174
      19    O1      21.999718   16.794600   22.479571 O.co2      1 MOL1        -0.6695
      20    O2      20.308846   15.629295   21.869080 O.co2      1 MOL1        -0.6695
@<TRIPOS>BOND
    1     1     2    1
    2     1     3    1
    3     1     4    2
    4     4     5    1
    5     4     6    1
    6     6     7    1
    7     6     8    1
    8     6     9    1
    9     9    10    1
   10     9    11    1
   11     9    12    1
   12    12    13    1
   13    12    14    1
   14    12    15    1
   15    15    16    1
   16    15    17    1
   17    15    18    1
   18    18    19    1
   19    18    20    2
@<TRIPOS>SUBSTRUCTURE
       1 MOL1            1 RESIDUE      1      MOL     
@<SCITEGIC>MOL_PROPERTY
VConf Rank
SciTegic.value.IntegerValue
950

@<SCITEGIC>MOL_PROPERTY
Conf_Id
SciTegic.value.IntegerValue
81

@<SCITEGIC>MOL_PROPERTY
Delta U+W
SciTegic.value.DoubleValue
-0.051

@<SCITEGIC>MOL_PROPERTY
U+W
SciTegic.value.DoubleValue
-51.796

@<SCITEGIC>MOL_PROPERTY
Grad RMS
SciTegic.value.DoubleValue
0.000000

@<SCITEGIC>MOL_PROPERTY
U
SciTegic.value.DoubleValue
9.412

@<SCITEGIC>MOL_PROPERTY
W
SciTegic.value.DoubleValue
-61.209

@<SCITEGIC>MOL_PROPERTY
W(PB)
SciTegic.value.DoubleValue
-63.452

@<SCITEGIC>MOL_PROPERTY
W(SA)
SciTegic.value.DoubleValue
2.243

@<SCITEGIC>MOL_PROPERTY
Valence
SciTegic.value.DoubleValue
9.329

@<SCITEGIC>MOL_PROPERTY
Coulomb
SciTegic.value.DoubleValue
-0.323

@<SCITEGIC>MOL_PROPERTY
VdW
SciTegic.value.DoubleValue
0.406

@<SCITEGIC>MOL_PROPERTY
VdW6
SciTegic.value.DoubleValue
-6.640

@<SCITEGIC>MOL_PROPERTY
VdW12
SciTegic.value.DoubleValue
7.046

@<SCITEGIC>MOL_PROPERTY
Bond
SciTegic.value.DoubleValue
0.105

@<SCITEGIC>MOL_PROPERTY
Angle
SciTegic.value.DoubleValue
2.401

@<SCITEGIC>MOL_PROPERTY
Pdih
SciTegic.value.DoubleValue
6.823

@<SCITEGIC>MOL_PROPERTY
Idih
SciTegic.value.DoubleValue
0.000

@<SCITEGIC>MOL_PROPERTY
Tether
SciTegic.value.DoubleValue
0.000

@<TRIPOS>MOLECULE
guest-s22_confgen4.mol2 : confsearch ligand conformer 951
          20          19           1
SMALL
USER_CHARGES
 
@<TRIPOS>ATOM
       1    C1      16.829368   18.153784   23.338712 C.2        1 MOL1        -0.2535
       2    H1      16.098145   18.104822   22.533493 H          1 MOL1         0.0845
       3    H2      16.576070   17.662044   24.276355 H          1 MOL1         0.0845
       4    C2      17.994163   18.788888   23.185179 C.2        1 MOL1        -0.1324
       5    H3      18.711278   18.828200   24.004584 H          1 MOL1         0.0833
       6    C3      18.412326   19.498532   21.915111 C.3        1 MOL1        -0.1813
       7    H4      18.844851   20.478242   22.155989 H          1 MOL1         0.0753
       8    H5      17.527505   19.705797   21.298387 H          1 MOL1         0.0753
       9    C4      19.412197   18.667811   21.075548 C.3        1 MOL1        -0.1855
      10    H6      18.926460   17.729950   20.773370 H          1 MOL1         0.0755
      11    H7      19.632343   19.209670   20.145550 H          1 MOL1         0.0755
      12    C5      20.742201   18.331033   21.797877 C.3        1 MOL1        -0.1855
      13    H8      21.362119   17.720563   21.126901 H          1 MOL1         0.0755
      14    H9      20.534366   17.702788   22.674124 H          1 MOL1         0.0755
      15    C6      21.563742   19.571557   22.243255 C.3        1 MOL1        -0.1958
      16    H10     21.002171   20.164672   22.973934 H          1 MOL1         0.0753
      17    H11     22.477143   19.239127   22.750005 H          1 MOL1         0.0753
      18    C7      21.987082   20.483184   21.095098 C.2        1 MOL1         0.6174
      19    O1      21.444018   21.565162   20.987913 O.co2      1 MOL1        -0.6695
      20    O2      22.862682   20.093213   20.347630 O.co2      1 MOL1        -0.6695
@<TRIPOS>BOND
    1     1     2    1
    2     1     3    1
    3     1     4    2
    4     4     5    1
    5     4     6    1
    6     6     7    1
    7     6     8    1
    8     6     9    1
    9     9    10    1
   10     9    11    1
   11     9    12    1
   12    12    13    1
   13    12    14    1
   14    12    15    1
   15    15    16    1
   16    15    17    1
   17    15    18    1
   18    18    19    1
   19    18    20    2
@<TRIPOS>SUBSTRUCTURE
       1 MOL1            1 RESIDUE      1      MOL     
@<SCITEGIC>MOL_PROPERTY
VConf Rank
SciTegic.value.IntegerValue
951

@<SCITEGIC>MOL_PROPERTY
Conf_Id
SciTegic.value.IntegerValue
86

@<SCITEGIC>MOL_PROPERTY
Delta U+W
SciTegic.value.DoubleValue
1.248

@<SCITEGIC>MOL_PROPERTY
U+W
SciTegic.value.DoubleValue
-50.498

@<SCITEGIC>MOL_PROPERTY
Grad RMS
SciTegic.value.DoubleValue
0.000000

@<SCITEGIC>MOL_PROPERTY
U
SciTegic.value.DoubleValue
10.404

@<SCITEGIC>MOL_PROPERTY
W
SciTegic.value.DoubleValue
-60.901

@<SCITEGIC>MOL_PROPERTY
W(PB)
SciTegic.value.DoubleValue
-63.061

@<SCITEGIC>MOL_PROPERTY
W(SA)
SciTegic.value.DoubleValue
2.159

@<SCITEGIC>MOL_PROPERTY
Valence
SciTegic.value.DoubleValue
10.021

@<SCITEGIC>MOL_PROPERTY
Coulomb
SciTegic.value.DoubleValue
0.094

@<SCITEGIC>MOL_PROPERTY
VdW
SciTegic.value.DoubleValue
0.289

@<SCITEGIC>MOL_PROPERTY
VdW6
SciTegic.value.DoubleValue
-8.409

@<SCITEGIC>MOL_PROPERTY
VdW12
SciTegic.value.DoubleValue
8.698

@<SCITEGIC>MOL_PROPERTY
Bond
SciTegic.value.DoubleValue
0.179

@<SCITEGIC>MOL_PROPERTY
Angle
SciTegic.value.DoubleValue
2.939

@<SCITEGIC>MOL_PROPERTY
Pdih
SciTegic.value.DoubleValue
6.902

@<SCITEGIC>MOL_PROPERTY
Idih
SciTegic.value.DoubleValue
0.001

@<SCITEGIC>MOL_PROPERTY
Tether
SciTegic.value.DoubleValue
0.000

@<TRIPOS>MOLECULE
guest-s22_confgen4.mol2 : confsearch ligand conformer 952
          20          19           1
SMALL
USER_CHARGES
 
@<TRIPOS>ATOM
       1    C1      21.077966   17.037618   19.998976 C.2        1 MOL1        -0.2535
       2    H1      21.846029   16.266170   19.991813 H          1 MOL1         0.0845
       3    H2      20.069970   16.744068   19.710539 H          1 MOL1         0.0845
       4    C2      21.364342   18.293556   20.352012 C.2        1 MOL1        -0.1324
       5    H3      22.379416   18.566209   20.639544 H          1 MOL1         0.0833
       6    C3      20.351395   19.418187   20.386622 C.3        1 MOL1        -0.1813
       7    H4      19.417190   19.112801   19.896050 H          1 MOL1         0.0753
       8    H5      20.739960   20.268465   19.810544 H          1 MOL1         0.0753
       9    C4      20.047284   19.889612   21.826530 C.3        1 MOL1        -0.1855
      10    H6      20.981637   20.191541   22.319224 H          1 MOL1         0.0755
      11    H7      19.415383   20.787002   21.777512 H          1 MOL1         0.0755
      12    C5      19.335607   18.806475   22.671474 C.3        1 MOL1        -0.1855
      13    H8      19.969239   17.911214   22.727036 H          1 MOL1         0.0755
      14    H9      18.403073   18.502020   22.176460 H          1 MOL1         0.0755
      15    C6      19.020675   19.285399   24.112474 C.3        1 MOL1        -0.1958
      16    H10     18.631755   18.445831   24.700529 H          1 MOL1         0.0753
      17    H11     19.938838   19.622363   24.608669 H          1 MOL1         0.0753
      18    C7      17.988983   20.407679   24.181922 C.2        1 MOL1         0.6174
      19    O1      16.819105   20.120711   24.020173 O.co2      1 MOL1        -0.6695
      20    O2      18.379858   21.536235   24.407010 O.co2      1 MOL1        -0.6695
@<TRIPOS>BOND
    1     1     2    1
    2     1     3    1
    3     1     4    2
    4     4     5    1
    5     4     6    1
    6     6     7    1
    7     6     8    1
    8     6     9    1
    9     9    10    1
   10     9    11    1
   11     9    12    1
   12    12    13    1
   13    12    14    1
   14    12    15    1
   15    15    16    1
   16    15    17    1
   17    15    18    1
   18    18    19    1
   19    18    20    2
@<TRIPOS>SUBSTRUCTURE
       1 MOL1            1 RESIDUE      1      MOL     
@<SCITEGIC>MOL_PROPERTY
VConf Rank
SciTegic.value.IntegerValue
952

@<SCITEGIC>MOL_PROPERTY
Conf_Id
SciTegic.value.IntegerValue
28

@<SCITEGIC>MOL_PROPERTY
Delta U+W
SciTegic.value.DoubleValue
0.446

@<SCITEGIC>MOL_PROPERTY
U+W
SciTegic.value.DoubleValue
-51.299

@<SCITEGIC>MOL_PROPERTY
Grad RMS
SciTegic.value.DoubleValue
0.000000

@<SCITEGIC>MOL_PROPERTY
U
SciTegic.value.DoubleValue
9.295

@<SCITEGIC>MOL_PROPERTY
W
SciTegic.value.DoubleValue
-60.594

@<SCITEGIC>MOL_PROPERTY
W(PB)
SciTegic.value.DoubleValue
-62.806

@<SCITEGIC>MOL_PROPERTY
W(SA)
SciTegic.value.DoubleValue
2.212

@<SCITEGIC>MOL_PROPERTY
Valence
SciTegic.value.DoubleValue
9.495

@<SCITEGIC>MOL_PROPERTY
Coulomb
SciTegic.value.DoubleValue
-0.610

@<SCITEGIC>MOL_PROPERTY
VdW
SciTegic.value.DoubleValue
0.409

@<SCITEGIC>MOL_PROPERTY
VdW6
SciTegic.value.DoubleValue
-7.332

@<SCITEGIC>MOL_PROPERTY
VdW12
SciTegic.value.DoubleValue
7.741

@<SCITEGIC>MOL_PROPERTY
Bond
SciTegic.value.DoubleValue
0.126

@<SCITEGIC>MOL_PROPERTY
Angle
SciTegic.value.DoubleValue
2.497

@<SCITEGIC>MOL_PROPERTY
Pdih
SciTegic.value.DoubleValue
6.872

@<SCITEGIC>MOL_PROPERTY
Idih
SciTegic.value.DoubleValue
0.000

@<SCITEGIC>MOL_PROPERTY
Tether
SciTegic.value.DoubleValue
0.000

@<TRIPOS>MOLECULE
guest-s22_confgen4.mol2 : confsearch ligand conformer 953
          20          19           1
SMALL
USER_CHARGES
 
@<TRIPOS>ATOM
       1    C1      22.332479   17.562782   22.928419 C.2        1 MOL1        -0.2535
       2    H1      21.495644   16.874961   22.827894 H          1 MOL1         0.0845
       3    H2      23.318573   17.120793   23.060339 H          1 MOL1         0.0845
       4    C2      22.178660   18.891269   22.890519 C.2        1 MOL1        -0.1324
       5    H3      23.055965   19.529279   22.994537 H          1 MOL1         0.0833
       6    C3      20.874089   19.650769   22.715276 C.3        1 MOL1        -0.1813
       7    H4      20.937316   20.238582   21.790539 H          1 MOL1         0.0753
       8    H5      20.781410   20.381859   23.529322 H          1 MOL1         0.0753
       9    C4      19.602658   18.766940   22.685111 C.3        1 MOL1        -0.1855
      10    H6      19.643775   18.090522   21.820275 H          1 MOL1         0.0755
      11    H7      19.587381   18.131513   23.581042 H          1 MOL1         0.0755
      12    C5      18.285479   19.580969   22.646911 C.3        1 MOL1        -0.1855
      13    H8      18.227694   20.217946   23.539833 H          1 MOL1         0.0755
      14    H9      17.438132   18.884368   22.711401 H          1 MOL1         0.0755
      15    C6      18.109116   20.462634   21.380332 C.3        1 MOL1        -0.1958
      16    H10     17.159740   21.006619   21.446838 H          1 MOL1         0.0753
      17    H11     18.897428   21.221748   21.323692 H          1 MOL1         0.0753
      18    C7      18.090522   19.678019   20.071540 C.2        1 MOL1         0.6174
      19    O1      17.121732   18.983388   19.834088 O.co2      1 MOL1        -0.6695
      20    O2      19.033911   19.797781   19.314880 O.co2      1 MOL1        -0.6695
@<TRIPOS>BOND
    1     1     2    1
    2     1     3    1
    3     1     4    2
    4     4     5    1
    5     4     6    1
    6     6     7    1
    7     6     8    1
    8     6     9    1
    9     9    10    1
   10     9    11    1
   11     9    12    1
   12    12    13    1
   13    12    14    1
   14    12    15    1
   15    15    16    1
   16    15    17    1
   17    15    18    1
   18    18    19    1
   19    18    20    2
@<TRIPOS>SUBSTRUCTURE
       1 MOL1            1 RESIDUE      1      MOL     
@<SCITEGIC>MOL_PROPERTY
VConf Rank
SciTegic.value.IntegerValue
953

@<SCITEGIC>MOL_PROPERTY
Conf_Id
SciTegic.value.IntegerValue
53

@<SCITEGIC>MOL_PROPERTY
Delta U+W
SciTegic.value.DoubleValue
0.549

@<SCITEGIC>MOL_PROPERTY
U+W
SciTegic.value.DoubleValue
-51.197

@<SCITEGIC>MOL_PROPERTY
Grad RMS
SciTegic.value.DoubleValue
0.000000

@<SCITEGIC>MOL_PROPERTY
U
SciTegic.value.DoubleValue
10.870

@<SCITEGIC>MOL_PROPERTY
W
SciTegic.value.DoubleValue
-62.067

@<SCITEGIC>MOL_PROPERTY
W(PB)
SciTegic.value.DoubleValue
-64.228

@<SCITEGIC>MOL_PROPERTY
W(SA)
SciTegic.value.DoubleValue
2.161

@<SCITEGIC>MOL_PROPERTY
Valence
SciTegic.value.DoubleValue
8.803

@<SCITEGIC>MOL_PROPERTY
Coulomb
SciTegic.value.DoubleValue
1.020

@<SCITEGIC>MOL_PROPERTY
VdW
SciTegic.value.DoubleValue
1.048

@<SCITEGIC>MOL_PROPERTY
VdW6
SciTegic.value.DoubleValue
-8.312

@<SCITEGIC>MOL_PROPERTY
VdW12
SciTegic.value.DoubleValue
9.360

@<SCITEGIC>MOL_PROPERTY
Bond
SciTegic.value.DoubleValue
0.212

@<SCITEGIC>MOL_PROPERTY
Angle
SciTegic.value.DoubleValue
3.379

@<SCITEGIC>MOL_PROPERTY
Pdih
SciTegic.value.DoubleValue
5.211

@<SCITEGIC>MOL_PROPERTY
Idih
SciTegic.value.DoubleValue
0.001

@<SCITEGIC>MOL_PROPERTY
Tether
SciTegic.value.DoubleValue
0.000

@<TRIPOS>MOLECULE
guest-s22_confgen4.mol2 : confsearch ligand conformer 954
          20          19           1
SMALL
USER_CHARGES
 
@<TRIPOS>ATOM
       1    C1      19.594901   19.093175   24.854290 C.2        1 MOL1        -0.2535
       2    H1      18.780840   18.391559   24.685948 H          1 MOL1         0.0845
       3    H2      19.522659   19.732486   25.732348 H          1 MOL1         0.0845
       4    C2      20.646706   19.173973   24.032199 C.2        1 MOL1        -0.1324
       5    H3      21.436866   19.892468   24.248338 H          1 MOL1         0.0833
       6    C3      20.873456   18.351901   22.774157 C.3        1 MOL1        -0.1813
       7    H4      21.552442   17.522903   23.013202 H          1 MOL1         0.0753
       8    H5      21.422262   18.960434   22.044034 H          1 MOL1         0.0753
       9    C4      19.598369   17.787022   22.095306 C.3        1 MOL1        -0.1855
      10    H6      19.903270   17.156939   21.248625 H          1 MOL1         0.0755
      11    H7      19.081577   17.114055   22.791988 H          1 MOL1         0.0755
      12    C5      18.602117   18.862089   21.586809 C.3        1 MOL1        -0.1855
      13    H8      18.232298   19.453266   22.434333 H          1 MOL1         0.0755
      14    H9      17.724230   18.355341   21.163087 H          1 MOL1         0.0755
      15    C6      19.184454   19.825401   20.516653 C.3        1 MOL1        -0.1958
      16    H10     18.414800   20.548441   20.222694 H          1 MOL1         0.0753
      17    H11     20.013631   20.408537   20.933089 H          1 MOL1         0.0753
      18    C7      19.663815   19.130224   19.245681 C.2        1 MOL1         0.6174
      19    O1      20.860126   19.060673   19.042806 O.co2      1 MOL1        -0.6695
      20    O2      18.825748   18.691899   18.482121 O.co2      1 MOL1        -0.6695
@<TRIPOS>BOND
    1     1     2    1
    2     1     3    1
    3     1     4    2
    4     4     5    1
    5     4     6    1
    6     6     7    1
    7     6     8    1
    8     6     9    1
    9     9    10    1
   10     9    11    1
   11     9    12    1
   12    12    13    1
   13    12    14    1
   14    12    15    1
   15    15    16    1
   16    15    17    1
   17    15    18    1
   18    18    19    1
   19    18    20    2
@<TRIPOS>SUBSTRUCTURE
       1 MOL1            1 RESIDUE      1      MOL     
@<SCITEGIC>MOL_PROPERTY
VConf Rank
SciTegic.value.IntegerValue
954

@<SCITEGIC>MOL_PROPERTY
Conf_Id
SciTegic.value.IntegerValue
66

@<SCITEGIC>MOL_PROPERTY
Delta U+W
SciTegic.value.DoubleValue
1.737

@<SCITEGIC>MOL_PROPERTY
U+W
SciTegic.value.DoubleValue
-50.008

@<SCITEGIC>MOL_PROPERTY
Grad RMS
SciTegic.value.DoubleValue
0.000000

@<SCITEGIC>MOL_PROPERTY
U
SciTegic.value.DoubleValue
11.091

@<SCITEGIC>MOL_PROPERTY
W
SciTegic.value.DoubleValue
-61.099

@<SCITEGIC>MOL_PROPERTY
W(PB)
SciTegic.value.DoubleValue
-63.213

@<SCITEGIC>MOL_PROPERTY
W(SA)
SciTegic.value.DoubleValue
2.114

@<SCITEGIC>MOL_PROPERTY
Valence
SciTegic.value.DoubleValue
9.664

@<SCITEGIC>MOL_PROPERTY
Coulomb
SciTegic.value.DoubleValue
0.658

@<SCITEGIC>MOL_PROPERTY
VdW
SciTegic.value.DoubleValue
0.769

@<SCITEGIC>MOL_PROPERTY
VdW6
SciTegic.value.DoubleValue
-9.171

@<SCITEGIC>MOL_PROPERTY
VdW12
SciTegic.value.DoubleValue
9.940

@<SCITEGIC>MOL_PROPERTY
Bond
SciTegic.value.DoubleValue
0.244

@<SCITEGIC>MOL_PROPERTY
Angle
SciTegic.value.DoubleValue
3.658

@<SCITEGIC>MOL_PROPERTY
Pdih
SciTegic.value.DoubleValue
5.762

@<SCITEGIC>MOL_PROPERTY
Idih
SciTegic.value.DoubleValue
0.001

@<SCITEGIC>MOL_PROPERTY
Tether
SciTegic.value.DoubleValue
0.000

@<TRIPOS>MOLECULE
guest-s22_confgen4.mol2 : confsearch ligand conformer 955
          20          19           1
SMALL
USER_CHARGES
 
@<TRIPOS>ATOM
       1    C1      18.366660   18.124061   19.725085 C.2        1 MOL1        -0.2535
       2    H1      17.517990   18.510328   20.285211 H          1 MOL1         0.0845
       3    H2      18.327931   18.220289   18.641491 H          1 MOL1         0.0845
       4    C2      19.414903   17.549194   20.324746 C.2        1 MOL1        -0.1324
       5    H3      20.237385   17.177060   19.714516 H          1 MOL1         0.0833
       6    C3      19.606171   17.353012   21.819914 C.3        1 MOL1        -0.1813
       7    H4      20.672990   17.449397   22.057096 H          1 MOL1         0.0753
       8    H5      19.355894   16.313936   22.071442 H          1 MOL1         0.0753
       9    C4      18.797996   18.307020   22.738086 C.3        1 MOL1        -0.1855
      10    H6      17.724917   18.174300   22.547354 H          1 MOL1         0.0755
      11    H7      18.952517   18.004406   23.782680 H          1 MOL1         0.0755
      12    C5      19.163781   19.806641   22.596526 C.3        1 MOL1        -0.1855
      13    H8      18.478585   20.394340   23.222863 H          1 MOL1         0.0755
      14    H9      18.999553   20.141839   21.563922 H          1 MOL1         0.0755
      15    C6      20.621247   20.131317   23.015208 C.3        1 MOL1        -0.1958
      16    H10     20.817400   19.757488   24.027101 H          1 MOL1         0.0753
      17    H11     21.333175   19.640873   22.341809 H          1 MOL1         0.0753
      18    C7      20.920463   21.626118   22.998307 C.2        1 MOL1         0.6174
      19    O1      21.367267   22.111725   21.977864 O.co2      1 MOL1        -0.6695
      20    O2      20.685272   22.269034   24.002437 O.co2      1 MOL1        -0.6695
@<TRIPOS>BOND
    1     1     2    1
    2     1     3    1
    3     1     4    2
    4     4     5    1
    5     4     6    1
    6     6     7    1
    7     6     8    1
    8     6     9    1
    9     9    10    1
   10     9    11    1
   11     9    12    1
   12    12    13    1
   13    12    14    1
   14    12    15    1
   15    15    16    1
   16    15    17    1
   17    15    18    1
   18    18    19    1
   19    18    20    2
@<TRIPOS>SUBSTRUCTURE
       1 MOL1            1 RESIDUE      1      MOL     
@<SCITEGIC>MOL_PROPERTY
VConf Rank
SciTegic.value.IntegerValue
955

@<SCITEGIC>MOL_PROPERTY
Conf_Id
SciTegic.value.IntegerValue
64

@<SCITEGIC>MOL_PROPERTY
Delta U+W
SciTegic.value.DoubleValue
0.366

@<SCITEGIC>MOL_PROPERTY
U+W
SciTegic.value.DoubleValue
-51.379

@<SCITEGIC>MOL_PROPERTY
Grad RMS
SciTegic.value.DoubleValue
0.000000

@<SCITEGIC>MOL_PROPERTY
U
SciTegic.value.DoubleValue
10.000

@<SCITEGIC>MOL_PROPERTY
W
SciTegic.value.DoubleValue
-61.379

@<SCITEGIC>MOL_PROPERTY
W(PB)
SciTegic.value.DoubleValue
-63.541

@<SCITEGIC>MOL_PROPERTY
W(SA)
SciTegic.value.DoubleValue
2.162

@<SCITEGIC>MOL_PROPERTY
Valence
SciTegic.value.DoubleValue
9.398

@<SCITEGIC>MOL_PROPERTY
Coulomb
SciTegic.value.DoubleValue
-0.504

@<SCITEGIC>MOL_PROPERTY
VdW
SciTegic.value.DoubleValue
1.105

@<SCITEGIC>MOL_PROPERTY
VdW6
SciTegic.value.DoubleValue
-7.975

@<SCITEGIC>MOL_PROPERTY
VdW12
SciTegic.value.DoubleValue
9.080

@<SCITEGIC>MOL_PROPERTY
Bond
SciTegic.value.DoubleValue
0.216

@<SCITEGIC>MOL_PROPERTY
Angle
SciTegic.value.DoubleValue
3.417

@<SCITEGIC>MOL_PROPERTY
Pdih
SciTegic.value.DoubleValue
5.765

@<SCITEGIC>MOL_PROPERTY
Idih
SciTegic.value.DoubleValue
0.001

@<SCITEGIC>MOL_PROPERTY
Tether
SciTegic.value.DoubleValue
0.000

@<TRIPOS>MOLECULE
guest-s22_confgen4.mol2 : confsearch ligand conformer 956
          20          19           1
SMALL
USER_CHARGES
 
@<TRIPOS>ATOM
       1    C1      17.330706   18.386373   23.305364 C.2        1 MOL1        -0.2535
       2    H1      17.261742   19.420076   23.640209 H          1 MOL1         0.0845
       3    H2      17.016781   17.611656   24.002765 H          1 MOL1         0.0845
       4    C2      17.786054   18.076460   22.088555 C.2        1 MOL1        -0.1324
       5    H3      17.849466   17.035169   21.773777 H          1 MOL1         0.0833
       6    C3      18.240482   19.096607   21.066414 C.3        1 MOL1        -0.1813
       7    H4      17.956256   20.110509   21.379289 H          1 MOL1         0.0753
       8    H5      17.721693   18.908756   20.116986 H          1 MOL1         0.0753
       9    C4      19.765132   19.040854   20.820902 C.3        1 MOL1        -0.1855
      10    H6      20.049392   18.026571   20.508639 H          1 MOL1         0.0755
      11    H7      20.014428   19.708808   19.985095 H          1 MOL1         0.0755
      12    C5      20.584935   19.455132   22.064237 C.3        1 MOL1        -0.1855
      13    H8      20.364407   18.777455   22.900509 H          1 MOL1         0.0755
      14    H9      20.286924   20.462901   22.384985 H          1 MOL1         0.0755
      15    C6      22.107632   19.436260   21.783070 C.3        1 MOL1        -0.1958
      16    H10     22.422710   18.432514   21.473541 H          1 MOL1         0.0753
      17    H11     22.349752   20.120404   20.960992 H          1 MOL1         0.0753
      18    C7      22.938395   19.841192   22.995488 C.2        1 MOL1         0.6174
      19    O1      23.180166   21.021141   23.156787 O.co2      1 MOL1        -0.6695
      20    O2      23.310073   18.967773   23.754227 O.co2      1 MOL1        -0.6695
@<TRIPOS>BOND
    1     1     2    1
    2     1     3    1
    3     1     4    2
    4     4     5    1
    5     4     6    1
    6     6     7    1
    7     6     8    1
    8     6     9    1
    9     9    10    1
   10     9    11    1
   11     9    12    1
   12    12    13    1
   13    12    14    1
   14    12    15    1
   15    15    16    1
   16    15    17    1
   17    15    18    1
   18    18    19    1
   19    18    20    2
@<TRIPOS>SUBSTRUCTURE
       1 MOL1            1 RESIDUE      1      MOL     
@<SCITEGIC>MOL_PROPERTY
VConf Rank
SciTegic.value.IntegerValue
956

@<SCITEGIC>MOL_PROPERTY
Conf_Id
SciTegic.value.IntegerValue
42

@<SCITEGIC>MOL_PROPERTY
Delta U+W
SciTegic.value.DoubleValue
-0.601

@<SCITEGIC>MOL_PROPERTY
U+W
SciTegic.value.DoubleValue
-52.347

@<SCITEGIC>MOL_PROPERTY
Grad RMS
SciTegic.value.DoubleValue
0.000000

@<SCITEGIC>MOL_PROPERTY
U
SciTegic.value.DoubleValue
8.428

@<SCITEGIC>MOL_PROPERTY
W
SciTegic.value.DoubleValue
-60.774

@<SCITEGIC>MOL_PROPERTY
W(PB)
SciTegic.value.DoubleValue
-62.982

@<SCITEGIC>MOL_PROPERTY
W(SA)
SciTegic.value.DoubleValue
2.208

@<SCITEGIC>MOL_PROPERTY
Valence
SciTegic.value.DoubleValue
9.231

@<SCITEGIC>MOL_PROPERTY
Coulomb
SciTegic.value.DoubleValue
-1.304

@<SCITEGIC>MOL_PROPERTY
VdW
SciTegic.value.DoubleValue
0.501

@<SCITEGIC>MOL_PROPERTY
VdW6
SciTegic.value.DoubleValue
-6.515

@<SCITEGIC>MOL_PROPERTY
VdW12
SciTegic.value.DoubleValue
7.016

@<SCITEGIC>MOL_PROPERTY
Bond
SciTegic.value.DoubleValue
0.103

@<SCITEGIC>MOL_PROPERTY
Angle
SciTegic.value.DoubleValue
2.328

@<SCITEGIC>MOL_PROPERTY
Pdih
SciTegic.value.DoubleValue
6.799

@<SCITEGIC>MOL_PROPERTY
Idih
SciTegic.value.DoubleValue
0.000

@<SCITEGIC>MOL_PROPERTY
Tether
SciTegic.value.DoubleValue
0.000

@<TRIPOS>MOLECULE
guest-s22_confgen4.mol2 : confsearch ligand conformer 957
          20          19           1
SMALL
USER_CHARGES
 
@<TRIPOS>ATOM
       1    C1      17.750481   17.365722   20.689794 C.2        1 MOL1        -0.2535
       2    H1      18.440336   16.523506   20.702755 H          1 MOL1         0.0845
       3    H2      17.117237   17.481421   19.811893 H          1 MOL1         0.0845
       4    C2      17.683515   18.228019   21.707627 C.2        1 MOL1        -0.1324
       5    H3      16.988050   19.066216   21.673581 H          1 MOL1         0.0833
       6    C3      18.531320   18.133329   22.958292 C.3        1 MOL1        -0.1813
       7    H4      19.053399   17.167747   22.999455 H          1 MOL1         0.0753
       8    H5      17.876679   18.169250   23.839181 H          1 MOL1         0.0753
       9    C4      19.560906   19.281550   23.055773 C.3        1 MOL1        -0.1855
      10    H6      19.036002   20.246237   23.021232 H          1 MOL1         0.0755
      11    H7      20.058253   19.230952   24.033948 H          1 MOL1         0.0755
      12    C5      20.629213   19.221613   21.938456 C.3        1 MOL1        -0.1855
      13    H8      20.148856   19.313448   20.954496 H          1 MOL1         0.0755
      14    H9      21.119526   18.239067   21.959146 H          1 MOL1         0.0755
      15    C6      21.707364   20.326583   22.084929 C.3        1 MOL1        -0.1958
      16    H10     22.181795   20.265219   23.071781 H          1 MOL1         0.0753
      17    H11     22.497959   20.167566   21.342188 H          1 MOL1         0.0753
      18    C7      21.173777   21.742762   21.888627 C.2        1 MOL1         0.6174
      19    O1      20.991584   22.431130   22.873574 O.co2      1 MOL1        -0.6695
      20    O2      20.971715   22.126217   20.753186 O.co2      1 MOL1        -0.6695
@<TRIPOS>BOND
    1     1     2    1
    2     1     3    1
    3     1     4    2
    4     4     5    1
    5     4     6    1
    6     6     7    1
    7     6     8    1
    8     6     9    1
    9     9    10    1
   10     9    11    1
   11     9    12    1
   12    12    13    1
   13    12    14    1
   14    12    15    1
   15    15    16    1
   16    15    17    1
   17    15    18    1
   18    18    19    1
   19    18    20    2
@<TRIPOS>SUBSTRUCTURE
       1 MOL1            1 RESIDUE      1      MOL     
@<SCITEGIC>MOL_PROPERTY
VConf Rank
SciTegic.value.IntegerValue
957

@<SCITEGIC>MOL_PROPERTY
Conf_Id
SciTegic.value.IntegerValue
68

@<SCITEGIC>MOL_PROPERTY
Delta U+W
SciTegic.value.DoubleValue
0.492

@<SCITEGIC>MOL_PROPERTY
U+W
SciTegic.value.DoubleValue
-51.253

@<SCITEGIC>MOL_PROPERTY
Grad RMS
SciTegic.value.DoubleValue
0.000000

@<SCITEGIC>MOL_PROPERTY
U
SciTegic.value.DoubleValue
10.179

@<SCITEGIC>MOL_PROPERTY
W
SciTegic.value.DoubleValue
-61.432

@<SCITEGIC>MOL_PROPERTY
W(PB)
SciTegic.value.DoubleValue
-63.627

@<SCITEGIC>MOL_PROPERTY
W(SA)
SciTegic.value.DoubleValue
2.195

@<SCITEGIC>MOL_PROPERTY
Valence
SciTegic.value.DoubleValue
9.483

@<SCITEGIC>MOL_PROPERTY
Coulomb
SciTegic.value.DoubleValue
0.361

@<SCITEGIC>MOL_PROPERTY
VdW
SciTegic.value.DoubleValue
0.335

@<SCITEGIC>MOL_PROPERTY
VdW6
SciTegic.value.DoubleValue
-7.385

@<SCITEGIC>MOL_PROPERTY
VdW12
SciTegic.value.DoubleValue
7.720

@<SCITEGIC>MOL_PROPERTY
Bond
SciTegic.value.DoubleValue
0.125

@<SCITEGIC>MOL_PROPERTY
Angle
SciTegic.value.DoubleValue
2.487

@<SCITEGIC>MOL_PROPERTY
Pdih
SciTegic.value.DoubleValue
6.870

@<SCITEGIC>MOL_PROPERTY
Idih
SciTegic.value.DoubleValue
0.001

@<SCITEGIC>MOL_PROPERTY
Tether
SciTegic.value.DoubleValue
0.000

@<TRIPOS>MOLECULE
guest-s22_confgen4.mol2 : confsearch ligand conformer 958
          20          19           1
SMALL
USER_CHARGES
 
@<TRIPOS>ATOM
       1    C1      17.905504   17.000698   23.536678 C.2        1 MOL1        -0.2535
       2    H1      18.235008   16.086700   23.045226 H          1 MOL1         0.0845
       3    H2      16.871433   17.043289   23.874406 H          1 MOL1         0.0845
       4    C2      18.733458   18.033020   23.716955 C.2        1 MOL1        -0.1324
       5    H3      18.383738   18.937521   24.213764 H          1 MOL1         0.0833
       6    C3      20.182839   18.043407   23.279960 C.3        1 MOL1        -0.1813
       7    H4      20.529217   17.013266   23.120742 H          1 MOL1         0.0753
       8    H5      20.811436   18.458899   24.078852 H          1 MOL1         0.0753
       9    C4      20.398224   18.845023   21.976425 C.3        1 MOL1        -0.1855
      10    H6      21.435763   18.706920   21.642979 H          1 MOL1         0.0755
      11    H7      19.757723   18.430984   21.185268 H          1 MOL1         0.0755
      12    C5      20.116760   20.356832   22.146544 C.3        1 MOL1        -0.1855
      13    H8      20.726183   20.748284   22.972183 H          1 MOL1         0.0755
      14    H9      19.066057   20.515033   22.425494 H          1 MOL1         0.0755
      15    C6      20.428690   21.168124   20.862271 C.3        1 MOL1        -0.1958
      16    H10     20.324566   22.239312   21.071367 H          1 MOL1         0.0753
      17    H11     21.468192   21.004630   20.553290 H          1 MOL1         0.0753
      18    C7      19.513918   20.841234   19.685337 C.2        1 MOL1         0.6174
      19    O1      18.392556   21.309903   19.684722 O.co2      1 MOL1        -0.6695
      20    O2      19.952209   20.143710   18.791756 O.co2      1 MOL1        -0.6695
@<TRIPOS>BOND
    1     1     2    1
    2     1     3    1
    3     1     4    2
    4     4     5    1
    5     4     6    1
    6     6     7    1
    7     6     8    1
    8     6     9    1
    9     9    10    1
   10     9    11    1
   11     9    12    1
   12    12    13    1
   13    12    14    1
   14    12    15    1
   15    15    16    1
   16    15    17    1
   17    15    18    1
   18    18    19    1
   19    18    20    2
@<TRIPOS>SUBSTRUCTURE
       1 MOL1            1 RESIDUE      1      MOL     
@<SCITEGIC>MOL_PROPERTY
VConf Rank
SciTegic.value.IntegerValue
958

@<SCITEGIC>MOL_PROPERTY
Conf_Id
SciTegic.value.IntegerValue
87

@<SCITEGIC>MOL_PROPERTY
Delta U+W
SciTegic.value.DoubleValue
0.339

@<SCITEGIC>MOL_PROPERTY
U+W
SciTegic.value.DoubleValue
-51.407

@<SCITEGIC>MOL_PROPERTY
Grad RMS
SciTegic.value.DoubleValue
0.000000

@<SCITEGIC>MOL_PROPERTY
U
SciTegic.value.DoubleValue
10.461

@<SCITEGIC>MOL_PROPERTY
W
SciTegic.value.DoubleValue
-61.867

@<SCITEGIC>MOL_PROPERTY
W(PB)
SciTegic.value.DoubleValue
-64.045

@<SCITEGIC>MOL_PROPERTY
W(SA)
SciTegic.value.DoubleValue
2.178

@<SCITEGIC>MOL_PROPERTY
Valence
SciTegic.value.DoubleValue
9.555

@<SCITEGIC>MOL_PROPERTY
Coulomb
SciTegic.value.DoubleValue
0.483

@<SCITEGIC>MOL_PROPERTY
VdW
SciTegic.value.DoubleValue
0.423

@<SCITEGIC>MOL_PROPERTY
VdW6
SciTegic.value.DoubleValue
-7.223

@<SCITEGIC>MOL_PROPERTY
VdW12
SciTegic.value.DoubleValue
7.646

@<SCITEGIC>MOL_PROPERTY
Bond
SciTegic.value.DoubleValue
0.126

@<SCITEGIC>MOL_PROPERTY
Angle
SciTegic.value.DoubleValue
2.492

@<SCITEGIC>MOL_PROPERTY
Pdih
SciTegic.value.DoubleValue
6.936

@<SCITEGIC>MOL_PROPERTY
Idih
SciTegic.value.DoubleValue
0.001

@<SCITEGIC>MOL_PROPERTY
Tether
SciTegic.value.DoubleValue
0.000

@<TRIPOS>MOLECULE
guest-s22_confgen4.mol2 : confsearch ligand conformer 959
          20          19           1
SMALL
USER_CHARGES
 
@<TRIPOS>ATOM
       1    C1      18.273101   18.241435   19.537548 C.2        1 MOL1        -0.2535
       2    H1      17.275326   17.958088   19.868569 H          1 MOL1         0.0845
       3    H2      18.357639   18.759359   18.583803 H          1 MOL1         0.0845
       4    C2      19.353561   17.967191   20.273150 C.2        1 MOL1        -0.1324
       5    H3      20.344575   18.250815   19.920677 H          1 MOL1         0.0833
       6    C3      19.311054   17.240105   21.600232 C.3        1 MOL1        -0.1813
       7    H4      20.300473   16.828692   21.840490 H          1 MOL1         0.0753
       8    H5      18.644250   16.373022   21.500505 H          1 MOL1         0.0753
       9    C4      18.803065   18.117476   22.771272 C.3        1 MOL1        -0.1855
      10    H6      17.909261   18.676308   22.461828 H          1 MOL1         0.0755
      11    H7      18.474767   17.446874   23.577030 H          1 MOL1         0.0755
      12    C5      19.856660   19.085651   23.365979 C.3        1 MOL1        -0.1855
      13    H8      20.754280   18.525259   23.661407 H          1 MOL1         0.0755
      14    H9      19.445771   19.516650   24.289505 H          1 MOL1         0.0755
      15    C6      20.258366   20.247946   22.422069 C.3        1 MOL1        -0.1958
      16    H10     20.807053   19.867311   21.554809 H          1 MOL1         0.0753
      17    H11     19.363653   20.757940   22.045614 H          1 MOL1         0.0753
      18    C7      21.142868   21.284221   23.105750 C.2        1 MOL1         0.6174
      19    O1      22.346027   21.114048   23.087337 O.co2      1 MOL1        -0.6695
      20    O2      20.604604   22.223920   23.657221 O.co2      1 MOL1        -0.6695
@<TRIPOS>BOND
    1     1     2    1
    2     1     3    1
    3     1     4    2
    4     4     5    1
    5     4     6    1
    6     6     7    1
    7     6     8    1
    8     6     9    1
    9     9    10    1
   10     9    11    1
   11     9    12    1
   12    12    13    1
   13    12    14    1
   14    12    15    1
   15    15    16    1
   16    15    17    1
   17    15    18    1
   18    18    19    1
   19    18    20    2
@<TRIPOS>SUBSTRUCTURE
       1 MOL1            1 RESIDUE      1      MOL     
@<SCITEGIC>MOL_PROPERTY
VConf Rank
SciTegic.value.IntegerValue
959

@<SCITEGIC>MOL_PROPERTY
Conf_Id
SciTegic.value.IntegerValue
51

@<SCITEGIC>MOL_PROPERTY
Delta U+W
SciTegic.value.DoubleValue
1.709

@<SCITEGIC>MOL_PROPERTY
U+W
SciTegic.value.DoubleValue
-50.036

@<SCITEGIC>MOL_PROPERTY
Grad RMS
SciTegic.value.DoubleValue
0.000000

@<SCITEGIC>MOL_PROPERTY
U
SciTegic.value.DoubleValue
10.643

@<SCITEGIC>MOL_PROPERTY
W
SciTegic.value.DoubleValue
-60.679

@<SCITEGIC>MOL_PROPERTY
W(PB)
SciTegic.value.DoubleValue
-62.882

@<SCITEGIC>MOL_PROPERTY
W(SA)
SciTegic.value.DoubleValue
2.203

@<SCITEGIC>MOL_PROPERTY
Valence
SciTegic.value.DoubleValue
11.231

@<SCITEGIC>MOL_PROPERTY
Coulomb
SciTegic.value.DoubleValue
-1.077

@<SCITEGIC>MOL_PROPERTY
VdW
SciTegic.value.DoubleValue
0.489

@<SCITEGIC>MOL_PROPERTY
VdW6
SciTegic.value.DoubleValue
-7.546

@<SCITEGIC>MOL_PROPERTY
VdW12
SciTegic.value.DoubleValue
8.035

@<SCITEGIC>MOL_PROPERTY
Bond
SciTegic.value.DoubleValue
0.159

@<SCITEGIC>MOL_PROPERTY
Angle
SciTegic.value.DoubleValue
3.005

@<SCITEGIC>MOL_PROPERTY
Pdih
SciTegic.value.DoubleValue
8.065

@<SCITEGIC>MOL_PROPERTY
Idih
SciTegic.value.DoubleValue
0.002

@<SCITEGIC>MOL_PROPERTY
Tether
SciTegic.value.DoubleValue
0.000

@<TRIPOS>MOLECULE
guest-s22_confgen4.mol2 : confsearch ligand conformer 960
          20          19           1
SMALL
USER_CHARGES
 
@<TRIPOS>ATOM
       1    C1      17.168998   18.091498   20.947707 C.2        1 MOL1        -0.2535
       2    H1      17.426575   17.798316   19.931285 H          1 MOL1         0.0845
       3    H2      16.174527   18.501253   21.115482 H          1 MOL1         0.0845
       4    C2      18.039394   17.956947   21.951710 C.2        1 MOL1        -0.1324
       5    H3      17.759923   18.247671   22.963722 H          1 MOL1         0.0833
       6    C3      19.431694   17.384267   21.793149 C.3        1 MOL1        -0.1813
       7    H4      19.366934   16.478722   21.174924 H          1 MOL1         0.0753
       8    H5      19.820064   17.053626   22.765662 H          1 MOL1         0.0753
       9    C4      20.431697   18.362156   21.127643 C.3        1 MOL1        -0.1855
      10    H6      21.273218   17.771774   20.740310 H          1 MOL1         0.0755
      11    H7      19.967682   18.835588   20.251582 H          1 MOL1         0.0755
      12    C5      21.012618   19.444475   22.072219 C.3        1 MOL1        -0.1855
      13    H8      21.831282   19.956130   21.547351 H          1 MOL1         0.0755
      14    H9      21.463218   18.968140   22.953753 H          1 MOL1         0.0755
      15    C6      19.983906   20.510873   22.528087 C.3        1 MOL1        -0.1958
      16    H10     19.459463   20.928009   21.660170 H          1 MOL1         0.0753
      17    H11     19.229087   20.062716   23.181912 H          1 MOL1         0.0753
      18    C7      20.627258   21.662344   23.292176 C.2        1 MOL1         0.6174
      19    O1      20.752768   21.553495   24.496040 O.co2      1 MOL1        -0.6695
      20    O2      21.004936   22.629777   22.661055 O.co2      1 MOL1        -0.6695
@<TRIPOS>BOND
    1     1     2    1
    2     1     3    1
    3     1     4    2
    4     4     5    1
    5     4     6    1
    6     6     7    1
    7     6     8    1
    8     6     9    1
    9     9    10    1
   10     9    11    1
   11     9    12    1
   12    12    13    1
   13    12    14    1
   14    12    15    1
   15    15    16    1
   16    15    17    1
   17    15    18    1
   18    18    19    1
   19    18    20    2
@<TRIPOS>SUBSTRUCTURE
       1 MOL1            1 RESIDUE      1      MOL     
@<SCITEGIC>MOL_PROPERTY
VConf Rank
SciTegic.value.IntegerValue
960

@<SCITEGIC>MOL_PROPERTY
Conf_Id
SciTegic.value.IntegerValue
91

@<SCITEGIC>MOL_PROPERTY
Delta U+W
SciTegic.value.DoubleValue
1.604

@<SCITEGIC>MOL_PROPERTY
U+W
SciTegic.value.DoubleValue
-50.141

@<SCITEGIC>MOL_PROPERTY
Grad RMS
SciTegic.value.DoubleValue
0.000000

@<SCITEGIC>MOL_PROPERTY
U
SciTegic.value.DoubleValue
10.644

@<SCITEGIC>MOL_PROPERTY
W
SciTegic.value.DoubleValue
-60.786

@<SCITEGIC>MOL_PROPERTY
W(PB)
SciTegic.value.DoubleValue
-62.965

@<SCITEGIC>MOL_PROPERTY
W(SA)
SciTegic.value.DoubleValue
2.179

@<SCITEGIC>MOL_PROPERTY
Valence
SciTegic.value.DoubleValue
11.230

@<SCITEGIC>MOL_PROPERTY
Coulomb
SciTegic.value.DoubleValue
-1.075

@<SCITEGIC>MOL_PROPERTY
VdW
SciTegic.value.DoubleValue
0.489

@<SCITEGIC>MOL_PROPERTY
VdW6
SciTegic.value.DoubleValue
-7.547

@<SCITEGIC>MOL_PROPERTY
VdW12
SciTegic.value.DoubleValue
8.036

@<SCITEGIC>MOL_PROPERTY
Bond
SciTegic.value.DoubleValue
0.159

@<SCITEGIC>MOL_PROPERTY
Angle
SciTegic.value.DoubleValue
3.006

@<SCITEGIC>MOL_PROPERTY
Pdih
SciTegic.value.DoubleValue
8.064

@<SCITEGIC>MOL_PROPERTY
Idih
SciTegic.value.DoubleValue
0.002

@<SCITEGIC>MOL_PROPERTY
Tether
SciTegic.value.DoubleValue
0.000

@<TRIPOS>MOLECULE
guest-s22_confgen4.mol2 : confsearch ligand conformer 961
          20          19           1
SMALL
USER_CHARGES
 
@<TRIPOS>ATOM
       1    C1      19.346187   16.740333   24.754829 C.2        1 MOL1        -0.2535
       2    H1      18.741957   17.513344   25.227005 H          1 MOL1         0.0845
       3    H2      19.768974   15.971518   25.399384 H          1 MOL1         0.0845
       4    C2      19.564769   16.733232   23.437323 C.2        1 MOL1        -0.1324
       5    H3      20.173286   15.950690   22.984560 H          1 MOL1         0.0833
       6    C3      19.010785   17.765370   22.480540 C.3        1 MOL1        -0.1813
       7    H4      18.215371   18.346497   22.966764 H          1 MOL1         0.0753
       8    H5      18.551892   17.260052   21.620183 H          1 MOL1         0.0753
       9    C4      20.118304   18.720885   21.989353 C.3        1 MOL1        -0.1855
      10    H6      20.576792   19.220516   22.853958 H          1 MOL1         0.0755
      11    H7      20.911396   18.139672   21.499090 H          1 MOL1         0.0755
      12    C5      19.570020   19.780273   21.008437 C.3        1 MOL1        -0.1855
      13    H8      18.777042   20.362343   21.498258 H          1 MOL1         0.0755
      14    H9      19.110248   19.281189   20.144117 H          1 MOL1         0.0755
      15    C6      20.684091   20.741521   20.515236 C.3        1 MOL1        -0.1958
      16    H10     21.143025   21.247932   21.372464 H          1 MOL1         0.0753
      17    H11     21.476032   20.167906   20.019550 H          1 MOL1         0.0753
      18    C7      20.225498   21.824728   19.537652 C.2        1 MOL1         0.6174
      19    O1      21.070429   22.595838   19.128240 O.co2      1 MOL1        -0.6695
      20    O2      19.056976   21.882102   19.206122 O.co2      1 MOL1        -0.6695
@<TRIPOS>BOND
    1     1     2    1
    2     1     3    1
    3     1     4    2
    4     4     5    1
    5     4     6    1
    6     6     7    1
    7     6     8    1
    8     6     9    1
    9     9    10    1
   10     9    11    1
   11     9    12    1
   12    12    13    1
   13    12    14    1
   14    12    15    1
   15    15    16    1
   16    15    17    1
   17    15    18    1
   18    18    19    1
   19    18    20    2
@<TRIPOS>SUBSTRUCTURE
       1 MOL1            1 RESIDUE      1      MOL     
@<SCITEGIC>MOL_PROPERTY
VConf Rank
SciTegic.value.IntegerValue
961

@<SCITEGIC>MOL_PROPERTY
Conf_Id
SciTegic.value.IntegerValue
33

@<SCITEGIC>MOL_PROPERTY
Delta U+W
SciTegic.value.DoubleValue
0.000

@<SCITEGIC>MOL_PROPERTY
U+W
SciTegic.value.DoubleValue
-51.745

@<SCITEGIC>MOL_PROPERTY
Grad RMS
SciTegic.value.DoubleValue
0.000000

@<SCITEGIC>MOL_PROPERTY
U
SciTegic.value.DoubleValue
7.593

@<SCITEGIC>MOL_PROPERTY
W
SciTegic.value.DoubleValue
-59.338

@<SCITEGIC>MOL_PROPERTY
W(PB)
SciTegic.value.DoubleValue
-61.574

@<SCITEGIC>MOL_PROPERTY
W(SA)
SciTegic.value.DoubleValue
2.236

@<SCITEGIC>MOL_PROPERTY
Valence
SciTegic.value.DoubleValue
9.570

@<SCITEGIC>MOL_PROPERTY
Coulomb
SciTegic.value.DoubleValue
-3.091

@<SCITEGIC>MOL_PROPERTY
VdW
SciTegic.value.DoubleValue
1.114

@<SCITEGIC>MOL_PROPERTY
VdW6
SciTegic.value.DoubleValue
-6.064

@<SCITEGIC>MOL_PROPERTY
VdW12
SciTegic.value.DoubleValue
7.178

@<SCITEGIC>MOL_PROPERTY
Bond
SciTegic.value.DoubleValue
0.117

@<SCITEGIC>MOL_PROPERTY
Angle
SciTegic.value.DoubleValue
2.692

@<SCITEGIC>MOL_PROPERTY
Pdih
SciTegic.value.DoubleValue
6.761

@<SCITEGIC>MOL_PROPERTY
Idih
SciTegic.value.DoubleValue
0.000

@<SCITEGIC>MOL_PROPERTY
Tether
SciTegic.value.DoubleValue
0.000

@<TRIPOS>MOLECULE
guest-s22_confgen4.mol2 : confsearch ligand conformer 962
          20          19           1
SMALL
USER_CHARGES
 
@<TRIPOS>ATOM
       1    C1      19.512565   15.414974   21.685894 C.2        1 MOL1        -0.2535
       2    H1      18.631626   15.507583   21.052691 H          1 MOL1         0.0845
       3    H2      19.763920   14.421055   22.052235 H          1 MOL1         0.0845
       4    C2      20.256983   16.476845   22.005183 C.2        1 MOL1        -0.1324
       5    H3      21.134539   16.362692   22.641183 H          1 MOL1         0.0833
       6    C3      19.970926   17.885414   21.534196 C.3        1 MOL1        -0.1813
       7    H4      19.244518   17.870065   20.710368 H          1 MOL1         0.0753
       8    H5      20.893540   18.325961   21.135759 H          1 MOL1         0.0753
       9    C4      19.422543   18.755391   22.687550 C.3        1 MOL1        -0.1855
      10    H6      18.549505   18.252137   23.125593 H          1 MOL1         0.0755
      11    H7      20.173188   18.825661   23.486666 H          1 MOL1         0.0755
      12    C5      19.001203   20.176167   22.242524 C.3        1 MOL1        -0.1855
      13    H8      18.521557   20.683298   23.091201 H          1 MOL1         0.0755
      14    H9      18.240629   20.107565   21.452453 H          1 MOL1         0.0755
      15    C6      20.185467   21.046297   21.747179 C.3        1 MOL1        -0.1958
      16    H10     20.970785   21.087251   22.511367 H          1 MOL1         0.0753
      17    H11     20.631605   20.614309   20.844356 H          1 MOL1         0.0753
      18    C7      19.769412   22.475872   21.419792 C.2        1 MOL1         0.6174
      19    O1      19.387428   22.718319   20.291955 O.co2      1 MOL1        -0.6695
      20    O2      19.819426   23.305191   22.306620 O.co2      1 MOL1        -0.6695
@<TRIPOS>BOND
    1     1     2    1
    2     1     3    1
    3     1     4    2
    4     4     5    1
    5     4     6    1
    6     6     7    1
    7     6     8    1
    8     6     9    1
    9     9    10    1
   10     9    11    1
   11     9    12    1
   12    12    13    1
   13    12    14    1
   14    12    15    1
   15    15    16    1
   16    15    17    1
   17    15    18    1
   18    18    19    1
   19    18    20    2
@<TRIPOS>SUBSTRUCTURE
       1 MOL1            1 RESIDUE      1      MOL     
@<SCITEGIC>MOL_PROPERTY
VConf Rank
SciTegic.value.IntegerValue
962

@<SCITEGIC>MOL_PROPERTY
Conf_Id
SciTegic.value.IntegerValue
37

@<SCITEGIC>MOL_PROPERTY
Delta U+W
SciTegic.value.DoubleValue
-0.384

@<SCITEGIC>MOL_PROPERTY
U+W
SciTegic.value.DoubleValue
-52.130

@<SCITEGIC>MOL_PROPERTY
Grad RMS
SciTegic.value.DoubleValue
0.000000

@<SCITEGIC>MOL_PROPERTY
U
SciTegic.value.DoubleValue
7.491

@<SCITEGIC>MOL_PROPERTY
W
SciTegic.value.DoubleValue
-59.621

@<SCITEGIC>MOL_PROPERTY
W(PB)
SciTegic.value.DoubleValue
-61.853

@<SCITEGIC>MOL_PROPERTY
W(SA)
SciTegic.value.DoubleValue
2.232

@<SCITEGIC>MOL_PROPERTY
Valence
SciTegic.value.DoubleValue
9.604

@<SCITEGIC>MOL_PROPERTY
Coulomb
SciTegic.value.DoubleValue
-2.799

@<SCITEGIC>MOL_PROPERTY
VdW
SciTegic.value.DoubleValue
0.686

@<SCITEGIC>MOL_PROPERTY
VdW6
SciTegic.value.DoubleValue
-6.435

@<SCITEGIC>MOL_PROPERTY
VdW12
SciTegic.value.DoubleValue
7.121

@<SCITEGIC>MOL_PROPERTY
Bond
SciTegic.value.DoubleValue
0.124

@<SCITEGIC>MOL_PROPERTY
Angle
SciTegic.value.DoubleValue
2.493

@<SCITEGIC>MOL_PROPERTY
Pdih
SciTegic.value.DoubleValue
6.986

@<SCITEGIC>MOL_PROPERTY
Idih
SciTegic.value.DoubleValue
0.001

@<SCITEGIC>MOL_PROPERTY
Tether
SciTegic.value.DoubleValue
0.000

@<TRIPOS>MOLECULE
guest-s22_confgen4.mol2 : confsearch ligand conformer 963
          20          19           1
SMALL
USER_CHARGES
 
@<TRIPOS>ATOM
       1    C1      22.139180   17.520903   23.758987 C.2        1 MOL1        -0.2535
       2    H1      22.896543   17.043267   24.378225 H          1 MOL1         0.0845
       3    H2      22.188747   17.330912   22.688943 H          1 MOL1         0.0845
       4    C2      21.200704   18.300949   24.307353 C.2        1 MOL1        -0.1324
       5    H3      21.202789   18.453734   25.386371 H          1 MOL1         0.0833
       6    C3      20.085411   19.030481   23.577340 C.3        1 MOL1        -0.1813
       7    H4      20.162793   20.103699   23.797227 H          1 MOL1         0.0753
       8    H5      19.121697   18.711223   23.996225 H          1 MOL1         0.0753
       9    C4      20.064317   18.827171   22.044303 C.3        1 MOL1        -0.1855
      10    H6      21.018368   19.164275   21.616243 H          1 MOL1         0.0755
      11    H7      19.966003   17.756687   21.817400 H          1 MOL1         0.0755
      12    C5      18.903706   19.600014   21.380437 C.3        1 MOL1        -0.1855
      13    H8      18.996309   20.671990   21.603819 H          1 MOL1         0.0755
      14    H9      17.946104   19.267280   21.804572 H          1 MOL1         0.0755
      15    C6      18.880417   19.398025   19.845268 C.3        1 MOL1        -0.1958
      16    H10     19.825056   19.738064   19.404096 H          1 MOL1         0.0753
      17    H11     18.774913   18.333282   19.604869 H          1 MOL1         0.0753
      18    C7      17.742423   20.151694   19.166341 C.2        1 MOL1         0.6174
      19    O1      17.948472   21.291264   18.798140 O.co2      1 MOL1        -0.6695
      20    O2      16.674110   19.586226   19.041435 O.co2      1 MOL1        -0.6695
@<TRIPOS>BOND
    1     1     2    1
    2     1     3    1
    3     1     4    2
    4     4     5    1
    5     4     6    1
    6     6     7    1
    7     6     8    1
    8     6     9    1
    9     9    10    1
   10     9    11    1
   11     9    12    1
   12    12    13    1
   13    12    14    1
   14    12    15    1
   15    15    16    1
   16    15    17    1
   17    15    18    1
   18    18    19    1
   19    18    20    2
@<TRIPOS>SUBSTRUCTURE
       1 MOL1            1 RESIDUE      1      MOL     
@<SCITEGIC>MOL_PROPERTY
VConf Rank
SciTegic.value.IntegerValue
963

@<SCITEGIC>MOL_PROPERTY
Conf_Id
SciTegic.value.IntegerValue
44

@<SCITEGIC>MOL_PROPERTY
Delta U+W
SciTegic.value.DoubleValue
-1.440

@<SCITEGIC>MOL_PROPERTY
U+W
SciTegic.value.DoubleValue
-53.185

@<SCITEGIC>MOL_PROPERTY
Grad RMS
SciTegic.value.DoubleValue
0.000000

@<SCITEGIC>MOL_PROPERTY
U
SciTegic.value.DoubleValue
6.572

@<SCITEGIC>MOL_PROPERTY
W
SciTegic.value.DoubleValue
-59.757

@<SCITEGIC>MOL_PROPERTY
W(PB)
SciTegic.value.DoubleValue
-62.007

@<SCITEGIC>MOL_PROPERTY
W(SA)
SciTegic.value.DoubleValue
2.249

@<SCITEGIC>MOL_PROPERTY
Valence
SciTegic.value.DoubleValue
7.989

@<SCITEGIC>MOL_PROPERTY
Coulomb
SciTegic.value.DoubleValue
-2.697

@<SCITEGIC>MOL_PROPERTY
VdW
SciTegic.value.DoubleValue
1.281

@<SCITEGIC>MOL_PROPERTY
VdW6
SciTegic.value.DoubleValue
-6.467

@<SCITEGIC>MOL_PROPERTY
VdW12
SciTegic.value.DoubleValue
7.748

@<SCITEGIC>MOL_PROPERTY
Bond
SciTegic.value.DoubleValue
0.136

@<SCITEGIC>MOL_PROPERTY
Angle
SciTegic.value.DoubleValue
2.854

@<SCITEGIC>MOL_PROPERTY
Pdih
SciTegic.value.DoubleValue
4.997

@<SCITEGIC>MOL_PROPERTY
Idih
SciTegic.value.DoubleValue
0.001

@<SCITEGIC>MOL_PROPERTY
Tether
SciTegic.value.DoubleValue
0.000

@<TRIPOS>MOLECULE
guest-s22_confgen4.mol2 : confsearch ligand conformer 964
          20          19           1
SMALL
USER_CHARGES
 
@<TRIPOS>ATOM
       1    C1      22.171028   21.497567   21.299157 C.2        1 MOL1        -0.2535
       2    H1      21.343984   22.136887   21.603865 H          1 MOL1         0.0845
       3    H2      23.020546   21.974833   20.813575 H          1 MOL1         0.0845
       4    C2      22.147221   20.178736   21.508527 C.2        1 MOL1        -0.1324
       5    H3      22.985327   19.556593   21.195234 H          1 MOL1         0.0833
       6    C3      21.004551   19.446819   22.176734 C.3        1 MOL1        -0.1813
       7    H4      20.352137   20.164349   22.690648 H          1 MOL1         0.0753
       8    H5      21.401799   18.771469   22.946168 H          1 MOL1         0.0753
       9    C4      20.187245   18.635217   21.146553 C.3        1 MOL1        -0.1855
      10    H6      19.744949   19.318070   20.408123 H          1 MOL1         0.0755
      11    H7      20.869222   17.977274   20.590582 H          1 MOL1         0.0755
      12    C5      19.076504   17.767398   21.784885 C.3        1 MOL1        -0.1855
      13    H8      19.518642   17.077188   22.516662 H          1 MOL1         0.0755
      14    H9      18.625121   17.141879   21.002273 H          1 MOL1         0.0755
      15    C6      17.957155   18.597052   22.465906 C.3        1 MOL1        -0.1958
      16    H10     18.357729   19.165378   23.312811 H          1 MOL1         0.0753
      17    H11     17.537790   19.320794   21.756873 H          1 MOL1         0.0753
      18    C7      16.816384   17.730782   22.987586 C.2        1 MOL1         0.6174
      19    O1      15.885113   17.498806   22.242163 O.co2      1 MOL1        -0.6695
      20    O2      16.898340   17.294256   24.118709 O.co2      1 MOL1        -0.6695
@<TRIPOS>BOND
    1     1     2    1
    2     1     3    1
    3     1     4    2
    4     4     5    1
    5     4     6    1
    6     6     7    1
    7     6     8    1
    8     6     9    1
    9     9    10    1
   10     9    11    1
   11     9    12    1
   12    12    13    1
   13    12    14    1
   14    12    15    1
   15    15    16    1
   16    15    17    1
   17    15    18    1
   18    18    19    1
   19    18    20    2
@<TRIPOS>SUBSTRUCTURE
       1 MOL1            1 RESIDUE      1      MOL     
@<SCITEGIC>MOL_PROPERTY
VConf Rank
SciTegic.value.IntegerValue
964

@<SCITEGIC>MOL_PROPERTY
Conf_Id
SciTegic.value.IntegerValue
38

@<SCITEGIC>MOL_PROPERTY
Delta U+W
SciTegic.value.DoubleValue
-0.381

@<SCITEGIC>MOL_PROPERTY
U+W
SciTegic.value.DoubleValue
-52.126

@<SCITEGIC>MOL_PROPERTY
Grad RMS
SciTegic.value.DoubleValue
0.000000

@<SCITEGIC>MOL_PROPERTY
U
SciTegic.value.DoubleValue
7.601

@<SCITEGIC>MOL_PROPERTY
W
SciTegic.value.DoubleValue
-59.727

@<SCITEGIC>MOL_PROPERTY
W(PB)
SciTegic.value.DoubleValue
-61.964

@<SCITEGIC>MOL_PROPERTY
W(SA)
SciTegic.value.DoubleValue
2.236

@<SCITEGIC>MOL_PROPERTY
Valence
SciTegic.value.DoubleValue
9.602

@<SCITEGIC>MOL_PROPERTY
Coulomb
SciTegic.value.DoubleValue
-2.686

@<SCITEGIC>MOL_PROPERTY
VdW
SciTegic.value.DoubleValue
0.685

@<SCITEGIC>MOL_PROPERTY
VdW6
SciTegic.value.DoubleValue
-6.453

@<SCITEGIC>MOL_PROPERTY
VdW12
SciTegic.value.DoubleValue
7.139

@<SCITEGIC>MOL_PROPERTY
Bond
SciTegic.value.DoubleValue
0.125

@<SCITEGIC>MOL_PROPERTY
Angle
SciTegic.value.DoubleValue
2.485

@<SCITEGIC>MOL_PROPERTY
Pdih
SciTegic.value.DoubleValue
6.991

@<SCITEGIC>MOL_PROPERTY
Idih
SciTegic.value.DoubleValue
0.001

@<SCITEGIC>MOL_PROPERTY
Tether
SciTegic.value.DoubleValue
0.000

@<TRIPOS>MOLECULE
guest-s22_confgen4.mol2 : confsearch ligand conformer 965
          20          19           1
SMALL
USER_CHARGES
 
@<TRIPOS>ATOM
       1    C1      17.093648   17.026023   21.055003 C.2        1 MOL1        -0.2535
       2    H1      16.408258   17.844746   20.841667 H          1 MOL1         0.0845
       3    H2      16.893477   16.068005   20.578138 H          1 MOL1         0.0845
       4    C2      18.141429   17.186964   21.867356 C.2        1 MOL1        -0.1324
       5    H3      18.816062   16.354698   22.067015 H          1 MOL1         0.0833
       6    C3      18.482095   18.485211   22.564600 C.3        1 MOL1        -0.1813
       7    H4      18.672668   18.291666   23.628719 H          1 MOL1         0.0753
       8    H5      17.630478   19.177445   22.516621 H          1 MOL1         0.0753
       9    C4      19.721706   19.149808   21.930024 C.3        1 MOL1        -0.1855
      10    H6      20.572541   18.456360   21.981407 H          1 MOL1         0.0755
      11    H7      19.529077   19.337432   20.864678 H          1 MOL1         0.0755
      12    C5      20.085474   20.477073   22.633140 C.3        1 MOL1        -0.1855
      13    H8      20.289134   20.291290   23.696955 H          1 MOL1         0.0755
      14    H9      19.224233   21.157522   22.590293 H          1 MOL1         0.0755
      15    C6      21.311359   21.176027   21.990050 C.3        1 MOL1        -0.1958
      16    H10     21.134384   21.343310   20.920679 H          1 MOL1         0.0753
      17    H11     21.452019   22.162743   22.446758 H          1 MOL1         0.0753
      18    C7      22.619514   20.407221   22.152943 C.2        1 MOL1         0.6174
      19    O1      23.064979   19.817512   21.188176 O.co2      1 MOL1        -0.6695
      20    O2      23.164177   20.428176   23.239221 O.co2      1 MOL1        -0.6695
@<TRIPOS>BOND
    1     1     2    1
    2     1     3    1
    3     1     4    2
    4     4     5    1
    5     4     6    1
    6     6     7    1
    7     6     8    1
    8     6     9    1
    9     9    10    1
   10     9    11    1
   11     9    12    1
   12    12    13    1
   13    12    14    1
   14    12    15    1
   15    15    16    1
   16    15    17    1
   17    15    18    1
   18    18    19    1
   19    18    20    2
@<TRIPOS>SUBSTRUCTURE
       1 MOL1            1 RESIDUE      1      MOL     
@<SCITEGIC>MOL_PROPERTY
VConf Rank
SciTegic.value.IntegerValue
965

@<SCITEGIC>MOL_PROPERTY
Conf_Id
SciTegic.value.IntegerValue
58

@<SCITEGIC>MOL_PROPERTY
Delta U+W
SciTegic.value.DoubleValue
0.019

@<SCITEGIC>MOL_PROPERTY
U+W
SciTegic.value.DoubleValue
-51.727

@<SCITEGIC>MOL_PROPERTY
Grad RMS
SciTegic.value.DoubleValue
0.000000

@<SCITEGIC>MOL_PROPERTY
U
SciTegic.value.DoubleValue
8.963

@<SCITEGIC>MOL_PROPERTY
W
SciTegic.value.DoubleValue
-60.690

@<SCITEGIC>MOL_PROPERTY
W(PB)
SciTegic.value.DoubleValue
-62.934

@<SCITEGIC>MOL_PROPERTY
W(SA)
SciTegic.value.DoubleValue
2.244

@<SCITEGIC>MOL_PROPERTY
Valence
SciTegic.value.DoubleValue
9.327

@<SCITEGIC>MOL_PROPERTY
Coulomb
SciTegic.value.DoubleValue
-0.780

@<SCITEGIC>MOL_PROPERTY
VdW
SciTegic.value.DoubleValue
0.417

@<SCITEGIC>MOL_PROPERTY
VdW6
SciTegic.value.DoubleValue
-6.635

@<SCITEGIC>MOL_PROPERTY
VdW12
SciTegic.value.DoubleValue
7.052

@<SCITEGIC>MOL_PROPERTY
Bond
SciTegic.value.DoubleValue
0.105

@<SCITEGIC>MOL_PROPERTY
Angle
SciTegic.value.DoubleValue
2.399

@<SCITEGIC>MOL_PROPERTY
Pdih
SciTegic.value.DoubleValue
6.822

@<SCITEGIC>MOL_PROPERTY
Idih
SciTegic.value.DoubleValue
0.000

@<SCITEGIC>MOL_PROPERTY
Tether
SciTegic.value.DoubleValue
0.000

@<TRIPOS>MOLECULE
guest-s22_confgen4.mol2 : confsearch ligand conformer 966
          20          19           1
SMALL
USER_CHARGES
 
@<TRIPOS>ATOM
       1    C1      21.953604   18.088402   19.489250 C.2        1 MOL1        -0.2535
       2    H1      22.128793   19.094060   19.110388 H          1 MOL1         0.0845
       3    H2      22.146538   17.257556   18.812686 H          1 MOL1         0.0845
       4    C2      21.516691   17.877907   20.733623 C.2        1 MOL1        -0.1324
       5    H3      21.346747   16.863226   21.093070 H          1 MOL1         0.0833
       6    C3      21.228059   18.979875   21.728611 C.3        1 MOL1        -0.1813
       7    H4      21.661649   19.927958   21.382377 H          1 MOL1         0.0753
       8    H5      21.708512   18.744020   22.687602 H          1 MOL1         0.0753
       9    C4      19.709756   19.155533   21.940538 C.3        1 MOL1        -0.1855
      10    H6      19.232074   19.386621   20.978411 H          1 MOL1         0.0755
      11    H7      19.278960   18.206622   22.288985 H          1 MOL1         0.0755
      12    C5      19.397303   20.276500   22.957462 C.3        1 MOL1        -0.1855
      13    H8      19.844913   21.217014   22.608660 H          1 MOL1         0.0755
      14    H9      19.864846   20.043153   23.924233 H          1 MOL1         0.0755
      15    C6      17.874778   20.489157   23.161392 C.3        1 MOL1        -0.1958
      16    H10     17.709169   21.367599   23.796129 H          1 MOL1         0.0753
      17    H11     17.388888   20.695747   22.200095 H          1 MOL1         0.0753
      18    C7      17.166860   19.309325   23.821479 C.2        1 MOL1         0.6174
      19    O1      17.315262   19.148942   25.017033 O.co2      1 MOL1        -0.6695
      20    O2      16.477687   18.588983   23.126412 O.co2      1 MOL1        -0.6695
@<TRIPOS>BOND
    1     1     2    1
    2     1     3    1
    3     1     4    2
    4     4     5    1
    5     4     6    1
    6     6     7    1
    7     6     8    1
    8     6     9    1
    9     9    10    1
   10     9    11    1
   11     9    12    1
   12    12    13    1
   13    12    14    1
   14    12    15    1
   15    15    16    1
   16    15    17    1
   17    15    18    1
   18    18    19    1
   19    18    20    2
@<TRIPOS>SUBSTRUCTURE
       1 MOL1            1 RESIDUE      1      MOL     
@<SCITEGIC>MOL_PROPERTY
VConf Rank
SciTegic.value.IntegerValue
966

@<SCITEGIC>MOL_PROPERTY
Conf_Id
SciTegic.value.IntegerValue
54

@<SCITEGIC>MOL_PROPERTY
Delta U+W
SciTegic.value.DoubleValue
-0.048

@<SCITEGIC>MOL_PROPERTY
U+W
SciTegic.value.DoubleValue
-51.793

@<SCITEGIC>MOL_PROPERTY
Grad RMS
SciTegic.value.DoubleValue
0.000000

@<SCITEGIC>MOL_PROPERTY
U
SciTegic.value.DoubleValue
8.964

@<SCITEGIC>MOL_PROPERTY
W
SciTegic.value.DoubleValue
-60.756

@<SCITEGIC>MOL_PROPERTY
W(PB)
SciTegic.value.DoubleValue
-63.007

@<SCITEGIC>MOL_PROPERTY
W(SA)
SciTegic.value.DoubleValue
2.251

@<SCITEGIC>MOL_PROPERTY
Valence
SciTegic.value.DoubleValue
9.327

@<SCITEGIC>MOL_PROPERTY
Coulomb
SciTegic.value.DoubleValue
-0.780

@<SCITEGIC>MOL_PROPERTY
VdW
SciTegic.value.DoubleValue
0.417

@<SCITEGIC>MOL_PROPERTY
VdW6
SciTegic.value.DoubleValue
-6.635

@<SCITEGIC>MOL_PROPERTY
VdW12
SciTegic.value.DoubleValue
7.052

@<SCITEGIC>MOL_PROPERTY
Bond
SciTegic.value.DoubleValue
0.105

@<SCITEGIC>MOL_PROPERTY
Angle
SciTegic.value.DoubleValue
2.399

@<SCITEGIC>MOL_PROPERTY
Pdih
SciTegic.value.DoubleValue
6.822

@<SCITEGIC>MOL_PROPERTY
Idih
SciTegic.value.DoubleValue
0.000

@<SCITEGIC>MOL_PROPERTY
Tether
SciTegic.value.DoubleValue
0.000

@<TRIPOS>MOLECULE
guest-s22_confgen4.mol2 : confsearch ligand conformer 967
          20          19           1
SMALL
USER_CHARGES
 
@<TRIPOS>ATOM
       1    C1      17.000591   17.370180   22.870132 C.2        1 MOL1        -0.2535
       2    H1      16.055222   17.173761   22.367255 H          1 MOL1         0.0845
       3    H2      17.424431   16.567802   23.471844 H          1 MOL1         0.0845
       4    C2      17.614892   18.549823   22.748689 C.2        1 MOL1        -0.1324
       5    H3      17.171478   19.340563   22.144233 H          1 MOL1         0.0833
       6    C3      18.925296   18.896258   23.422982 C.3        1 MOL1        -0.1813
       7    H4      19.098927   18.214310   24.266386 H          1 MOL1         0.0753
       8    H5      18.870708   19.906174   23.850926 H          1 MOL1         0.0753
       9    C4      20.127714   18.803799   22.456627 C.3        1 MOL1        -0.1855
      10    H6      21.053414   18.929445   23.034793 H          1 MOL1         0.0755
      11    H7      20.167310   17.797279   22.017894 H          1 MOL1         0.0755
      12    C5      20.078323   19.864525   21.331227 C.3        1 MOL1        -0.1855
      13    H8      20.023961   20.870593   21.769758 H          1 MOL1         0.0755
      14    H9      19.164238   19.727903   20.738541 H          1 MOL1         0.0755
      15    C6      21.302173   19.783281   20.382136 C.3        1 MOL1        -0.1958
      16    H10     21.389353   18.773859   19.962257 H          1 MOL1         0.0753
      17    H11     21.156640   20.466952   19.537524 H          1 MOL1         0.0753
      18    C7      22.626832   20.152061   21.044038 C.2        1 MOL1         0.6174
      19    O1      23.398579   19.256674   21.326418 O.co2      1 MOL1        -0.6695
      20    O2      22.856119   21.327721   21.249869 O.co2      1 MOL1        -0.6695
@<TRIPOS>BOND
    1     1     2    1
    2     1     3    1
    3     1     4    2
    4     4     5    1
    5     4     6    1
    6     6     7    1
    7     6     8    1
    8     6     9    1
    9     9    10    1
   10     9    11    1
   11     9    12    1
   12    12    13    1
   13    12    14    1
   14    12    15    1
   15    15    16    1
   16    15    17    1
   17    15    18    1
   18    18    19    1
   19    18    20    2
@<TRIPOS>SUBSTRUCTURE
       1 MOL1            1 RESIDUE      1      MOL     
@<SCITEGIC>MOL_PROPERTY
VConf Rank
SciTegic.value.IntegerValue
967

@<SCITEGIC>MOL_PROPERTY
Conf_Id
SciTegic.value.IntegerValue
27

@<SCITEGIC>MOL_PROPERTY
Delta U+W
SciTegic.value.DoubleValue
0.478

@<SCITEGIC>MOL_PROPERTY
U+W
SciTegic.value.DoubleValue
-51.267

@<SCITEGIC>MOL_PROPERTY
Grad RMS
SciTegic.value.DoubleValue
0.000000

@<SCITEGIC>MOL_PROPERTY
U
SciTegic.value.DoubleValue
9.192

@<SCITEGIC>MOL_PROPERTY
W
SciTegic.value.DoubleValue
-60.459

@<SCITEGIC>MOL_PROPERTY
W(PB)
SciTegic.value.DoubleValue
-62.649

@<SCITEGIC>MOL_PROPERTY
W(SA)
SciTegic.value.DoubleValue
2.190

@<SCITEGIC>MOL_PROPERTY
Valence
SciTegic.value.DoubleValue
9.572

@<SCITEGIC>MOL_PROPERTY
Coulomb
SciTegic.value.DoubleValue
-0.884

@<SCITEGIC>MOL_PROPERTY
VdW
SciTegic.value.DoubleValue
0.504

@<SCITEGIC>MOL_PROPERTY
VdW6
SciTegic.value.DoubleValue
-7.168

@<SCITEGIC>MOL_PROPERTY
VdW12
SciTegic.value.DoubleValue
7.672

@<SCITEGIC>MOL_PROPERTY
Bond
SciTegic.value.DoubleValue
0.127

@<SCITEGIC>MOL_PROPERTY
Angle
SciTegic.value.DoubleValue
2.504

@<SCITEGIC>MOL_PROPERTY
Pdih
SciTegic.value.DoubleValue
6.941

@<SCITEGIC>MOL_PROPERTY
Idih
SciTegic.value.DoubleValue
0.001

@<SCITEGIC>MOL_PROPERTY
Tether
SciTegic.value.DoubleValue
0.000

@<TRIPOS>MOLECULE
guest-s22_confgen4.mol2 : confsearch ligand conformer 968
          20          19           1
SMALL
USER_CHARGES
 
@<TRIPOS>ATOM
       1    C1      21.719043   21.095546   23.288854 C.2        1 MOL1        -0.2535
       2    H1      21.687408   20.945068   24.366751 H          1 MOL1         0.0845
       3    H2      21.919175   22.103419   22.929221 H          1 MOL1         0.0845
       4    C2      21.517486   20.086364   22.437617 C.2        1 MOL1        -0.1324
       5    H3      21.556635   20.258373   21.362363 H          1 MOL1         0.0833
       6    C3      21.240846   18.660375   22.864025 C.3        1 MOL1        -0.1813
       7    H4      21.568175   18.514271   23.902324 H          1 MOL1         0.0753
       8    H5      21.834012   17.965781   22.254309 H          1 MOL1         0.0753
       9    C4      19.742631   18.295885   22.761269 C.3        1 MOL1        -0.1855
      10    H6      19.588944   17.303145   23.205934 H          1 MOL1         0.0755
      11    H7      19.153143   19.003566   23.360434 H          1 MOL1         0.0755
      12    C5      19.225210   18.284828   21.304494 C.3        1 MOL1        -0.1855
      13    H8      19.832271   17.596135   20.700724 H          1 MOL1         0.0755
      14    H9      19.336599   19.282870   20.859311 H          1 MOL1         0.0755
      15    C6      17.738302   17.859504   21.225350 C.3        1 MOL1        -0.1958
      16    H10     17.607534   16.857057   21.650246 H          1 MOL1         0.0753
      17    H11     17.116895   18.545076   21.813952 H          1 MOL1         0.0753
      18    C7      17.203080   17.841929   19.798018 C.2        1 MOL1         0.6174
      19    O1      16.703719   18.859445   19.359883 O.co2      1 MOL1        -0.6695
      20    O2      17.315561   16.816347   19.155969 O.co2      1 MOL1        -0.6695
@<TRIPOS>BOND
    1     1     2    1
    2     1     3    1
    3     1     4    2
    4     4     5    1
    5     4     6    1
    6     6     7    1
    7     6     8    1
    8     6     9    1
    9     9    10    1
   10     9    11    1
   11     9    12    1
   12    12    13    1
   13    12    14    1
   14    12    15    1
   15    15    16    1
   16    15    17    1
   17    15    18    1
   18    18    19    1
   19    18    20    2
@<TRIPOS>SUBSTRUCTURE
       1 MOL1            1 RESIDUE      1      MOL     
@<SCITEGIC>MOL_PROPERTY
VConf Rank
SciTegic.value.IntegerValue
968

@<SCITEGIC>MOL_PROPERTY
Conf_Id
SciTegic.value.IntegerValue
41

@<SCITEGIC>MOL_PROPERTY
Delta U+W
SciTegic.value.DoubleValue
-0.634

@<SCITEGIC>MOL_PROPERTY
U+W
SciTegic.value.DoubleValue
-52.379

@<SCITEGIC>MOL_PROPERTY
Grad RMS
SciTegic.value.DoubleValue
0.000000

@<SCITEGIC>MOL_PROPERTY
U
SciTegic.value.DoubleValue
7.828

@<SCITEGIC>MOL_PROPERTY
W
SciTegic.value.DoubleValue
-60.207

@<SCITEGIC>MOL_PROPERTY
W(PB)
SciTegic.value.DoubleValue
-62.449

@<SCITEGIC>MOL_PROPERTY
W(SA)
SciTegic.value.DoubleValue
2.242

@<SCITEGIC>MOL_PROPERTY
Valence
SciTegic.value.DoubleValue
9.300

@<SCITEGIC>MOL_PROPERTY
Coulomb
SciTegic.value.DoubleValue
-2.080

@<SCITEGIC>MOL_PROPERTY
VdW
SciTegic.value.DoubleValue
0.608

@<SCITEGIC>MOL_PROPERTY
VdW6
SciTegic.value.DoubleValue
-6.341

@<SCITEGIC>MOL_PROPERTY
VdW12
SciTegic.value.DoubleValue
6.949

@<SCITEGIC>MOL_PROPERTY
Bond
SciTegic.value.DoubleValue
0.103

@<SCITEGIC>MOL_PROPERTY
Angle
SciTegic.value.DoubleValue
2.334

@<SCITEGIC>MOL_PROPERTY
Pdih
SciTegic.value.DoubleValue
6.862

@<SCITEGIC>MOL_PROPERTY
Idih
SciTegic.value.DoubleValue
0.001

@<SCITEGIC>MOL_PROPERTY
Tether
SciTegic.value.DoubleValue
0.000

@<TRIPOS>MOLECULE
guest-s22_confgen4.mol2 : confsearch ligand conformer 969
          20          19           1
SMALL
USER_CHARGES
 
@<TRIPOS>ATOM
       1    C1      20.472705   18.498787   25.547821 C.2        1 MOL1        -0.2535
       2    H1      20.256633   18.871737   26.547551 H          1 MOL1         0.0845
       3    H2      20.840961   17.477663   25.462693 H          1 MOL1         0.0845
       4    C2      20.289647   19.266430   24.470357 C.2        1 MOL1        -0.1324
       5    H3      19.919503   20.285901   24.576840 H          1 MOL1         0.0833
       6    C3      20.568337   18.818758   23.052782 C.3        1 MOL1        -0.1813
       7    H4      21.168727   17.899030   23.055527 H          1 MOL1         0.0753
       8    H5      21.163994   19.587461   22.543622 H          1 MOL1         0.0753
       9    C4      19.253221   18.574441   22.279505 C.3        1 MOL1        -0.1855
      10    H6      18.627490   17.878608   22.855210 H          1 MOL1         0.0755
      11    H7      18.687272   19.513759   22.211377 H          1 MOL1         0.0755
      12    C5      19.468351   17.987028   20.862870 C.3        1 MOL1        -0.1855
      13    H8      18.487521   17.772834   20.416238 H          1 MOL1         0.0755
      14    H9      19.985526   17.021639   20.946312 H          1 MOL1         0.0755
      15    C6      20.264075   18.909273   19.899175 C.3        1 MOL1        -0.1958
      16    H10     21.277410   19.083470   20.278401 H          1 MOL1         0.0753
      17    H11     20.377549   18.409626   18.930061 H          1 MOL1         0.0753
      18    C7      19.600891   20.258799   19.638975 C.2        1 MOL1         0.6174
      19    O1      18.602450   20.281770   18.946159 O.co2      1 MOL1        -0.6695
      20    O2      20.108939   21.252563   20.119884 O.co2      1 MOL1        -0.6695
@<TRIPOS>BOND
    1     1     2    1
    2     1     3    1
    3     1     4    2
    4     4     5    1
    5     4     6    1
    6     6     7    1
    7     6     8    1
    8     6     9    1
    9     9    10    1
   10     9    11    1
   11     9    12    1
   12    12    13    1
   13    12    14    1
   14    12    15    1
   15    15    16    1
   16    15    17    1
   17    15    18    1
   18    18    19    1
   19    18    20    2
@<TRIPOS>SUBSTRUCTURE
       1 MOL1            1 RESIDUE      1      MOL     
@<SCITEGIC>MOL_PROPERTY
VConf Rank
SciTegic.value.IntegerValue
969

@<SCITEGIC>MOL_PROPERTY
Conf_Id
SciTegic.value.IntegerValue
84

@<SCITEGIC>MOL_PROPERTY
Delta U+W
SciTegic.value.DoubleValue
0.942

@<SCITEGIC>MOL_PROPERTY
U+W
SciTegic.value.DoubleValue
-50.803

@<SCITEGIC>MOL_PROPERTY
Grad RMS
SciTegic.value.DoubleValue
0.000000

@<SCITEGIC>MOL_PROPERTY
U
SciTegic.value.DoubleValue
10.196

@<SCITEGIC>MOL_PROPERTY
W
SciTegic.value.DoubleValue
-60.999

@<SCITEGIC>MOL_PROPERTY
W(PB)
SciTegic.value.DoubleValue
-63.182

@<SCITEGIC>MOL_PROPERTY
W(SA)
SciTegic.value.DoubleValue
2.182

@<SCITEGIC>MOL_PROPERTY
Valence
SciTegic.value.DoubleValue
9.837

@<SCITEGIC>MOL_PROPERTY
Coulomb
SciTegic.value.DoubleValue
0.032

@<SCITEGIC>MOL_PROPERTY
VdW
SciTegic.value.DoubleValue
0.328

@<SCITEGIC>MOL_PROPERTY
VdW6
SciTegic.value.DoubleValue
-7.642

@<SCITEGIC>MOL_PROPERTY
VdW12
SciTegic.value.DoubleValue
7.969

@<SCITEGIC>MOL_PROPERTY
Bond
SciTegic.value.DoubleValue
0.151

@<SCITEGIC>MOL_PROPERTY
Angle
SciTegic.value.DoubleValue
2.748

@<SCITEGIC>MOL_PROPERTY
Pdih
SciTegic.value.DoubleValue
6.937

@<SCITEGIC>MOL_PROPERTY
Idih
SciTegic.value.DoubleValue
0.001

@<SCITEGIC>MOL_PROPERTY
Tether
SciTegic.value.DoubleValue
0.000

@<TRIPOS>MOLECULE
guest-s22_confgen4.mol2 : confsearch ligand conformer 970
          20          19           1
SMALL
USER_CHARGES
 
@<TRIPOS>ATOM
       1    C1      18.320475   22.119301   20.661065 C.2        1 MOL1        -0.2535
       2    H1      18.170067   22.684604   19.742876 H          1 MOL1         0.0845
       3    H2      17.464690   22.004068   21.324341 H          1 MOL1         0.0845
       4    C2      19.509236   21.587494   20.957194 C.2        1 MOL1        -0.1324
       5    H3      20.352990   21.713759   20.279130 H          1 MOL1         0.0833
       6    C3      19.793276   20.792065   22.211897 C.3        1 MOL1        -0.1813
       7    H4      18.984594   20.931999   22.942132 H          1 MOL1         0.0753
       8    H5      20.712577   21.165069   22.682892 H          1 MOL1         0.0753
       9    C4      19.945820   19.289285   21.896553 C.3        1 MOL1        -0.1855
      10    H6      19.025279   18.924429   21.419934 H          1 MOL1         0.0755
      11    H7      20.757180   19.148162   21.169346 H          1 MOL1         0.0755
      12    C5      20.240006   18.462295   23.168511 C.3        1 MOL1        -0.1855
      13    H8      19.423306   18.590025   23.892664 H          1 MOL1         0.0755
      14    H9      21.150549   18.846527   23.647935 H          1 MOL1         0.0755
      15    C6      20.428365   16.952618   22.868045 C.3        1 MOL1        -0.1958
      16    H10     21.222921   16.810243   22.125574 H          1 MOL1         0.0753
      17    H11     20.749142   16.434773   23.779589 H          1 MOL1         0.0753
      18    C7      19.164942   16.257223   22.368962 C.2        1 MOL1         0.6174
      19    O1      19.088523   15.979696   21.188237 O.co2      1 MOL1        -0.6695
      20    O2      18.295636   15.999778   23.178366 O.co2      1 MOL1        -0.6695
@<TRIPOS>BOND
    1     1     2    1
    2     1     3    1
    3     1     4    2
    4     4     5    1
    5     4     6    1
    6     6     7    1
    7     6     8    1
    8     6     9    1
    9     9    10    1
   10     9    11    1
   11     9    12    1
   12    12    13    1
   13    12    14    1
   14    12    15    1
   15    15    16    1
   16    15    17    1
   17    15    18    1
   18    18    19    1
   19    18    20    2
@<TRIPOS>SUBSTRUCTURE
       1 MOL1            1 RESIDUE      1      MOL     
@<SCITEGIC>MOL_PROPERTY
VConf Rank
SciTegic.value.IntegerValue
970

@<SCITEGIC>MOL_PROPERTY
Conf_Id
SciTegic.value.IntegerValue
81

@<SCITEGIC>MOL_PROPERTY
Delta U+W
SciTegic.value.DoubleValue
-0.051

@<SCITEGIC>MOL_PROPERTY
U+W
SciTegic.value.DoubleValue
-51.796

@<SCITEGIC>MOL_PROPERTY
Grad RMS
SciTegic.value.DoubleValue
0.000000

@<SCITEGIC>MOL_PROPERTY
U
SciTegic.value.DoubleValue
9.412

@<SCITEGIC>MOL_PROPERTY
W
SciTegic.value.DoubleValue
-61.209

@<SCITEGIC>MOL_PROPERTY
W(PB)
SciTegic.value.DoubleValue
-63.452

@<SCITEGIC>MOL_PROPERTY
W(SA)
SciTegic.value.DoubleValue
2.243

@<SCITEGIC>MOL_PROPERTY
Valence
SciTegic.value.DoubleValue
9.329

@<SCITEGIC>MOL_PROPERTY
Coulomb
SciTegic.value.DoubleValue
-0.323

@<SCITEGIC>MOL_PROPERTY
VdW
SciTegic.value.DoubleValue
0.406

@<SCITEGIC>MOL_PROPERTY
VdW6
SciTegic.value.DoubleValue
-6.640

@<SCITEGIC>MOL_PROPERTY
VdW12
SciTegic.value.DoubleValue
7.046

@<SCITEGIC>MOL_PROPERTY
Bond
SciTegic.value.DoubleValue
0.105

@<SCITEGIC>MOL_PROPERTY
Angle
SciTegic.value.DoubleValue
2.401

@<SCITEGIC>MOL_PROPERTY
Pdih
SciTegic.value.DoubleValue
6.823

@<SCITEGIC>MOL_PROPERTY
Idih
SciTegic.value.DoubleValue
0.000

@<SCITEGIC>MOL_PROPERTY
Tether
SciTegic.value.DoubleValue
0.000

@<TRIPOS>MOLECULE
guest-s22_confgen4.mol2 : confsearch ligand conformer 971
          20          19           1
SMALL
USER_CHARGES
 
@<TRIPOS>ATOM
       1    C1      17.623194   20.610073   20.014023 C.2        1 MOL1        -0.2535
       2    H1      17.472748   21.616386   20.401528 H          1 MOL1         0.0845
       3    H2      17.324619   20.419546   18.984607 H          1 MOL1         0.0845
       4    C2      18.155705   19.644900   20.768045 C.2        1 MOL1        -0.1324
       5    H3      18.295594   18.643646   20.361662 H          1 MOL1         0.0833
       6    C3      18.588778   19.833732   22.206209 C.3        1 MOL1        -0.1813
       7    H4      18.240820   18.991409   22.818051 H          1 MOL1         0.0753
       8    H5      18.105138   20.726799   22.624228 H          1 MOL1         0.0753
       9    C4      20.121517   19.994812   22.345756 C.3        1 MOL1        -0.1855
      10    H6      20.434045   20.893414   21.796506 H          1 MOL1         0.0755
      11    H7      20.365070   20.182932   23.400395 H          1 MOL1         0.0755
      12    C5      20.949272   18.786126   21.837829 C.3        1 MOL1        -0.1855
      13    H8      22.017022   19.015730   21.957721 H          1 MOL1         0.0755
      14    H9      20.785920   18.657318   20.759673 H          1 MOL1         0.0755
      15    C6      20.643538   17.447344   22.563350 C.3        1 MOL1        -0.1958
      16    H10     19.601713   17.148883   22.400369 H          1 MOL1         0.0753
      17    H11     21.264569   16.652205   22.134771 H          1 MOL1         0.0753
      18    C7      20.914766   17.476500   24.064726 C.2        1 MOL1         0.6174
      19    O1      19.964460   17.470426   24.822332 O.co2      1 MOL1        -0.6695
      20    O2      22.071741   17.486859   24.437234 O.co2      1 MOL1        -0.6695
@<TRIPOS>BOND
    1     1     2    1
    2     1     3    1
    3     1     4    2
    4     4     5    1
    5     4     6    1
    6     6     7    1
    7     6     8    1
    8     6     9    1
    9     9    10    1
   10     9    11    1
   11     9    12    1
   12    12    13    1
   13    12    14    1
   14    12    15    1
   15    15    16    1
   16    15    17    1
   17    15    18    1
   18    18    19    1
   19    18    20    2
@<TRIPOS>SUBSTRUCTURE
       1 MOL1            1 RESIDUE      1      MOL     
@<SCITEGIC>MOL_PROPERTY
VConf Rank
SciTegic.value.IntegerValue
971

@<SCITEGIC>MOL_PROPERTY
Conf_Id
SciTegic.value.IntegerValue
86

@<SCITEGIC>MOL_PROPERTY
Delta U+W
SciTegic.value.DoubleValue
1.248

@<SCITEGIC>MOL_PROPERTY
U+W
SciTegic.value.DoubleValue
-50.498

@<SCITEGIC>MOL_PROPERTY
Grad RMS
SciTegic.value.DoubleValue
0.000000

@<SCITEGIC>MOL_PROPERTY
U
SciTegic.value.DoubleValue
10.404

@<SCITEGIC>MOL_PROPERTY
W
SciTegic.value.DoubleValue
-60.901

@<SCITEGIC>MOL_PROPERTY
W(PB)
SciTegic.value.DoubleValue
-63.061

@<SCITEGIC>MOL_PROPERTY
W(SA)
SciTegic.value.DoubleValue
2.159

@<SCITEGIC>MOL_PROPERTY
Valence
SciTegic.value.DoubleValue
10.021

@<SCITEGIC>MOL_PROPERTY
Coulomb
SciTegic.value.DoubleValue
0.094

@<SCITEGIC>MOL_PROPERTY
VdW
SciTegic.value.DoubleValue
0.289

@<SCITEGIC>MOL_PROPERTY
VdW6
SciTegic.value.DoubleValue
-8.409

@<SCITEGIC>MOL_PROPERTY
VdW12
SciTegic.value.DoubleValue
8.698

@<SCITEGIC>MOL_PROPERTY
Bond
SciTegic.value.DoubleValue
0.179

@<SCITEGIC>MOL_PROPERTY
Angle
SciTegic.value.DoubleValue
2.939

@<SCITEGIC>MOL_PROPERTY
Pdih
SciTegic.value.DoubleValue
6.902

@<SCITEGIC>MOL_PROPERTY
Idih
SciTegic.value.DoubleValue
0.001

@<SCITEGIC>MOL_PROPERTY
Tether
SciTegic.value.DoubleValue
0.000

@<TRIPOS>MOLECULE
guest-s22_confgen4.mol2 : confsearch ligand conformer 972
          20          19           1
SMALL
USER_CHARGES
 
@<TRIPOS>ATOM
       1    C1      19.136873   16.085092   22.697709 C.2        1 MOL1        -0.2535
       2    H1      18.273127   15.490033   22.989174 H          1 MOL1         0.0845
       3    H2      19.663774   15.793074   21.790778 H          1 MOL1         0.0845
       4    C2      19.529639   17.134150   23.425196 C.2        1 MOL1        -0.1324
       5    H3      18.986987   17.411087   24.328647 H          1 MOL1         0.0833
       6    C3      20.718155   18.007556   23.083663 C.3        1 MOL1        -0.1813
       7    H4      21.320657   17.547587   22.288627 H          1 MOL1         0.0753
       8    H5      21.371722   18.083356   23.962824 H          1 MOL1         0.0753
       9    C4      20.296011   19.430314   22.652834 C.3        1 MOL1        -0.1855
      10    H6      19.690076   19.889612   23.445810 H          1 MOL1         0.0755
      11    H7      21.197699   20.049482   22.549881 H          1 MOL1         0.0755
      12    C5      19.510621   19.442019   21.319932 C.3        1 MOL1        -0.1855
      13    H8      18.605370   18.828951   21.423544 H          1 MOL1         0.0755
      14    H9      20.115475   18.979128   20.527950 H          1 MOL1         0.0755
      15    C6      19.098023   20.871713   20.883163 C.3        1 MOL1        -0.1958
      16    H10     18.443886   20.811914   20.005399 H          1 MOL1         0.0753
      17    H11     18.519575   21.358278   21.677789 H          1 MOL1         0.0753
      18    C7      20.274038   21.771901   20.515228 C.2        1 MOL1         0.6174
      19    O1      20.813864   21.597851   19.440322 O.co2      1 MOL1        -0.6695
      20    O2      20.612136   22.630062   21.306642 O.co2      1 MOL1        -0.6695
@<TRIPOS>BOND
    1     1     2    1
    2     1     3    1
    3     1     4    2
    4     4     5    1
    5     4     6    1
    6     6     7    1
    7     6     8    1
    8     6     9    1
    9     9    10    1
   10     9    11    1
   11     9    12    1
   12    12    13    1
   13    12    14    1
   14    12    15    1
   15    15    16    1
   16    15    17    1
   17    15    18    1
   18    18    19    1
   19    18    20    2
@<TRIPOS>SUBSTRUCTURE
       1 MOL1            1 RESIDUE      1      MOL     
@<SCITEGIC>MOL_PROPERTY
VConf Rank
SciTegic.value.IntegerValue
972

@<SCITEGIC>MOL_PROPERTY
Conf_Id
SciTegic.value.IntegerValue
28

@<SCITEGIC>MOL_PROPERTY
Delta U+W
SciTegic.value.DoubleValue
0.446

@<SCITEGIC>MOL_PROPERTY
U+W
SciTegic.value.DoubleValue
-51.299

@<SCITEGIC>MOL_PROPERTY
Grad RMS
SciTegic.value.DoubleValue
0.000000

@<SCITEGIC>MOL_PROPERTY
U
SciTegic.value.DoubleValue
9.295

@<SCITEGIC>MOL_PROPERTY
W
SciTegic.value.DoubleValue
-60.594

@<SCITEGIC>MOL_PROPERTY
W(PB)
SciTegic.value.DoubleValue
-62.806

@<SCITEGIC>MOL_PROPERTY
W(SA)
SciTegic.value.DoubleValue
2.212

@<SCITEGIC>MOL_PROPERTY
Valence
SciTegic.value.DoubleValue
9.495

@<SCITEGIC>MOL_PROPERTY
Coulomb
SciTegic.value.DoubleValue
-0.610

@<SCITEGIC>MOL_PROPERTY
VdW
SciTegic.value.DoubleValue
0.409

@<SCITEGIC>MOL_PROPERTY
VdW6
SciTegic.value.DoubleValue
-7.332

@<SCITEGIC>MOL_PROPERTY
VdW12
SciTegic.value.DoubleValue
7.741

@<SCITEGIC>MOL_PROPERTY
Bond
SciTegic.value.DoubleValue
0.126

@<SCITEGIC>MOL_PROPERTY
Angle
SciTegic.value.DoubleValue
2.497

@<SCITEGIC>MOL_PROPERTY
Pdih
SciTegic.value.DoubleValue
6.872

@<SCITEGIC>MOL_PROPERTY
Idih
SciTegic.value.DoubleValue
0.000

@<SCITEGIC>MOL_PROPERTY
Tether
SciTegic.value.DoubleValue
0.000

@<TRIPOS>MOLECULE
guest-s22_confgen4.mol2 : confsearch ligand conformer 973
          20          19           1
SMALL
USER_CHARGES
 
@<TRIPOS>ATOM
       1    C1      22.215409   20.969098   21.109577 C.2        1 MOL1        -0.2535
       2    H1      21.823433   21.461150   21.997121 H          1 MOL1         0.0845
       3    H2      23.143992   21.362397   20.699467 H          1 MOL1         0.0845
       4    C2      21.602811   19.926746   20.536689 C.2        1 MOL1        -0.1324
       5    H3      22.045637   19.474001   19.649859 H          1 MOL1         0.0833
       6    C3      20.308727   19.271384   20.989793 C.3        1 MOL1        -0.1813
       7    H4      20.522946   18.227522   21.252700 H          1 MOL1         0.0753
       8    H5      19.618703   19.229971   20.136618 H          1 MOL1         0.0753
       9    C4      19.601569   19.972929   22.175694 C.3        1 MOL1        -0.1855
      10    H6      20.249340   19.941507   23.062587 H          1 MOL1         0.0755
      11    H7      19.456959   21.033592   21.929166 H          1 MOL1         0.0755
      12    C5      18.219649   19.363290   22.518763 C.3        1 MOL1        -0.1855
      13    H8      17.561298   19.443506   21.643247 H          1 MOL1         0.0755
      14    H9      17.753842   19.967575   23.309505 H          1 MOL1         0.0755
      15    C6      18.266419   17.882893   22.986625 C.3        1 MOL1        -0.1958
      16    H10     17.247494   17.536315   23.194796 H          1 MOL1         0.0753
      17    H11     18.656507   17.237331   22.191654 H          1 MOL1         0.0753
      18    C7      19.089654   17.653809   24.251025 C.2        1 MOL1         0.6174
      19    O1      18.647752   18.068029   25.304874 O.co2      1 MOL1        -0.6695
      20    O2      20.139560   17.049698   24.153027 O.co2      1 MOL1        -0.6695
@<TRIPOS>BOND
    1     1     2    1
    2     1     3    1
    3     1     4    2
    4     4     5    1
    5     4     6    1
    6     6     7    1
    7     6     8    1
    8     6     9    1
    9     9    10    1
   10     9    11    1
   11     9    12    1
   12    12    13    1
   13    12    14    1
   14    12    15    1
   15    15    16    1
   16    15    17    1
   17    15    18    1
   18    18    19    1
   19    18    20    2
@<TRIPOS>SUBSTRUCTURE
       1 MOL1            1 RESIDUE      1      MOL     
@<SCITEGIC>MOL_PROPERTY
VConf Rank
SciTegic.value.IntegerValue
973

@<SCITEGIC>MOL_PROPERTY
Conf_Id
SciTegic.value.IntegerValue
53

@<SCITEGIC>MOL_PROPERTY
Delta U+W
SciTegic.value.DoubleValue
0.549

@<SCITEGIC>MOL_PROPERTY
U+W
SciTegic.value.DoubleValue
-51.197

@<SCITEGIC>MOL_PROPERTY
Grad RMS
SciTegic.value.DoubleValue
0.000000

@<SCITEGIC>MOL_PROPERTY
U
SciTegic.value.DoubleValue
10.870

@<SCITEGIC>MOL_PROPERTY
W
SciTegic.value.DoubleValue
-62.067

@<SCITEGIC>MOL_PROPERTY
W(PB)
SciTegic.value.DoubleValue
-64.228

@<SCITEGIC>MOL_PROPERTY
W(SA)
SciTegic.value.DoubleValue
2.161

@<SCITEGIC>MOL_PROPERTY
Valence
SciTegic.value.DoubleValue
8.803

@<SCITEGIC>MOL_PROPERTY
Coulomb
SciTegic.value.DoubleValue
1.020

@<SCITEGIC>MOL_PROPERTY
VdW
SciTegic.value.DoubleValue
1.048

@<SCITEGIC>MOL_PROPERTY
VdW6
SciTegic.value.DoubleValue
-8.312

@<SCITEGIC>MOL_PROPERTY
VdW12
SciTegic.value.DoubleValue
9.360

@<SCITEGIC>MOL_PROPERTY
Bond
SciTegic.value.DoubleValue
0.212

@<SCITEGIC>MOL_PROPERTY
Angle
SciTegic.value.DoubleValue
3.379

@<SCITEGIC>MOL_PROPERTY
Pdih
SciTegic.value.DoubleValue
5.211

@<SCITEGIC>MOL_PROPERTY
Idih
SciTegic.value.DoubleValue
0.001

@<SCITEGIC>MOL_PROPERTY
Tether
SciTegic.value.DoubleValue
0.000

@<TRIPOS>MOLECULE
guest-s22_confgen4.mol2 : confsearch ligand conformer 974
          20          19           1
SMALL
USER_CHARGES
 
@<TRIPOS>ATOM
       1    C1      17.695073   20.793304   21.614328 C.2        1 MOL1        -0.2535
       2    H1      18.538010   21.443161   21.838919 H          1 MOL1         0.0845
       3    H2      16.702661   21.170102   21.855299 H          1 MOL1         0.0845
       4    C2      17.854300   19.586040   21.061322 C.2        1 MOL1        -0.1324
       5    H3      16.975696   18.975829   20.853957 H          1 MOL1         0.0833
       6    C3      19.173935   18.935340   20.680478 C.3        1 MOL1        -0.1813
       7    H4      19.338245   19.076731   19.604182 H          1 MOL1         0.0753
       8    H5      19.086575   17.848872   20.809068 H          1 MOL1         0.0753
       9    C4      20.422221   19.431060   21.456246 C.3        1 MOL1        -0.1855
      10    H6      21.311386   18.939961   21.037862 H          1 MOL1         0.0755
      11    H7      20.564303   20.503966   21.271830 H          1 MOL1         0.0755
      12    C5      20.381129   19.174765   22.985782 C.3        1 MOL1        -0.1855
      13    H8      19.538278   19.720251   23.429181 H          1 MOL1         0.0755
      14    H9      21.288869   19.597773   23.437545 H          1 MOL1         0.0755
      15    C6      20.278416   17.677486   23.385692 C.3        1 MOL1        -0.1958
      16    H10     20.250814   17.595291   24.478417 H          1 MOL1         0.0753
      17    H11     19.341045   17.243876   23.019197 H          1 MOL1         0.0753
      18    C7      21.440532   16.819058   22.894761 C.2        1 MOL1         0.6174
      19    O1      21.233202   16.027676   21.995936 O.co2      1 MOL1        -0.6695
      20    O2      22.519875   16.952246   23.437706 O.co2      1 MOL1        -0.6695
@<TRIPOS>BOND
    1     1     2    1
    2     1     3    1
    3     1     4    2
    4     4     5    1
    5     4     6    1
    6     6     7    1
    7     6     8    1
    8     6     9    1
    9     9    10    1
   10     9    11    1
   11     9    12    1
   12    12    13    1
   13    12    14    1
   14    12    15    1
   15    15    16    1
   16    15    17    1
   17    15    18    1
   18    18    19    1
   19    18    20    2
@<TRIPOS>SUBSTRUCTURE
       1 MOL1            1 RESIDUE      1      MOL     
@<SCITEGIC>MOL_PROPERTY
VConf Rank
SciTegic.value.IntegerValue
974

@<SCITEGIC>MOL_PROPERTY
Conf_Id
SciTegic.value.IntegerValue
66

@<SCITEGIC>MOL_PROPERTY
Delta U+W
SciTegic.value.DoubleValue
1.737

@<SCITEGIC>MOL_PROPERTY
U+W
SciTegic.value.DoubleValue
-50.008

@<SCITEGIC>MOL_PROPERTY
Grad RMS
SciTegic.value.DoubleValue
0.000000

@<SCITEGIC>MOL_PROPERTY
U
SciTegic.value.DoubleValue
11.091

@<SCITEGIC>MOL_PROPERTY
W
SciTegic.value.DoubleValue
-61.099

@<SCITEGIC>MOL_PROPERTY
W(PB)
SciTegic.value.DoubleValue
-63.213

@<SCITEGIC>MOL_PROPERTY
W(SA)
SciTegic.value.DoubleValue
2.114

@<SCITEGIC>MOL_PROPERTY
Valence
SciTegic.value.DoubleValue
9.664

@<SCITEGIC>MOL_PROPERTY
Coulomb
SciTegic.value.DoubleValue
0.658

@<SCITEGIC>MOL_PROPERTY
VdW
SciTegic.value.DoubleValue
0.769

@<SCITEGIC>MOL_PROPERTY
VdW6
SciTegic.value.DoubleValue
-9.171

@<SCITEGIC>MOL_PROPERTY
VdW12
SciTegic.value.DoubleValue
9.940

@<SCITEGIC>MOL_PROPERTY
Bond
SciTegic.value.DoubleValue
0.244

@<SCITEGIC>MOL_PROPERTY
Angle
SciTegic.value.DoubleValue
3.658

@<SCITEGIC>MOL_PROPERTY
Pdih
SciTegic.value.DoubleValue
5.762

@<SCITEGIC>MOL_PROPERTY
Idih
SciTegic.value.DoubleValue
0.001

@<SCITEGIC>MOL_PROPERTY
Tether
SciTegic.value.DoubleValue
0.000

@<TRIPOS>MOLECULE
guest-s22_confgen4.mol2 : confsearch ligand conformer 975
          20          19           1
SMALL
USER_CHARGES
 
@<TRIPOS>ATOM
       1    C1      21.269232   20.758947   20.725834 C.2        1 MOL1        -0.2535
       2    H1      20.304396   21.102968   20.359875 H          1 MOL1         0.0845
       3    H2      22.034571   21.516075   20.886925 H          1 MOL1         0.0845
       4    C2      21.521656   19.467701   20.966343 C.2        1 MOL1        -0.1324
       5    H3      22.507177   19.178110   21.329970 H          1 MOL1         0.0833
       6    C3      20.553041   18.309098   20.793071 C.3        1 MOL1        -0.1813
       7    H4      20.753692   17.559488   21.568618 H          1 MOL1         0.0753
       8    H5      20.780698   17.801089   19.846665 H          1 MOL1         0.0753
       9    C4      19.045805   18.674615   20.823983 C.3        1 MOL1        -0.1855
      10    H6      18.825305   19.381066   20.012935 H          1 MOL1         0.0755
      11    H7      18.460547   17.772874   20.598227 H          1 MOL1         0.0755
      12    C5      18.549626   19.264534   22.168789 C.3        1 MOL1        -0.1855
      13    H8      17.499064   19.564542   22.052622 H          1 MOL1         0.0755
      14    H9      19.105449   20.180217   22.410000 H          1 MOL1         0.0755
      15    C6      18.654525   18.273237   23.356747 C.3        1 MOL1        -0.1958
      16    H10     18.146809   17.332790   23.111934 H          1 MOL1         0.0753
      17    H11     19.703112   18.033696   23.566337 H          1 MOL1         0.0753
      18    C7      18.038504   18.822036   24.638770 C.2        1 MOL1         0.6174
      19    O1      18.756157   19.432639   25.406163 O.co2      1 MOL1        -0.6695
      20    O2      16.852731   18.636657   24.829845 O.co2      1 MOL1        -0.6695
@<TRIPOS>BOND
    1     1     2    1
    2     1     3    1
    3     1     4    2
    4     4     5    1
    5     4     6    1
    6     6     7    1
    7     6     8    1
    8     6     9    1
    9     9    10    1
   10     9    11    1
   11     9    12    1
   12    12    13    1
   13    12    14    1
   14    12    15    1
   15    15    16    1
   16    15    17    1
   17    15    18    1
   18    18    19    1
   19    18    20    2
@<TRIPOS>SUBSTRUCTURE
       1 MOL1            1 RESIDUE      1      MOL     
@<SCITEGIC>MOL_PROPERTY
VConf Rank
SciTegic.value.IntegerValue
975

@<SCITEGIC>MOL_PROPERTY
Conf_Id
SciTegic.value.IntegerValue
64

@<SCITEGIC>MOL_PROPERTY
Delta U+W
SciTegic.value.DoubleValue
0.366

@<SCITEGIC>MOL_PROPERTY
U+W
SciTegic.value.DoubleValue
-51.379

@<SCITEGIC>MOL_PROPERTY
Grad RMS
SciTegic.value.DoubleValue
0.000000

@<SCITEGIC>MOL_PROPERTY
U
SciTegic.value.DoubleValue
10.000

@<SCITEGIC>MOL_PROPERTY
W
SciTegic.value.DoubleValue
-61.379

@<SCITEGIC>MOL_PROPERTY
W(PB)
SciTegic.value.DoubleValue
-63.541

@<SCITEGIC>MOL_PROPERTY
W(SA)
SciTegic.value.DoubleValue
2.162

@<SCITEGIC>MOL_PROPERTY
Valence
SciTegic.value.DoubleValue
9.398

@<SCITEGIC>MOL_PROPERTY
Coulomb
SciTegic.value.DoubleValue
-0.504

@<SCITEGIC>MOL_PROPERTY
VdW
SciTegic.value.DoubleValue
1.105

@<SCITEGIC>MOL_PROPERTY
VdW6
SciTegic.value.DoubleValue
-7.975

@<SCITEGIC>MOL_PROPERTY
VdW12
SciTegic.value.DoubleValue
9.080

@<SCITEGIC>MOL_PROPERTY
Bond
SciTegic.value.DoubleValue
0.216

@<SCITEGIC>MOL_PROPERTY
Angle
SciTegic.value.DoubleValue
3.417

@<SCITEGIC>MOL_PROPERTY
Pdih
SciTegic.value.DoubleValue
5.765

@<SCITEGIC>MOL_PROPERTY
Idih
SciTegic.value.DoubleValue
0.001

@<SCITEGIC>MOL_PROPERTY
Tether
SciTegic.value.DoubleValue
0.000

@<TRIPOS>MOLECULE
guest-s22_confgen4.mol2 : confsearch ligand conformer 976
          20          19           1
SMALL
USER_CHARGES
 
@<TRIPOS>ATOM
       1    C1      22.142425   18.340570   20.151485 C.2        1 MOL1        -0.2535
       2    H1      21.734424   19.055273   19.438636 H          1 MOL1         0.0845
       3    H2      22.514554   17.396472   19.757402 H          1 MOL1         0.0845
       4    C2      22.182843   18.606326   21.459825 C.2        1 MOL1        -0.1324
       5    H3      22.593079   17.876175   22.156946 H          1 MOL1         0.0833
       6    C3      21.684641   19.894026   22.080794 C.3        1 MOL1        -0.1813
       7    H4      21.481421   20.644290   21.304599 H          1 MOL1         0.0753
       8    H5      22.474213   20.313927   22.718057 H          1 MOL1         0.0753
       9    C4      20.415421   19.679440   22.935765 C.3        1 MOL1        -0.1855
      10    H6      20.618584   18.928540   23.711624 H          1 MOL1         0.0755
      11    H7      20.177629   20.615808   23.458787 H          1 MOL1         0.0755
      12    C5      19.194963   19.244404   22.092670 C.3        1 MOL1        -0.1855
      13    H8      19.410585   18.294114   21.585042 H          1 MOL1         0.0755
      14    H9      19.004100   19.988168   21.306746 H          1 MOL1         0.0755
      15    C6      17.923733   19.079232   22.961411 C.3        1 MOL1        -0.1958
      16    H10     18.094874   18.329933   23.743619 H          1 MOL1         0.0753
      17    H11     17.682657   20.023679   23.463793 H          1 MOL1         0.0753
      18    C7      16.705381   18.649825   22.151889 C.2        1 MOL1         0.6174
      19    O1      16.014809   19.515804   21.651950 O.co2      1 MOL1        -0.6695
      20    O2      16.486791   17.460605   22.030792 O.co2      1 MOL1        -0.6695
@<TRIPOS>BOND
    1     1     2    1
    2     1     3    1
    3     1     4    2
    4     4     5    1
    5     4     6    1
    6     6     7    1
    7     6     8    1
    8     6     9    1
    9     9    10    1
   10     9    11    1
   11     9    12    1
   12    12    13    1
   13    12    14    1
   14    12    15    1
   15    15    16    1
   16    15    17    1
   17    15    18    1
   18    18    19    1
   19    18    20    2
@<TRIPOS>SUBSTRUCTURE
       1 MOL1            1 RESIDUE      1      MOL     
@<SCITEGIC>MOL_PROPERTY
VConf Rank
SciTegic.value.IntegerValue
976

@<SCITEGIC>MOL_PROPERTY
Conf_Id
SciTegic.value.IntegerValue
42

@<SCITEGIC>MOL_PROPERTY
Delta U+W
SciTegic.value.DoubleValue
-0.601

@<SCITEGIC>MOL_PROPERTY
U+W
SciTegic.value.DoubleValue
-52.347

@<SCITEGIC>MOL_PROPERTY
Grad RMS
SciTegic.value.DoubleValue
0.000000

@<SCITEGIC>MOL_PROPERTY
U
SciTegic.value.DoubleValue
8.428

@<SCITEGIC>MOL_PROPERTY
W
SciTegic.value.DoubleValue
-60.774

@<SCITEGIC>MOL_PROPERTY
W(PB)
SciTegic.value.DoubleValue
-62.982

@<SCITEGIC>MOL_PROPERTY
W(SA)
SciTegic.value.DoubleValue
2.208

@<SCITEGIC>MOL_PROPERTY
Valence
SciTegic.value.DoubleValue
9.231

@<SCITEGIC>MOL_PROPERTY
Coulomb
SciTegic.value.DoubleValue
-1.304

@<SCITEGIC>MOL_PROPERTY
VdW
SciTegic.value.DoubleValue
0.501

@<SCITEGIC>MOL_PROPERTY
VdW6
SciTegic.value.DoubleValue
-6.515

@<SCITEGIC>MOL_PROPERTY
VdW12
SciTegic.value.DoubleValue
7.016

@<SCITEGIC>MOL_PROPERTY
Bond
SciTegic.value.DoubleValue
0.103

@<SCITEGIC>MOL_PROPERTY
Angle
SciTegic.value.DoubleValue
2.328

@<SCITEGIC>MOL_PROPERTY
Pdih
SciTegic.value.DoubleValue
6.799

@<SCITEGIC>MOL_PROPERTY
Idih
SciTegic.value.DoubleValue
0.000

@<SCITEGIC>MOL_PROPERTY
Tether
SciTegic.value.DoubleValue
0.000

@<TRIPOS>MOLECULE
guest-s22_confgen4.mol2 : confsearch ligand conformer 977
          20          19           1
SMALL
USER_CHARGES
 
@<TRIPOS>ATOM
       1    C1      22.021153   17.759886   23.262056 C.2        1 MOL1        -0.2535
       2    H1      22.159620   18.477274   24.069259 H          1 MOL1         0.0845
       3    H2      22.915430   17.324135   22.819919 H          1 MOL1         0.0845
       4    C2      20.803292   17.427712   22.825595 C.2        1 MOL1        -0.1324
       5    H3      20.686626   16.709601   22.014354 H          1 MOL1         0.0833
       6    C3      19.516098   17.991565   23.388719 C.3        1 MOL1        -0.1813
       7    H4      19.710190   18.546260   24.316755 H          1 MOL1         0.0753
       8    H5      18.848335   17.162299   23.657457 H          1 MOL1         0.0753
       9    C4      18.789019   18.909885   22.380749 C.3        1 MOL1        -0.1855
      10    H6      18.589864   18.351066   21.455873 H          1 MOL1         0.0755
      11    H7      17.810358   19.187949   22.795048 H          1 MOL1         0.0755
      12    C5      19.588761   20.194574   22.059414 C.3        1 MOL1        -0.1855
      13    H8      20.554134   19.931993   21.605036 H          1 MOL1         0.0755
      14    H9      19.814504   20.723640   22.995020 H          1 MOL1         0.0755
      15    C6      18.822062   21.152184   21.110741 C.3        1 MOL1        -0.1958
      16    H10     17.844439   21.406649   21.537622 H          1 MOL1         0.0753
      17    H11     19.378734   22.091336   21.010243 H          1 MOL1         0.0753
      18    C7      18.609578   20.594130   19.706377 C.2        1 MOL1         0.6174
      19    O1      17.509319   20.166454   19.417086 O.co2      1 MOL1        -0.6695
      20    O2      19.546454   20.618959   18.932593 O.co2      1 MOL1        -0.6695
@<TRIPOS>BOND
    1     1     2    1
    2     1     3    1
    3     1     4    2
    4     4     5    1
    5     4     6    1
    6     6     7    1
    7     6     8    1
    8     6     9    1
    9     9    10    1
   10     9    11    1
   11     9    12    1
   12    12    13    1
   13    12    14    1
   14    12    15    1
   15    15    16    1
   16    15    17    1
   17    15    18    1
   18    18    19    1
   19    18    20    2
@<TRIPOS>SUBSTRUCTURE
       1 MOL1            1 RESIDUE      1      MOL     
@<SCITEGIC>MOL_PROPERTY
VConf Rank
SciTegic.value.IntegerValue
977

@<SCITEGIC>MOL_PROPERTY
Conf_Id
SciTegic.value.IntegerValue
68

@<SCITEGIC>MOL_PROPERTY
Delta U+W
SciTegic.value.DoubleValue
0.492

@<SCITEGIC>MOL_PROPERTY
U+W
SciTegic.value.DoubleValue
-51.253

@<SCITEGIC>MOL_PROPERTY
Grad RMS
SciTegic.value.DoubleValue
0.000000

@<SCITEGIC>MOL_PROPERTY
U
SciTegic.value.DoubleValue
10.179

@<SCITEGIC>MOL_PROPERTY
W
SciTegic.value.DoubleValue
-61.432

@<SCITEGIC>MOL_PROPERTY
W(PB)
SciTegic.value.DoubleValue
-63.627

@<SCITEGIC>MOL_PROPERTY
W(SA)
SciTegic.value.DoubleValue
2.195

@<SCITEGIC>MOL_PROPERTY
Valence
SciTegic.value.DoubleValue
9.483

@<SCITEGIC>MOL_PROPERTY
Coulomb
SciTegic.value.DoubleValue
0.361

@<SCITEGIC>MOL_PROPERTY
VdW
SciTegic.value.DoubleValue
0.335

@<SCITEGIC>MOL_PROPERTY
VdW6
SciTegic.value.DoubleValue
-7.385

@<SCITEGIC>MOL_PROPERTY
VdW12
SciTegic.value.DoubleValue
7.720

@<SCITEGIC>MOL_PROPERTY
Bond
SciTegic.value.DoubleValue
0.125

@<SCITEGIC>MOL_PROPERTY
Angle
SciTegic.value.DoubleValue
2.487

@<SCITEGIC>MOL_PROPERTY
Pdih
SciTegic.value.DoubleValue
6.870

@<SCITEGIC>MOL_PROPERTY
Idih
SciTegic.value.DoubleValue
0.001

@<SCITEGIC>MOL_PROPERTY
Tether
SciTegic.value.DoubleValue
0.000

@<TRIPOS>MOLECULE
guest-s22_confgen4.mol2 : confsearch ligand conformer 978
          20          19           1
SMALL
USER_CHARGES
 
@<TRIPOS>ATOM
       1    C1      16.578358   18.541161   21.638767 C.2        1 MOL1        -0.2535
       2    H1      16.624748   17.694133   20.956210 H          1 MOL1         0.0845
       3    H2      15.722483   19.208345   21.552046 H          1 MOL1         0.0845
       4    C2      17.533895   18.758786   22.546116 C.2        1 MOL1        -0.1324
       5    H3      17.466397   19.611230   23.221416 H          1 MOL1         0.0833
       6    C3      18.747467   17.872306   22.728263 C.3        1 MOL1        -0.1813
       7    H4      18.560724   16.890345   22.272852 H          1 MOL1         0.0753
       8    H5      18.918787   17.687673   23.797167 H          1 MOL1         0.0753
       9    C4      20.019169   18.478618   22.093171 C.3        1 MOL1        -0.1855
      10    H6      20.827979   17.736916   22.142677 H          1 MOL1         0.0755
      11    H7      19.836300   18.671230   21.026841 H          1 MOL1         0.0755
      12    C5      20.479651   19.779200   22.793293 C.3        1 MOL1        -0.1855
      13    H8      20.611351   19.586014   23.866441 H          1 MOL1         0.0755
      14    H9      19.702694   20.550581   22.703150 H          1 MOL1         0.0755
      15    C6      21.809348   20.327876   22.213884 C.3        1 MOL1        -0.1958
      16    H10     22.148981   21.177650   22.817655 H          1 MOL1         0.0753
      17    H11     22.593190   19.563113   22.272978 H          1 MOL1         0.0753
      18    C7      21.704659   20.806919   20.768755 C.2        1 MOL1         0.6174
      19    O1      21.190977   21.888459   20.560172 O.co2      1 MOL1        -0.6695
      20    O2      22.156318   20.096236   19.892366 O.co2      1 MOL1        -0.6695
@<TRIPOS>BOND
    1     1     2    1
    2     1     3    1
    3     1     4    2
    4     4     5    1
    5     4     6    1
    6     6     7    1
    7     6     8    1
    8     6     9    1
    9     9    10    1
   10     9    11    1
   11     9    12    1
   12    12    13    1
   13    12    14    1
   14    12    15    1
   15    15    16    1
   16    15    17    1
   17    15    18    1
   18    18    19    1
   19    18    20    2
@<TRIPOS>SUBSTRUCTURE
       1 MOL1            1 RESIDUE      1      MOL     
@<SCITEGIC>MOL_PROPERTY
VConf Rank
SciTegic.value.IntegerValue
978

@<SCITEGIC>MOL_PROPERTY
Conf_Id
SciTegic.value.IntegerValue
87

@<SCITEGIC>MOL_PROPERTY
Delta U+W
SciTegic.value.DoubleValue
0.339

@<SCITEGIC>MOL_PROPERTY
U+W
SciTegic.value.DoubleValue
-51.407

@<SCITEGIC>MOL_PROPERTY
Grad RMS
SciTegic.value.DoubleValue
0.000000

@<SCITEGIC>MOL_PROPERTY
U
SciTegic.value.DoubleValue
10.461

@<SCITEGIC>MOL_PROPERTY
W
SciTegic.value.DoubleValue
-61.867

@<SCITEGIC>MOL_PROPERTY
W(PB)
SciTegic.value.DoubleValue
-64.045

@<SCITEGIC>MOL_PROPERTY
W(SA)
SciTegic.value.DoubleValue
2.178

@<SCITEGIC>MOL_PROPERTY
Valence
SciTegic.value.DoubleValue
9.555

@<SCITEGIC>MOL_PROPERTY
Coulomb
SciTegic.value.DoubleValue
0.483

@<SCITEGIC>MOL_PROPERTY
VdW
SciTegic.value.DoubleValue
0.423

@<SCITEGIC>MOL_PROPERTY
VdW6
SciTegic.value.DoubleValue
-7.223

@<SCITEGIC>MOL_PROPERTY
VdW12
SciTegic.value.DoubleValue
7.646

@<SCITEGIC>MOL_PROPERTY
Bond
SciTegic.value.DoubleValue
0.126

@<SCITEGIC>MOL_PROPERTY
Angle
SciTegic.value.DoubleValue
2.492

@<SCITEGIC>MOL_PROPERTY
Pdih
SciTegic.value.DoubleValue
6.936

@<SCITEGIC>MOL_PROPERTY
Idih
SciTegic.value.DoubleValue
0.001

@<SCITEGIC>MOL_PROPERTY
Tether
SciTegic.value.DoubleValue
0.000

@<TRIPOS>MOLECULE
guest-s22_confgen4.mol2 : confsearch ligand conformer 979
          20          19           1
SMALL
USER_CHARGES
 
@<TRIPOS>ATOM
       1    C1      19.690823   18.383194   24.735262 C.2        1 MOL1        -0.2535
       2    H1      20.587978   18.911382   25.053924 H          1 MOL1         0.0845
       3    H2      18.850328   18.358455   25.426621 H          1 MOL1         0.0845
       4    C2      19.620960   17.789471   23.540973 C.2        1 MOL1        -0.1324
       5    H3      18.717661   17.257995   23.243698 H          1 MOL1         0.0833
       6    C3      20.753664   17.773373   22.536817 C.3        1 MOL1        -0.1813
       7    H4      20.607093   16.962468   21.810948 H          1 MOL1         0.0753
       8    H5      21.685146   17.533537   23.067126 H          1 MOL1         0.0753
       9    C4      20.943833   19.120229   21.795884 C.3        1 MOL1        -0.1855
      10    H6      20.902980   19.952169   22.512223 H          1 MOL1         0.0755
      11    H7      21.959054   19.133732   21.376507 H          1 MOL1         0.0755
      12    C5      19.951614   19.370600   20.632305 C.3        1 MOL1        -0.1855
      13    H8      19.985149   18.530242   19.925400 H          1 MOL1         0.0755
      14    H9      20.290714   20.254733   20.074802 H          1 MOL1         0.0755
      15    C6      18.488017   19.610434   21.083555 C.3        1 MOL1        -0.1958
      16    H10     18.063076   18.697527   21.512630 H          1 MOL1         0.0753
      17    H11     18.451807   20.384618   21.859218 H          1 MOL1         0.0753
      18    C7      17.581003   20.044032   19.937716 C.2        1 MOL1         0.6174
      19    O1      17.030677   19.180811   19.282826 O.co2      1 MOL1        -0.6695
      20    O2      17.464780   21.233308   19.716360 O.co2      1 MOL1        -0.6695
@<TRIPOS>BOND
    1     1     2    1
    2     1     3    1
    3     1     4    2
    4     4     5    1
    5     4     6    1
    6     6     7    1
    7     6     8    1
    8     6     9    1
    9     9    10    1
   10     9    11    1
   11     9    12    1
   12    12    13    1
   13    12    14    1
   14    12    15    1
   15    15    16    1
   16    15    17    1
   17    15    18    1
   18    18    19    1
   19    18    20    2
@<TRIPOS>SUBSTRUCTURE
       1 MOL1            1 RESIDUE      1      MOL     
@<SCITEGIC>MOL_PROPERTY
VConf Rank
SciTegic.value.IntegerValue
979

@<SCITEGIC>MOL_PROPERTY
Conf_Id
SciTegic.value.IntegerValue
51

@<SCITEGIC>MOL_PROPERTY
Delta U+W
SciTegic.value.DoubleValue
1.709

@<SCITEGIC>MOL_PROPERTY
U+W
SciTegic.value.DoubleValue
-50.036

@<SCITEGIC>MOL_PROPERTY
Grad RMS
SciTegic.value.DoubleValue
0.000000

@<SCITEGIC>MOL_PROPERTY
U
SciTegic.value.DoubleValue
10.643

@<SCITEGIC>MOL_PROPERTY
W
SciTegic.value.DoubleValue
-60.679

@<SCITEGIC>MOL_PROPERTY
W(PB)
SciTegic.value.DoubleValue
-62.882

@<SCITEGIC>MOL_PROPERTY
W(SA)
SciTegic.value.DoubleValue
2.203

@<SCITEGIC>MOL_PROPERTY
Valence
SciTegic.value.DoubleValue
11.231

@<SCITEGIC>MOL_PROPERTY
Coulomb
SciTegic.value.DoubleValue
-1.077

@<SCITEGIC>MOL_PROPERTY
VdW
SciTegic.value.DoubleValue
0.489

@<SCITEGIC>MOL_PROPERTY
VdW6
SciTegic.value.DoubleValue
-7.546

@<SCITEGIC>MOL_PROPERTY
VdW12
SciTegic.value.DoubleValue
8.035

@<SCITEGIC>MOL_PROPERTY
Bond
SciTegic.value.DoubleValue
0.159

@<SCITEGIC>MOL_PROPERTY
Angle
SciTegic.value.DoubleValue
3.005

@<SCITEGIC>MOL_PROPERTY
Pdih
SciTegic.value.DoubleValue
8.065

@<SCITEGIC>MOL_PROPERTY
Idih
SciTegic.value.DoubleValue
0.002

@<SCITEGIC>MOL_PROPERTY
Tether
SciTegic.value.DoubleValue
0.000

@<TRIPOS>MOLECULE
guest-s22_confgen4.mol2 : confsearch ligand conformer 980
          20          19           1
SMALL
USER_CHARGES
 
@<TRIPOS>ATOM
       1    C1      19.873344   18.060021   24.575266 C.2        1 MOL1        -0.2535
       2    H1      18.998457   18.456526   25.087880 H          1 MOL1         0.0845
       3    H2      20.793289   17.967858   25.149921 H          1 MOL1         0.0845
       4    C2      19.822901   17.702143   23.289540 C.2        1 MOL1        -0.1324
       5    H3      20.706697   17.298962   22.796444 H          1 MOL1         0.0833
       6    C3      18.576552   17.791254   22.434979 C.3        1 MOL1        -0.1813
       7    H4      17.730678   17.392406   23.011021 H          1 MOL1         0.0753
       8    H5      18.671006   17.140494   21.555476 H          1 MOL1         0.0753
       9    C4      18.231174   19.234681   21.991802 C.3        1 MOL1        -0.1855
      10    H6      17.172507   19.253144   21.699194 H          1 MOL1         0.0755
      11    H7      18.319642   19.921013   22.845062 H          1 MOL1         0.0755
      12    C5      19.058870   19.765187   20.794059 C.3        1 MOL1        -0.1855
      13    H8      18.610878   20.710520   20.457700 H          1 MOL1         0.0755
      14    H9      18.979402   19.069314   19.947606 H          1 MOL1         0.0755
      15    C6      20.553504   20.021299   21.116155 C.3        1 MOL1        -0.1958
      16    H10     20.647317   20.639693   22.016772 H          1 MOL1         0.0753
      17    H11     21.072196   19.077543   21.312025 H          1 MOL1         0.0753
      18    C7      21.289934   20.722328   19.980439 C.2        1 MOL1         0.6174
      19    O1      21.797129   20.036160   19.115099 O.co2      1 MOL1        -0.6695
      20    O2      21.319767   21.937232   19.979501 O.co2      1 MOL1        -0.6695
@<TRIPOS>BOND
    1     1     2    1
    2     1     3    1
    3     1     4    2
    4     4     5    1
    5     4     6    1
    6     6     7    1
    7     6     8    1
    8     6     9    1
    9     9    10    1
   10     9    11    1
   11     9    12    1
   12    12    13    1
   13    12    14    1
   14    12    15    1
   15    15    16    1
   16    15    17    1
   17    15    18    1
   18    18    19    1
   19    18    20    2
@<TRIPOS>SUBSTRUCTURE
       1 MOL1            1 RESIDUE      1      MOL     
@<SCITEGIC>MOL_PROPERTY
VConf Rank
SciTegic.value.IntegerValue
980

@<SCITEGIC>MOL_PROPERTY
Conf_Id
SciTegic.value.IntegerValue
91

@<SCITEGIC>MOL_PROPERTY
Delta U+W
SciTegic.value.DoubleValue
1.604

@<SCITEGIC>MOL_PROPERTY
U+W
SciTegic.value.DoubleValue
-50.141

@<SCITEGIC>MOL_PROPERTY
Grad RMS
SciTegic.value.DoubleValue
0.000000

@<SCITEGIC>MOL_PROPERTY
U
SciTegic.value.DoubleValue
10.644

@<SCITEGIC>MOL_PROPERTY
W
SciTegic.value.DoubleValue
-60.786

@<SCITEGIC>MOL_PROPERTY
W(PB)
SciTegic.value.DoubleValue
-62.965

@<SCITEGIC>MOL_PROPERTY
W(SA)
SciTegic.value.DoubleValue
2.179

@<SCITEGIC>MOL_PROPERTY
Valence
SciTegic.value.DoubleValue
11.230

@<SCITEGIC>MOL_PROPERTY
Coulomb
SciTegic.value.DoubleValue
-1.075

@<SCITEGIC>MOL_PROPERTY
VdW
SciTegic.value.DoubleValue
0.489

@<SCITEGIC>MOL_PROPERTY
VdW6
SciTegic.value.DoubleValue
-7.547

@<SCITEGIC>MOL_PROPERTY
VdW12
SciTegic.value.DoubleValue
8.036

@<SCITEGIC>MOL_PROPERTY
Bond
SciTegic.value.DoubleValue
0.159

@<SCITEGIC>MOL_PROPERTY
Angle
SciTegic.value.DoubleValue
3.006

@<SCITEGIC>MOL_PROPERTY
Pdih
SciTegic.value.DoubleValue
8.064

@<SCITEGIC>MOL_PROPERTY
Idih
SciTegic.value.DoubleValue
0.002

@<SCITEGIC>MOL_PROPERTY
Tether
SciTegic.value.DoubleValue
0.000

@<TRIPOS>MOLECULE
guest-s22_confgen4.mol2 : confsearch ligand conformer 981
          20          19           1
SMALL
USER_CHARGES
 
@<TRIPOS>ATOM
       1    C1      19.264404   16.370429   24.402658 C.2        1 MOL1        -0.2535
       2    H1      18.196439   16.446166   24.204402 H          1 MOL1         0.0845
       3    H2      19.568024   15.919703   25.346023 H          1 MOL1         0.0845
       4    C2      20.169774   16.814112   23.526814 C.2        1 MOL1        -0.1324
       5    H3      21.234162   16.729491   23.744928 H          1 MOL1         0.0833
       6    C3      19.823923   17.449388   22.198487 C.3        1 MOL1        -0.1813
       7    H4      18.771200   17.259286   21.948606 H          1 MOL1         0.0753
       8    H5      20.425415   16.989005   21.403251 H          1 MOL1         0.0753
       9    C4      20.078990   18.970930   22.225400 C.3        1 MOL1        -0.1855
      10    H6      19.478286   19.425865   23.025134 H          1 MOL1         0.0755
      11    H7      21.133029   19.160450   22.470848 H          1 MOL1         0.0755
      12    C5      19.733521   19.635588   20.874846 C.3        1 MOL1        -0.1855
      13    H8      18.679271   19.446876   20.628902 H          1 MOL1         0.0755
      14    H9      20.333068   19.180176   20.074429 H          1 MOL1         0.0755
      15    C6      19.989510   21.165980   20.902578 C.3        1 MOL1        -0.1958
      16    H10     19.389238   21.627932   21.695160 H          1 MOL1         0.0753
      17    H11     21.041497   21.361648   21.141211 H          1 MOL1         0.0753
      18    C7      19.672163   21.904221   19.601192 C.2        1 MOL1         0.6174
      19    O1      19.861338   23.104246   19.584170 O.co2      1 MOL1        -0.6695
      20    O2      19.249824   21.284448   18.644030 O.co2      1 MOL1        -0.6695
@<TRIPOS>BOND
    1     1     2    1
    2     1     3    1
    3     1     4    2
    4     4     5    1
    5     4     6    1
    6     6     7    1
    7     6     8    1
    8     6     9    1
    9     9    10    1
   10     9    11    1
   11     9    12    1
   12    12    13    1
   13    12    14    1
   14    12    15    1
   15    15    16    1
   16    15    17    1
   17    15    18    1
   18    18    19    1
   19    18    20    2
@<TRIPOS>SUBSTRUCTURE
       1 MOL1            1 RESIDUE      1      MOL     
@<SCITEGIC>MOL_PROPERTY
VConf Rank
SciTegic.value.IntegerValue
981

@<SCITEGIC>MOL_PROPERTY
Conf_Id
SciTegic.value.IntegerValue
33

@<SCITEGIC>MOL_PROPERTY
Delta U+W
SciTegic.value.DoubleValue
0.000

@<SCITEGIC>MOL_PROPERTY
U+W
SciTegic.value.DoubleValue
-51.745

@<SCITEGIC>MOL_PROPERTY
Grad RMS
SciTegic.value.DoubleValue
0.000000

@<SCITEGIC>MOL_PROPERTY
U
SciTegic.value.DoubleValue
7.593

@<SCITEGIC>MOL_PROPERTY
W
SciTegic.value.DoubleValue
-59.338

@<SCITEGIC>MOL_PROPERTY
W(PB)
SciTegic.value.DoubleValue
-61.574

@<SCITEGIC>MOL_PROPERTY
W(SA)
SciTegic.value.DoubleValue
2.236

@<SCITEGIC>MOL_PROPERTY
Valence
SciTegic.value.DoubleValue
9.570

@<SCITEGIC>MOL_PROPERTY
Coulomb
SciTegic.value.DoubleValue
-3.091

@<SCITEGIC>MOL_PROPERTY
VdW
SciTegic.value.DoubleValue
1.114

@<SCITEGIC>MOL_PROPERTY
VdW6
SciTegic.value.DoubleValue
-6.064

@<SCITEGIC>MOL_PROPERTY
VdW12
SciTegic.value.DoubleValue
7.178

@<SCITEGIC>MOL_PROPERTY
Bond
SciTegic.value.DoubleValue
0.117

@<SCITEGIC>MOL_PROPERTY
Angle
SciTegic.value.DoubleValue
2.692

@<SCITEGIC>MOL_PROPERTY
Pdih
SciTegic.value.DoubleValue
6.761

@<SCITEGIC>MOL_PROPERTY
Idih
SciTegic.value.DoubleValue
0.000

@<SCITEGIC>MOL_PROPERTY
Tether
SciTegic.value.DoubleValue
0.000

@<TRIPOS>MOLECULE
guest-s22_confgen4.mol2 : confsearch ligand conformer 982
          20          19           1
SMALL
USER_CHARGES
 
@<TRIPOS>ATOM
       1    C1      19.973846   15.814330   23.552493 C.2        1 MOL1        -0.2535
       2    H1      20.064937   16.324750   24.509965 H          1 MOL1         0.0845
       3    H2      20.169971   14.743588   23.534968 H          1 MOL1         0.0845
       4    C2      19.637393   16.472600   22.440220 C.2        1 MOL1        -0.1324
       5    H3      19.552451   15.943001   21.491568 H          1 MOL1         0.0833
       6    C3      19.349876   17.956603   22.387373 C.3        1 MOL1        -0.1813
       7    H4      19.205801   18.351743   23.402116 H          1 MOL1         0.0753
       8    H5      18.409937   18.121976   21.845877 H          1 MOL1         0.0753
       9    C4      20.501742   18.720581   21.696468 C.3        1 MOL1        -0.1855
      10    H6      21.444440   18.472877   22.203719 H          1 MOL1         0.0755
      11    H7      20.606714   18.372384   20.659774 H          1 MOL1         0.0755
      12    C5      20.321082   20.257213   21.713879 C.3        1 MOL1        -0.1855
      13    H8      21.229720   20.723265   21.308089 H          1 MOL1         0.0755
      14    H9      20.229259   20.608598   22.750938 H          1 MOL1         0.0755
      15    C6      19.100733   20.746319   20.891384 C.3        1 MOL1        -0.1958
      16    H10     19.159275   20.366054   19.864566 H          1 MOL1         0.0753
      17    H11     18.166840   20.371330   21.324939 H          1 MOL1         0.0753
      18    C7      19.004384   22.266399   20.827790 C.2        1 MOL1         0.6174
      19    O1      18.384643   22.839169   21.702184 O.co2      1 MOL1        -0.6695
      20    O2      19.568322   22.839269   19.916458 O.co2      1 MOL1        -0.6695
@<TRIPOS>BOND
    1     1     2    1
    2     1     3    1
    3     1     4    2
    4     4     5    1
    5     4     6    1
    6     6     7    1
    7     6     8    1
    8     6     9    1
    9     9    10    1
   10     9    11    1
   11     9    12    1
   12    12    13    1
   13    12    14    1
   14    12    15    1
   15    15    16    1
   16    15    17    1
   17    15    18    1
   18    18    19    1
   19    18    20    2
@<TRIPOS>SUBSTRUCTURE
       1 MOL1            1 RESIDUE      1      MOL     
@<SCITEGIC>MOL_PROPERTY
VConf Rank
SciTegic.value.IntegerValue
982

@<SCITEGIC>MOL_PROPERTY
Conf_Id
SciTegic.value.IntegerValue
37

@<SCITEGIC>MOL_PROPERTY
Delta U+W
SciTegic.value.DoubleValue
-0.384

@<SCITEGIC>MOL_PROPERTY
U+W
SciTegic.value.DoubleValue
-52.130

@<SCITEGIC>MOL_PROPERTY
Grad RMS
SciTegic.value.DoubleValue
0.000000

@<SCITEGIC>MOL_PROPERTY
U
SciTegic.value.DoubleValue
7.491

@<SCITEGIC>MOL_PROPERTY
W
SciTegic.value.DoubleValue
-59.621

@<SCITEGIC>MOL_PROPERTY
W(PB)
SciTegic.value.DoubleValue
-61.853

@<SCITEGIC>MOL_PROPERTY
W(SA)
SciTegic.value.DoubleValue
2.232

@<SCITEGIC>MOL_PROPERTY
Valence
SciTegic.value.DoubleValue
9.604

@<SCITEGIC>MOL_PROPERTY
Coulomb
SciTegic.value.DoubleValue
-2.799

@<SCITEGIC>MOL_PROPERTY
VdW
SciTegic.value.DoubleValue
0.686

@<SCITEGIC>MOL_PROPERTY
VdW6
SciTegic.value.DoubleValue
-6.435

@<SCITEGIC>MOL_PROPERTY
VdW12
SciTegic.value.DoubleValue
7.121

@<SCITEGIC>MOL_PROPERTY
Bond
SciTegic.value.DoubleValue
0.124

@<SCITEGIC>MOL_PROPERTY
Angle
SciTegic.value.DoubleValue
2.493

@<SCITEGIC>MOL_PROPERTY
Pdih
SciTegic.value.DoubleValue
6.986

@<SCITEGIC>MOL_PROPERTY
Idih
SciTegic.value.DoubleValue
0.001

@<SCITEGIC>MOL_PROPERTY
Tether
SciTegic.value.DoubleValue
0.000

@<TRIPOS>MOLECULE
guest-s22_confgen4.mol2 : confsearch ligand conformer 983
          20          19           1
SMALL
USER_CHARGES
 
@<TRIPOS>ATOM
       1    C1      23.054290   18.703932   22.566671 C.2        1 MOL1        -0.2535
       2    H1      24.113358   18.609274   22.800352 H          1 MOL1         0.0845
       3    H2      22.747284   18.428570   21.559959 H          1 MOL1         0.0845
       4    C2      22.187731   19.140239   23.487880 C.2        1 MOL1        -0.1324
       5    H3      22.555651   19.401198   24.479930 H          1 MOL1         0.0833
       6    C3      20.689714   19.323871   23.311143 C.3        1 MOL1        -0.1813
       7    H4      20.433223   20.367737   23.536289 H          1 MOL1         0.0753
       8    H5      20.168760   18.721346   24.067255 H          1 MOL1         0.0753
       9    C4      20.146574   18.959160   21.909727 C.3        1 MOL1        -0.1855
      10    H6      20.649050   19.573605   21.150082 H          1 MOL1         0.0755
      11    H7      20.381741   17.909357   21.686797 H          1 MOL1         0.0755
      12    C5      18.620162   19.173451   21.813977 C.3        1 MOL1        -0.1855
      13    H8      18.378263   20.222145   22.036084 H          1 MOL1         0.0755
      14    H9      18.111509   18.561303   22.571706 H          1 MOL1         0.0755
      15    C6      18.073844   18.808918   20.411573 C.3        1 MOL1        -0.1958
      16    H10     18.562169   19.421170   19.643923 H          1 MOL1         0.0753
      17    H11     18.295504   17.760287   20.179533 H          1 MOL1         0.0753
      18    C7      16.567733   19.012143   20.291918 C.2        1 MOL1         0.6174
      19    O1      16.162560   20.099634   19.931576 O.co2      1 MOL1        -0.6695
      20    O2      15.838943   18.083801   20.581216 O.co2      1 MOL1        -0.6695
@<TRIPOS>BOND
    1     1     2    1
    2     1     3    1
    3     1     4    2
    4     4     5    1
    5     4     6    1
    6     6     7    1
    7     6     8    1
    8     6     9    1
    9     9    10    1
   10     9    11    1
   11     9    12    1
   12    12    13    1
   13    12    14    1
   14    12    15    1
   15    15    16    1
   16    15    17    1
   17    15    18    1
   18    18    19    1
   19    18    20    2
@<TRIPOS>SUBSTRUCTURE
       1 MOL1            1 RESIDUE      1      MOL     
@<SCITEGIC>MOL_PROPERTY
VConf Rank
SciTegic.value.IntegerValue
983

@<SCITEGIC>MOL_PROPERTY
Conf_Id
SciTegic.value.IntegerValue
44

@<SCITEGIC>MOL_PROPERTY
Delta U+W
SciTegic.value.DoubleValue
-1.440

@<SCITEGIC>MOL_PROPERTY
U+W
SciTegic.value.DoubleValue
-53.185

@<SCITEGIC>MOL_PROPERTY
Grad RMS
SciTegic.value.DoubleValue
0.000000

@<SCITEGIC>MOL_PROPERTY
U
SciTegic.value.DoubleValue
6.572

@<SCITEGIC>MOL_PROPERTY
W
SciTegic.value.DoubleValue
-59.757

@<SCITEGIC>MOL_PROPERTY
W(PB)
SciTegic.value.DoubleValue
-62.007

@<SCITEGIC>MOL_PROPERTY
W(SA)
SciTegic.value.DoubleValue
2.249

@<SCITEGIC>MOL_PROPERTY
Valence
SciTegic.value.DoubleValue
7.989

@<SCITEGIC>MOL_PROPERTY
Coulomb
SciTegic.value.DoubleValue
-2.697

@<SCITEGIC>MOL_PROPERTY
VdW
SciTegic.value.DoubleValue
1.281

@<SCITEGIC>MOL_PROPERTY
VdW6
SciTegic.value.DoubleValue
-6.467

@<SCITEGIC>MOL_PROPERTY
VdW12
SciTegic.value.DoubleValue
7.748

@<SCITEGIC>MOL_PROPERTY
Bond
SciTegic.value.DoubleValue
0.136

@<SCITEGIC>MOL_PROPERTY
Angle
SciTegic.value.DoubleValue
2.854

@<SCITEGIC>MOL_PROPERTY
Pdih
SciTegic.value.DoubleValue
4.997

@<SCITEGIC>MOL_PROPERTY
Idih
SciTegic.value.DoubleValue
0.001

@<SCITEGIC>MOL_PROPERTY
Tether
SciTegic.value.DoubleValue
0.000

@<TRIPOS>MOLECULE
guest-s22_confgen4.mol2 : confsearch ligand conformer 984
          20          19           1
SMALL
USER_CHARGES
 
@<TRIPOS>ATOM
       1    C1      23.000005   19.227355   23.221205 C.2        1 MOL1        -0.2535
       2    H1      22.697176   18.264877   23.630483 H          1 MOL1         0.0845
       3    H2      23.899264   19.684970   23.630077 H          1 MOL1         0.0845
       4    C2      22.297255   19.827822   22.257203 C.2        1 MOL1        -0.1324
       5    H3      22.617401   20.791523   21.861700 H          1 MOL1         0.0833
       6    C3      21.041201   19.253502   21.640452 C.3        1 MOL1        -0.1813
       7    H4      20.953596   18.189615   21.895540 H          1 MOL1         0.0753
       8    H5      21.109956   19.312853   20.546066 H          1 MOL1         0.0753
       9    C4      19.786980   20.016325   22.123147 C.3        1 MOL1        -0.1855
      10    H6      19.688923   19.910483   23.212355 H          1 MOL1         0.0755
      11    H7      19.925698   21.088470   21.927327 H          1 MOL1         0.0755
      12    C5      18.480266   19.554697   21.434873 C.3        1 MOL1        -0.1855
      13    H8      18.573343   19.669111   20.346012 H          1 MOL1         0.0755
      14    H9      17.663622   20.220069   21.747721 H          1 MOL1         0.0755
      15    C6      18.086929   18.092576   21.770352 C.3        1 MOL1        -0.1958
      16    H10     18.839037   17.392575   21.389517 H          1 MOL1         0.0753
      17    H11     18.033891   17.954671   22.856890 H          1 MOL1         0.0753
      18    C7      16.740560   17.693830   21.176869 C.2        1 MOL1         0.6174
      19    O1      15.741805   17.881297   21.843261 O.co2      1 MOL1        -0.6695
      20    O2      16.723875   17.224726   20.055987 O.co2      1 MOL1        -0.6695
@<TRIPOS>BOND
    1     1     2    1
    2     1     3    1
    3     1     4    2
    4     4     5    1
    5     4     6    1
    6     6     7    1
    7     6     8    1
    8     6     9    1
    9     9    10    1
   10     9    11    1
   11     9    12    1
   12    12    13    1
   13    12    14    1
   14    12    15    1
   15    15    16    1
   16    15    17    1
   17    15    18    1
   18    18    19    1
   19    18    20    2
@<TRIPOS>SUBSTRUCTURE
       1 MOL1            1 RESIDUE      1      MOL     
@<SCITEGIC>MOL_PROPERTY
VConf Rank
SciTegic.value.IntegerValue
984

@<SCITEGIC>MOL_PROPERTY
Conf_Id
SciTegic.value.IntegerValue
38

@<SCITEGIC>MOL_PROPERTY
Delta U+W
SciTegic.value.DoubleValue
-0.381

@<SCITEGIC>MOL_PROPERTY
U+W
SciTegic.value.DoubleValue
-52.126

@<SCITEGIC>MOL_PROPERTY
Grad RMS
SciTegic.value.DoubleValue
0.000000

@<SCITEGIC>MOL_PROPERTY
U
SciTegic.value.DoubleValue
7.601

@<SCITEGIC>MOL_PROPERTY
W
SciTegic.value.DoubleValue
-59.727

@<SCITEGIC>MOL_PROPERTY
W(PB)
SciTegic.value.DoubleValue
-61.964

@<SCITEGIC>MOL_PROPERTY
W(SA)
SciTegic.value.DoubleValue
2.236

@<SCITEGIC>MOL_PROPERTY
Valence
SciTegic.value.DoubleValue
9.602

@<SCITEGIC>MOL_PROPERTY
Coulomb
SciTegic.value.DoubleValue
-2.686

@<SCITEGIC>MOL_PROPERTY
VdW
SciTegic.value.DoubleValue
0.685

@<SCITEGIC>MOL_PROPERTY
VdW6
SciTegic.value.DoubleValue
-6.453

@<SCITEGIC>MOL_PROPERTY
VdW12
SciTegic.value.DoubleValue
7.139

@<SCITEGIC>MOL_PROPERTY
Bond
SciTegic.value.DoubleValue
0.125

@<SCITEGIC>MOL_PROPERTY
Angle
SciTegic.value.DoubleValue
2.485

@<SCITEGIC>MOL_PROPERTY
Pdih
SciTegic.value.DoubleValue
6.991

@<SCITEGIC>MOL_PROPERTY
Idih
SciTegic.value.DoubleValue
0.001

@<SCITEGIC>MOL_PROPERTY
Tether
SciTegic.value.DoubleValue
0.000

@<TRIPOS>MOLECULE
guest-s22_confgen4.mol2 : confsearch ligand conformer 985
          20          19           1
SMALL
USER_CHARGES
 
@<TRIPOS>ATOM
       1    C1      20.907837   17.070835   19.466190 C.2        1 MOL1        -0.2535
       2    H1      19.902325   16.826037   19.127670 H          1 MOL1         0.0845
       3    H2      21.723779   16.922891   18.760768 H          1 MOL1         0.0845
       4    C2      21.135563   17.536820   20.696906 C.2        1 MOL1        -0.1324
       5    H3      22.149693   17.776715   21.015732 H          1 MOL1         0.0833
       6    C3      20.054865   17.767014   21.729743 C.3        1 MOL1        -0.1813
       7    H4      20.356746   17.315371   22.684212 H          1 MOL1         0.0753
       8    H5      19.124670   17.268827   21.424312 H          1 MOL1         0.0753
       9    C4      19.789225   19.273528   21.931887 C.3        1 MOL1        -0.1855
      10    H6      20.720503   19.768991   22.239572 H          1 MOL1         0.0755
      11    H7      19.492219   19.722686   20.974121 H          1 MOL1         0.0755
      12    C5      18.688808   19.526586   22.987053 C.3        1 MOL1        -0.1855
      13    H8      18.987527   19.087670   23.949246 H          1 MOL1         0.0755
      14    H9      17.766952   19.014966   22.678819 H          1 MOL1         0.0755
      15    C6      18.385816   21.034843   23.182637 C.3        1 MOL1        -0.1958
      16    H10     18.112844   21.493865   22.224700 H          1 MOL1         0.0753
      17    H11     17.522567   21.151968   23.848264 H          1 MOL1         0.0753
      18    C7      19.540989   21.825636   23.790164 C.2        1 MOL1         0.6174
      19    O1      20.189072   22.550511   23.061114 O.co2      1 MOL1        -0.6695
      20    O2      19.754712   21.703472   24.980331 O.co2      1 MOL1        -0.6695
@<TRIPOS>BOND
    1     1     2    1
    2     1     3    1
    3     1     4    2
    4     4     5    1
    5     4     6    1
    6     6     7    1
    7     6     8    1
    8     6     9    1
    9     9    10    1
   10     9    11    1
   11     9    12    1
   12    12    13    1
   13    12    14    1
   14    12    15    1
   15    15    16    1
   16    15    17    1
   17    15    18    1
   18    18    19    1
   19    18    20    2
@<TRIPOS>SUBSTRUCTURE
       1 MOL1            1 RESIDUE      1      MOL     
@<SCITEGIC>MOL_PROPERTY
VConf Rank
SciTegic.value.IntegerValue
985

@<SCITEGIC>MOL_PROPERTY
Conf_Id
SciTegic.value.IntegerValue
58

@<SCITEGIC>MOL_PROPERTY
Delta U+W
SciTegic.value.DoubleValue
0.019

@<SCITEGIC>MOL_PROPERTY
U+W
SciTegic.value.DoubleValue
-51.727

@<SCITEGIC>MOL_PROPERTY
Grad RMS
SciTegic.value.DoubleValue
0.000000

@<SCITEGIC>MOL_PROPERTY
U
SciTegic.value.DoubleValue
8.963

@<SCITEGIC>MOL_PROPERTY
W
SciTegic.value.DoubleValue
-60.690

@<SCITEGIC>MOL_PROPERTY
W(PB)
SciTegic.value.DoubleValue
-62.934

@<SCITEGIC>MOL_PROPERTY
W(SA)
SciTegic.value.DoubleValue
2.244

@<SCITEGIC>MOL_PROPERTY
Valence
SciTegic.value.DoubleValue
9.327

@<SCITEGIC>MOL_PROPERTY
Coulomb
SciTegic.value.DoubleValue
-0.780

@<SCITEGIC>MOL_PROPERTY
VdW
SciTegic.value.DoubleValue
0.417

@<SCITEGIC>MOL_PROPERTY
VdW6
SciTegic.value.DoubleValue
-6.635

@<SCITEGIC>MOL_PROPERTY
VdW12
SciTegic.value.DoubleValue
7.052

@<SCITEGIC>MOL_PROPERTY
Bond
SciTegic.value.DoubleValue
0.105

@<SCITEGIC>MOL_PROPERTY
Angle
SciTegic.value.DoubleValue
2.399

@<SCITEGIC>MOL_PROPERTY
Pdih
SciTegic.value.DoubleValue
6.822

@<SCITEGIC>MOL_PROPERTY
Idih
SciTegic.value.DoubleValue
0.000

@<SCITEGIC>MOL_PROPERTY
Tether
SciTegic.value.DoubleValue
0.000

@<TRIPOS>MOLECULE
guest-s22_confgen4.mol2 : confsearch ligand conformer 986
          20          19           1
SMALL
USER_CHARGES
 
@<TRIPOS>ATOM
       1    C1      17.313128   21.827811   21.797389 C.2        1 MOL1        -0.2535
       2    H1      17.799169   22.279699   20.934175 H          1 MOL1         0.0845
       3    H2      16.649655   22.459055   22.386117 H          1 MOL1         0.0845
       4    C2      17.521878   20.550331   22.126228 C.2        1 MOL1        -0.1324
       5    H3      17.026198   20.117496   22.994914 H          1 MOL1         0.0833
       6    C3      18.427246   19.614003   21.357306 C.3        1 MOL1        -0.1813
       7    H4      18.674577   20.043879   20.377115 H          1 MOL1         0.0753
       8    H5      17.900684   18.669684   21.164640 H          1 MOL1         0.0753
       9    C4      19.727843   19.330672   22.137807 C.3        1 MOL1        -0.1855
      10    H6      20.249289   20.277962   22.332762 H          1 MOL1         0.0755
      11    H7      19.477798   18.898692   23.116736 H          1 MOL1         0.0755
      12    C5      20.663607   18.372401   21.366840 C.3        1 MOL1        -0.1855
      13    H8      20.895249   18.805119   20.384150 H          1 MOL1         0.0755
      14    H9      20.148712   17.419781   21.179510 H          1 MOL1         0.0755
      15    C6      21.990446   18.099189   22.121656 C.3        1 MOL1        -0.1958
      16    H10     22.662052   17.514188   21.482362 H          1 MOL1         0.0753
      17    H11     22.503174   19.043622   22.340779 H          1 MOL1         0.0753
      18    C7      21.814119   17.326582   23.425824 C.2        1 MOL1         0.6174
      19    O1      21.594292   16.133153   23.358751 O.co2      1 MOL1        -0.6695
      20    O2      21.911973   17.934880   24.473377 O.co2      1 MOL1        -0.6695
@<TRIPOS>BOND
    1     1     2    1
    2     1     3    1
    3     1     4    2
    4     4     5    1
    5     4     6    1
    6     6     7    1
    7     6     8    1
    8     6     9    1
    9     9    10    1
   10     9    11    1
   11     9    12    1
   12    12    13    1
   13    12    14    1
   14    12    15    1
   15    15    16    1
   16    15    17    1
   17    15    18    1
   18    18    19    1
   19    18    20    2
@<TRIPOS>SUBSTRUCTURE
       1 MOL1            1 RESIDUE      1      MOL     
@<SCITEGIC>MOL_PROPERTY
VConf Rank
SciTegic.value.IntegerValue
986

@<SCITEGIC>MOL_PROPERTY
Conf_Id
SciTegic.value.IntegerValue
54

@<SCITEGIC>MOL_PROPERTY
Delta U+W
SciTegic.value.DoubleValue
-0.048

@<SCITEGIC>MOL_PROPERTY
U+W
SciTegic.value.DoubleValue
-51.793

@<SCITEGIC>MOL_PROPERTY
Grad RMS
SciTegic.value.DoubleValue
0.000000

@<SCITEGIC>MOL_PROPERTY
U
SciTegic.value.DoubleValue
8.964

@<SCITEGIC>MOL_PROPERTY
W
SciTegic.value.DoubleValue
-60.756

@<SCITEGIC>MOL_PROPERTY
W(PB)
SciTegic.value.DoubleValue
-63.007

@<SCITEGIC>MOL_PROPERTY
W(SA)
SciTegic.value.DoubleValue
2.251

@<SCITEGIC>MOL_PROPERTY
Valence
SciTegic.value.DoubleValue
9.327

@<SCITEGIC>MOL_PROPERTY
Coulomb
SciTegic.value.DoubleValue
-0.780

@<SCITEGIC>MOL_PROPERTY
VdW
SciTegic.value.DoubleValue
0.417

@<SCITEGIC>MOL_PROPERTY
VdW6
SciTegic.value.DoubleValue
-6.635

@<SCITEGIC>MOL_PROPERTY
VdW12
SciTegic.value.DoubleValue
7.052

@<SCITEGIC>MOL_PROPERTY
Bond
SciTegic.value.DoubleValue
0.105

@<SCITEGIC>MOL_PROPERTY
Angle
SciTegic.value.DoubleValue
2.399

@<SCITEGIC>MOL_PROPERTY
Pdih
SciTegic.value.DoubleValue
6.822

@<SCITEGIC>MOL_PROPERTY
Idih
SciTegic.value.DoubleValue
0.000

@<SCITEGIC>MOL_PROPERTY
Tether
SciTegic.value.DoubleValue
0.000

@<TRIPOS>MOLECULE
guest-s22_confgen4.mol2 : confsearch ligand conformer 987
          20          19           1
SMALL
USER_CHARGES
 
@<TRIPOS>ATOM
       1    C1      22.812102   20.047051   23.126286 C.2        1 MOL1        -0.2535
       2    H1      23.672817   20.512816   22.649401 H          1 MOL1         0.0845
       3    H2      22.577214   20.352287   24.144700 H          1 MOL1         0.0845
       4    C2      22.073785   19.139178   22.482605 C.2        1 MOL1        -0.1324
       5    H3      22.328538   18.845397   21.464741 H          1 MOL1         0.0833
       6    C3      20.869602   18.445829   23.083487 C.3        1 MOL1        -0.1813
       7    H4      20.909385   18.518327   24.178792 H          1 MOL1         0.0753
       8    H5      20.897178   17.374077   22.845511 H          1 MOL1         0.0753
       9    C4      19.535277   19.054022   22.595760 C.3        1 MOL1        -0.1855
      10    H6      18.713566   18.603458   23.169143 H          1 MOL1         0.0755
      11    H7      19.520236   20.129438   22.820240 H          1 MOL1         0.0755
      12    C5      19.288702   18.830526   21.084683 C.3        1 MOL1        -0.1855
      13    H8      19.318232   17.755857   20.857413 H          1 MOL1         0.0755
      14    H9      20.097628   19.298197   20.508127 H          1 MOL1         0.0755
      15    C6      17.935200   19.419259   20.608651 C.3        1 MOL1        -0.1958
      16    H10     17.876989   20.485411   20.859179 H          1 MOL1         0.0753
      17    H11     17.867491   19.345546   19.516892 H          1 MOL1         0.0753
      18    C7      16.712749   18.714448   21.189761 C.2        1 MOL1         0.6174
      19    O1      16.091509   19.272711   22.072628 O.co2      1 MOL1        -0.6695
      20    O2      16.408000   17.629129   20.735530 O.co2      1 MOL1        -0.6695
@<TRIPOS>BOND
    1     1     2    1
    2     1     3    1
    3     1     4    2
    4     4     5    1
    5     4     6    1
    6     6     7    1
    7     6     8    1
    8     6     9    1
    9     9    10    1
   10     9    11    1
   11     9    12    1
   12    12    13    1
   13    12    14    1
   14    12    15    1
   15    15    16    1
   16    15    17    1
   17    15    18    1
   18    18    19    1
   19    18    20    2
@<TRIPOS>SUBSTRUCTURE
       1 MOL1            1 RESIDUE      1      MOL     
@<SCITEGIC>MOL_PROPERTY
VConf Rank
SciTegic.value.IntegerValue
987

@<SCITEGIC>MOL_PROPERTY
Conf_Id
SciTegic.value.IntegerValue
27

@<SCITEGIC>MOL_PROPERTY
Delta U+W
SciTegic.value.DoubleValue
0.478

@<SCITEGIC>MOL_PROPERTY
U+W
SciTegic.value.DoubleValue
-51.267

@<SCITEGIC>MOL_PROPERTY
Grad RMS
SciTegic.value.DoubleValue
0.000000

@<SCITEGIC>MOL_PROPERTY
U
SciTegic.value.DoubleValue
9.192

@<SCITEGIC>MOL_PROPERTY
W
SciTegic.value.DoubleValue
-60.459

@<SCITEGIC>MOL_PROPERTY
W(PB)
SciTegic.value.DoubleValue
-62.649

@<SCITEGIC>MOL_PROPERTY
W(SA)
SciTegic.value.DoubleValue
2.190

@<SCITEGIC>MOL_PROPERTY
Valence
SciTegic.value.DoubleValue
9.572

@<SCITEGIC>MOL_PROPERTY
Coulomb
SciTegic.value.DoubleValue
-0.884

@<SCITEGIC>MOL_PROPERTY
VdW
SciTegic.value.DoubleValue
0.504

@<SCITEGIC>MOL_PROPERTY
VdW6
SciTegic.value.DoubleValue
-7.168

@<SCITEGIC>MOL_PROPERTY
VdW12
SciTegic.value.DoubleValue
7.672

@<SCITEGIC>MOL_PROPERTY
Bond
SciTegic.value.DoubleValue
0.127

@<SCITEGIC>MOL_PROPERTY
Angle
SciTegic.value.DoubleValue
2.504

@<SCITEGIC>MOL_PROPERTY
Pdih
SciTegic.value.DoubleValue
6.941

@<SCITEGIC>MOL_PROPERTY
Idih
SciTegic.value.DoubleValue
0.001

@<SCITEGIC>MOL_PROPERTY
Tether
SciTegic.value.DoubleValue
0.000

@<TRIPOS>MOLECULE
guest-s22_confgen4.mol2 : confsearch ligand conformer 988
          20          19           1
SMALL
USER_CHARGES
 
@<TRIPOS>ATOM
       1    C1      20.260855   15.721475   20.762211 C.2        1 MOL1        -0.2535
       2    H1      21.268229   15.725120   20.349064 H          1 MOL1         0.0845
       3    H2      19.541778   15.031792   20.323502 H          1 MOL1         0.0845
       4    C2      19.915792   16.532205   21.765868 C.2        1 MOL1        -0.1324
       5    H3      18.902747   16.510137   22.166547 H          1 MOL1         0.0833
       6    C3      20.861959   17.510731   22.428478 C.3        1 MOL1        -0.1813
       7    H4      21.900630   17.219441   22.221430 H          1 MOL1         0.0753
       8    H5      20.742197   17.466748   23.519250 H          1 MOL1         0.0753
       9    C4      20.647170   18.960390   21.938157 C.3        1 MOL1        -0.1855
      10    H6      21.443175   19.594950   22.351178 H          1 MOL1         0.0755
      11    H7      20.752629   18.995105   20.845005 H          1 MOL1         0.0755
      12    C5      19.273352   19.537110   22.350541 C.3        1 MOL1        -0.1855
      13    H8      19.158868   19.477791   23.441748 H          1 MOL1         0.0755
      14    H9      18.466557   18.934583   21.911537 H          1 MOL1         0.0755
      15    C6      19.108071   21.008899   21.898236 C.3        1 MOL1        -0.1958
      16    H10     19.895287   21.631872   22.339520 H          1 MOL1         0.0753
      17    H11     19.207868   21.083291   20.808688 H          1 MOL1         0.0753
      18    C7      17.759614   21.601042   22.292038 C.2        1 MOL1         0.6174
      19    O1      16.834767   21.491308   21.511476 O.co2      1 MOL1        -0.6695
      20    O2      17.665123   22.140993   23.376576 O.co2      1 MOL1        -0.6695
@<TRIPOS>BOND
    1     1     2    1
    2     1     3    1
    3     1     4    2
    4     4     5    1
    5     4     6    1
    6     6     7    1
    7     6     8    1
    8     6     9    1
    9     9    10    1
   10     9    11    1
   11     9    12    1
   12    12    13    1
   13    12    14    1
   14    12    15    1
   15    15    16    1
   16    15    17    1
   17    15    18    1
   18    18    19    1
   19    18    20    2
@<TRIPOS>SUBSTRUCTURE
       1 MOL1            1 RESIDUE      1      MOL     
@<SCITEGIC>MOL_PROPERTY
VConf Rank
SciTegic.value.IntegerValue
988

@<SCITEGIC>MOL_PROPERTY
Conf_Id
SciTegic.value.IntegerValue
41

@<SCITEGIC>MOL_PROPERTY
Delta U+W
SciTegic.value.DoubleValue
-0.634

@<SCITEGIC>MOL_PROPERTY
U+W
SciTegic.value.DoubleValue
-52.379

@<SCITEGIC>MOL_PROPERTY
Grad RMS
SciTegic.value.DoubleValue
0.000000

@<SCITEGIC>MOL_PROPERTY
U
SciTegic.value.DoubleValue
7.828

@<SCITEGIC>MOL_PROPERTY
W
SciTegic.value.DoubleValue
-60.207

@<SCITEGIC>MOL_PROPERTY
W(PB)
SciTegic.value.DoubleValue
-62.449

@<SCITEGIC>MOL_PROPERTY
W(SA)
SciTegic.value.DoubleValue
2.242

@<SCITEGIC>MOL_PROPERTY
Valence
SciTegic.value.DoubleValue
9.300

@<SCITEGIC>MOL_PROPERTY
Coulomb
SciTegic.value.DoubleValue
-2.080

@<SCITEGIC>MOL_PROPERTY
VdW
SciTegic.value.DoubleValue
0.608

@<SCITEGIC>MOL_PROPERTY
VdW6
SciTegic.value.DoubleValue
-6.341

@<SCITEGIC>MOL_PROPERTY
VdW12
SciTegic.value.DoubleValue
6.949

@<SCITEGIC>MOL_PROPERTY
Bond
SciTegic.value.DoubleValue
0.103

@<SCITEGIC>MOL_PROPERTY
Angle
SciTegic.value.DoubleValue
2.334

@<SCITEGIC>MOL_PROPERTY
Pdih
SciTegic.value.DoubleValue
6.862

@<SCITEGIC>MOL_PROPERTY
Idih
SciTegic.value.DoubleValue
0.001

@<SCITEGIC>MOL_PROPERTY
Tether
SciTegic.value.DoubleValue
0.000

@<TRIPOS>MOLECULE
guest-s22_confgen4.mol2 : confsearch ligand conformer 989
          20          19           1
SMALL
USER_CHARGES
 
@<TRIPOS>ATOM
       1    C1      21.516018   19.015604   25.240382 C.2        1 MOL1        -0.2535
       2    H1      21.394876   19.165460   26.311880 H          1 MOL1         0.0845
       3    H2      22.421150   18.512494   24.903976 H          1 MOL1         0.0845
       4    C2      20.587114   19.432182   24.375907 C.2        1 MOL1        -0.1324
       5    H3      19.687621   19.933267   24.732966 H          1 MOL1         0.0833
       6    C3      20.686197   19.260596   22.876461 C.3        1 MOL1        -0.1813
       7    H4      21.712167   18.991241   22.591493 H          1 MOL1         0.0753
       8    H5      20.460397   20.218066   22.389409 H          1 MOL1         0.0753
       9    C4      19.709213   18.172930   22.376800 C.3        1 MOL1        -0.1855
      10    H6      19.884407   17.250126   22.946799 H          1 MOL1         0.0755
      11    H7      18.676591   18.478579   22.594810 H          1 MOL1         0.0755
      12    C5      19.855541   17.855567   20.868138 C.3        1 MOL1        -0.1855
      13    H8      19.183697   17.023730   20.615037 H          1 MOL1         0.0755
      14    H9      20.875202   17.498044   20.670967 H          1 MOL1         0.0755
      15    C6      19.544455   19.051438   19.927108 C.3        1 MOL1        -0.1958
      16    H10     20.246814   19.874404   20.101533 H          1 MOL1         0.0753
      17    H11     19.685025   18.739600   18.885617 H          1 MOL1         0.0753
      18    C7      18.121538   19.588556   20.051799 C.2        1 MOL1         0.6174
      19    O1      17.213957   18.913719   19.606493 O.co2      1 MOL1        -0.6695
      20    O2      17.959222   20.673975   20.573787 O.co2      1 MOL1        -0.6695
@<TRIPOS>BOND
    1     1     2    1
    2     1     3    1
    3     1     4    2
    4     4     5    1
    5     4     6    1
    6     6     7    1
    7     6     8    1
    8     6     9    1
    9     9    10    1
   10     9    11    1
   11     9    12    1
   12    12    13    1
   13    12    14    1
   14    12    15    1
   15    15    16    1
   16    15    17    1
   17    15    18    1
   18    18    19    1
   19    18    20    2
@<TRIPOS>SUBSTRUCTURE
       1 MOL1            1 RESIDUE      1      MOL     
@<SCITEGIC>MOL_PROPERTY
VConf Rank
SciTegic.value.IntegerValue
989

@<SCITEGIC>MOL_PROPERTY
Conf_Id
SciTegic.value.IntegerValue
84

@<SCITEGIC>MOL_PROPERTY
Delta U+W
SciTegic.value.DoubleValue
0.942

@<SCITEGIC>MOL_PROPERTY
U+W
SciTegic.value.DoubleValue
-50.803

@<SCITEGIC>MOL_PROPERTY
Grad RMS
SciTegic.value.DoubleValue
0.000000

@<SCITEGIC>MOL_PROPERTY
U
SciTegic.value.DoubleValue
10.196

@<SCITEGIC>MOL_PROPERTY
W
SciTegic.value.DoubleValue
-60.999

@<SCITEGIC>MOL_PROPERTY
W(PB)
SciTegic.value.DoubleValue
-63.182

@<SCITEGIC>MOL_PROPERTY
W(SA)
SciTegic.value.DoubleValue
2.182

@<SCITEGIC>MOL_PROPERTY
Valence
SciTegic.value.DoubleValue
9.837

@<SCITEGIC>MOL_PROPERTY
Coulomb
SciTegic.value.DoubleValue
0.032

@<SCITEGIC>MOL_PROPERTY
VdW
SciTegic.value.DoubleValue
0.328

@<SCITEGIC>MOL_PROPERTY
VdW6
SciTegic.value.DoubleValue
-7.642

@<SCITEGIC>MOL_PROPERTY
VdW12
SciTegic.value.DoubleValue
7.969

@<SCITEGIC>MOL_PROPERTY
Bond
SciTegic.value.DoubleValue
0.151

@<SCITEGIC>MOL_PROPERTY
Angle
SciTegic.value.DoubleValue
2.748

@<SCITEGIC>MOL_PROPERTY
Pdih
SciTegic.value.DoubleValue
6.937

@<SCITEGIC>MOL_PROPERTY
Idih
SciTegic.value.DoubleValue
0.001

@<SCITEGIC>MOL_PROPERTY
Tether
SciTegic.value.DoubleValue
0.000

@<TRIPOS>MOLECULE
guest-s22_confgen4.mol2 : confsearch ligand conformer 990
          20          19           1
SMALL
USER_CHARGES
 
@<TRIPOS>ATOM
       1    C1      21.404635   20.980088   19.645933 C.2        1 MOL1        -0.2535
       2    H1      22.308114   21.543886   19.419837 H          1 MOL1         0.0845
       3    H2      21.099700   20.215488   18.933202 H          1 MOL1         0.0845
       4    C2      20.702182   21.218497   20.756511 C.2        1 MOL1        -0.1324
       5    H3      21.025144   21.987862   21.457516 H          1 MOL1         0.0833
       6    C3      19.439266   20.477852   21.136188 C.3        1 MOL1        -0.1813
       7    H4      19.051931   19.919273   20.273198 H          1 MOL1         0.0753
       8    H5      18.661772   21.199487   21.420490 H          1 MOL1         0.0753
       9    C4      19.694477   19.503882   22.305509 C.3        1 MOL1        -0.1855
      10    H6      20.477568   18.789073   22.016552 H          1 MOL1         0.0755
      11    H7      20.078030   20.062428   23.170357 H          1 MOL1         0.0755
      12    C5      18.412156   18.741125   22.708233 C.3        1 MOL1        -0.1855
      13    H8      18.033541   18.169928   21.849108 H          1 MOL1         0.0755
      14    H9      17.629871   19.463969   22.976743 H          1 MOL1         0.0755
      15    C6      18.640552   17.779821   23.903480 C.3        1 MOL1        -0.1958
      16    H10     19.044453   18.331035   24.761315 H          1 MOL1         0.0753
      17    H11     17.680713   17.356236   24.221693 H          1 MOL1         0.0753
      18    C7      19.573116   16.612848   23.591405 C.2        1 MOL1         0.6174
      19    O1      20.703731   16.644378   24.036026 O.co2      1 MOL1        -0.6695
      20    O2      19.138621   15.696254   22.921946 O.co2      1 MOL1        -0.6695
@<TRIPOS>BOND
    1     1     2    1
    2     1     3    1
    3     1     4    2
    4     4     5    1
    5     4     6    1
    6     6     7    1
    7     6     8    1
    8     6     9    1
    9     9    10    1
   10     9    11    1
   11     9    12    1
   12    12    13    1
   13    12    14    1
   14    12    15    1
   15    15    16    1
   16    15    17    1
   17    15    18    1
   18    18    19    1
   19    18    20    2
@<TRIPOS>SUBSTRUCTURE
       1 MOL1            1 RESIDUE      1      MOL     
@<SCITEGIC>MOL_PROPERTY
VConf Rank
SciTegic.value.IntegerValue
990

@<SCITEGIC>MOL_PROPERTY
Conf_Id
SciTegic.value.IntegerValue
81

@<SCITEGIC>MOL_PROPERTY
Delta U+W
SciTegic.value.DoubleValue
-0.051

@<SCITEGIC>MOL_PROPERTY
U+W
SciTegic.value.DoubleValue
-51.796

@<SCITEGIC>MOL_PROPERTY
Grad RMS
SciTegic.value.DoubleValue
0.000000

@<SCITEGIC>MOL_PROPERTY
U
SciTegic.value.DoubleValue
9.412

@<SCITEGIC>MOL_PROPERTY
W
SciTegic.value.DoubleValue
-61.209

@<SCITEGIC>MOL_PROPERTY
W(PB)
SciTegic.value.DoubleValue
-63.452

@<SCITEGIC>MOL_PROPERTY
W(SA)
SciTegic.value.DoubleValue
2.243

@<SCITEGIC>MOL_PROPERTY
Valence
SciTegic.value.DoubleValue
9.329

@<SCITEGIC>MOL_PROPERTY
Coulomb
SciTegic.value.DoubleValue
-0.323

@<SCITEGIC>MOL_PROPERTY
VdW
SciTegic.value.DoubleValue
0.406

@<SCITEGIC>MOL_PROPERTY
VdW6
SciTegic.value.DoubleValue
-6.640

@<SCITEGIC>MOL_PROPERTY
VdW12
SciTegic.value.DoubleValue
7.046

@<SCITEGIC>MOL_PROPERTY
Bond
SciTegic.value.DoubleValue
0.105

@<SCITEGIC>MOL_PROPERTY
Angle
SciTegic.value.DoubleValue
2.401

@<SCITEGIC>MOL_PROPERTY
Pdih
SciTegic.value.DoubleValue
6.823

@<SCITEGIC>MOL_PROPERTY
Idih
SciTegic.value.DoubleValue
0.000

@<SCITEGIC>MOL_PROPERTY
Tether
SciTegic.value.DoubleValue
0.000

@<TRIPOS>MOLECULE
guest-s22_confgen4.mol2 : confsearch ligand conformer 991
          20          19           1
SMALL
USER_CHARGES
 
@<TRIPOS>ATOM
       1    C1      17.401572   20.777559   23.647113 C.2        1 MOL1        -0.2535
       2    H1      17.894580   21.649956   24.072937 H          1 MOL1         0.0845
       3    H2      16.313658   20.785841   23.608156 H          1 MOL1         0.0845
       4    C2      18.100730   19.736951   23.186687 C.2        1 MOL1        -0.1324
       5    H3      17.587708   18.872415   22.766438 H          1 MOL1         0.0833
       6    C3      19.611916   19.652263   23.212569 C.3        1 MOL1        -0.1813
       7    H4      19.927680   18.661862   23.565176 H          1 MOL1         0.0753
       8    H5      20.010481   20.370333   23.941772 H          1 MOL1         0.0753
       9    C4      20.244525   19.951882   21.832446 C.3        1 MOL1        -0.1855
      10    H6      19.986224   20.978985   21.540596 H          1 MOL1         0.0755
      11    H7      21.338580   19.929454   21.929982 H          1 MOL1         0.0755
      12    C5      19.812680   18.986995   20.698165 C.3        1 MOL1        -0.1855
      13    H8      20.295261   19.304447   19.763541 H          1 MOL1         0.0755
      14    H9      18.731895   19.081186   20.528676 H          1 MOL1         0.0755
      15    C6      20.160229   17.495394   20.956089 C.3        1 MOL1        -0.1958
      16    H10     19.633256   17.123678   21.842186 H          1 MOL1         0.0753
      17    H11     19.811525   16.890145   20.111289 H          1 MOL1         0.0753
      18    C7      21.652314   17.223681   21.124602 C.2        1 MOL1         0.6174
      19    O1      22.065499   16.942792   22.232512 O.co2      1 MOL1        -0.6695
      20    O2      22.359914   17.283221   20.138083 O.co2      1 MOL1        -0.6695
@<TRIPOS>BOND
    1     1     2    1
    2     1     3    1
    3     1     4    2
    4     4     5    1
    5     4     6    1
    6     6     7    1
    7     6     8    1
    8     6     9    1
    9     9    10    1
   10     9    11    1
   11     9    12    1
   12    12    13    1
   13    12    14    1
   14    12    15    1
   15    15    16    1
   16    15    17    1
   17    15    18    1
   18    18    19    1
   19    18    20    2
@<TRIPOS>SUBSTRUCTURE
       1 MOL1            1 RESIDUE      1      MOL     
@<SCITEGIC>MOL_PROPERTY
VConf Rank
SciTegic.value.IntegerValue
991

@<SCITEGIC>MOL_PROPERTY
Conf_Id
SciTegic.value.IntegerValue
86

@<SCITEGIC>MOL_PROPERTY
Delta U+W
SciTegic.value.DoubleValue
1.248

@<SCITEGIC>MOL_PROPERTY
U+W
SciTegic.value.DoubleValue
-50.498

@<SCITEGIC>MOL_PROPERTY
Grad RMS
SciTegic.value.DoubleValue
0.000000

@<SCITEGIC>MOL_PROPERTY
U
SciTegic.value.DoubleValue
10.404

@<SCITEGIC>MOL_PROPERTY
W
SciTegic.value.DoubleValue
-60.901

@<SCITEGIC>MOL_PROPERTY
W(PB)
SciTegic.value.DoubleValue
-63.061

@<SCITEGIC>MOL_PROPERTY
W(SA)
SciTegic.value.DoubleValue
2.159

@<SCITEGIC>MOL_PROPERTY
Valence
SciTegic.value.DoubleValue
10.021

@<SCITEGIC>MOL_PROPERTY
Coulomb
SciTegic.value.DoubleValue
0.094

@<SCITEGIC>MOL_PROPERTY
VdW
SciTegic.value.DoubleValue
0.289

@<SCITEGIC>MOL_PROPERTY
VdW6
SciTegic.value.DoubleValue
-8.409

@<SCITEGIC>MOL_PROPERTY
VdW12
SciTegic.value.DoubleValue
8.698

@<SCITEGIC>MOL_PROPERTY
Bond
SciTegic.value.DoubleValue
0.179

@<SCITEGIC>MOL_PROPERTY
Angle
SciTegic.value.DoubleValue
2.939

@<SCITEGIC>MOL_PROPERTY
Pdih
SciTegic.value.DoubleValue
6.902

@<SCITEGIC>MOL_PROPERTY
Idih
SciTegic.value.DoubleValue
0.001

@<SCITEGIC>MOL_PROPERTY
Tether
SciTegic.value.DoubleValue
0.000

@<TRIPOS>MOLECULE
guest-s22_confgen4.mol2 : confsearch ligand conformer 992
          20          19           1
SMALL
USER_CHARGES
 
@<TRIPOS>ATOM
       1    C1      17.406593   19.594330   23.943148 C.2        1 MOL1        -0.2535
       2    H1      16.947201   19.140015   24.819311 H          1 MOL1         0.0845
       3    H2      17.751621   20.622928   24.034605 H          1 MOL1         0.0845
       4    C2      17.543098   18.911835   22.803152 C.2        1 MOL1        -0.1324
       5    H3      17.192994   17.882312   22.733165 H          1 MOL1         0.0833
       6    C3      18.170711   19.475102   21.545818 C.3        1 MOL1        -0.1813
       7    H4      18.308083   20.561302   21.635025 H          1 MOL1         0.0753
       8    H5      17.485884   19.317950   20.701937 H          1 MOL1         0.0753
       9    C4      19.526146   18.809310   21.217829 C.3        1 MOL1        -0.1855
      10    H6      19.390378   17.722491   21.132299 H          1 MOL1         0.0755
      11    H7      19.862356   19.161001   20.232798 H          1 MOL1         0.0755
      12    C5      20.614556   19.120041   22.272537 C.3        1 MOL1        -0.1855
      13    H8      20.282702   18.762837   23.256583 H          1 MOL1         0.0755
      14    H9      20.747350   20.207227   22.360536 H          1 MOL1         0.0755
      15    C6      21.977232   18.460771   21.935628 C.3        1 MOL1        -0.1958
      16    H10     22.672153   18.609273   22.770477 H          1 MOL1         0.0753
      17    H11     21.854095   17.377839   21.813668 H          1 MOL1         0.0753
      18    C7      22.644073   19.019819   20.682028 C.2        1 MOL1         0.6174
      19    O1      23.186184   20.104974   20.757406 O.co2      1 MOL1        -0.6695
      20    O2      22.614297   18.351801   19.667162 O.co2      1 MOL1        -0.6695
@<TRIPOS>BOND
    1     1     2    1
    2     1     3    1
    3     1     4    2
    4     4     5    1
    5     4     6    1
    6     6     7    1
    7     6     8    1
    8     6     9    1
    9     9    10    1
   10     9    11    1
   11     9    12    1
   12    12    13    1
   13    12    14    1
   14    12    15    1
   15    15    16    1
   16    15    17    1
   17    15    18    1
   18    18    19    1
   19    18    20    2
@<TRIPOS>SUBSTRUCTURE
       1 MOL1            1 RESIDUE      1      MOL     
@<SCITEGIC>MOL_PROPERTY
VConf Rank
SciTegic.value.IntegerValue
992

@<SCITEGIC>MOL_PROPERTY
Conf_Id
SciTegic.value.IntegerValue
28

@<SCITEGIC>MOL_PROPERTY
Delta U+W
SciTegic.value.DoubleValue
0.446

@<SCITEGIC>MOL_PROPERTY
U+W
SciTegic.value.DoubleValue
-51.299

@<SCITEGIC>MOL_PROPERTY
Grad RMS
SciTegic.value.DoubleValue
0.000000

@<SCITEGIC>MOL_PROPERTY
U
SciTegic.value.DoubleValue
9.295

@<SCITEGIC>MOL_PROPERTY
W
SciTegic.value.DoubleValue
-60.594

@<SCITEGIC>MOL_PROPERTY
W(PB)
SciTegic.value.DoubleValue
-62.806

@<SCITEGIC>MOL_PROPERTY
W(SA)
SciTegic.value.DoubleValue
2.212

@<SCITEGIC>MOL_PROPERTY
Valence
SciTegic.value.DoubleValue
9.495

@<SCITEGIC>MOL_PROPERTY
Coulomb
SciTegic.value.DoubleValue
-0.610

@<SCITEGIC>MOL_PROPERTY
VdW
SciTegic.value.DoubleValue
0.409

@<SCITEGIC>MOL_PROPERTY
VdW6
SciTegic.value.DoubleValue
-7.332

@<SCITEGIC>MOL_PROPERTY
VdW12
SciTegic.value.DoubleValue
7.741

@<SCITEGIC>MOL_PROPERTY
Bond
SciTegic.value.DoubleValue
0.126

@<SCITEGIC>MOL_PROPERTY
Angle
SciTegic.value.DoubleValue
2.497

@<SCITEGIC>MOL_PROPERTY
Pdih
SciTegic.value.DoubleValue
6.872

@<SCITEGIC>MOL_PROPERTY
Idih
SciTegic.value.DoubleValue
0.000

@<SCITEGIC>MOL_PROPERTY
Tether
SciTegic.value.DoubleValue
0.000

@<TRIPOS>MOLECULE
guest-s22_confgen4.mol2 : confsearch ligand conformer 993
          20          19           1
SMALL
USER_CHARGES
 
@<TRIPOS>ATOM
       1    C1      18.524817   19.691784   24.980897 C.2        1 MOL1        -0.2535
       2    H1      18.110648   18.772709   24.571922 H          1 MOL1         0.0845
       3    H2      18.286424   19.918989   26.018532 H          1 MOL1         0.0845
       4    C2      19.295596   20.514858   24.260880 C.2        1 MOL1        -0.1324
       5    H3      19.683448   21.420360   24.726903 H          1 MOL1         0.0833
       6    C3      19.711401   20.334329   22.810372 C.3        1 MOL1        -0.1813
       7    H4      20.805406   20.255095   22.771202 H          1 MOL1         0.0753
       8    H5      19.457051   21.247420   22.256006 H          1 MOL1         0.0753
       9    C4      19.074764   19.117153   22.094987 C.3        1 MOL1        -0.1855
      10    H6      19.395228   18.189548   22.588975 H          1 MOL1         0.0755
      11    H7      17.982826   19.169862   22.202628 H          1 MOL1         0.0755
      12    C5      19.408958   19.044487   20.584326 C.3        1 MOL1        -0.1855
      13    H8      19.041122   19.952761   20.088218 H          1 MOL1         0.0755
      14    H9      18.854568   18.206155   20.140186 H          1 MOL1         0.0755
      15    C6      20.918804   18.866449   20.266011 C.3        1 MOL1        -0.1958
      16    H10     21.058950   18.836864   19.179207 H          1 MOL1         0.0753
      17    H11     21.495281   19.724777   20.629114 H          1 MOL1         0.0753
      18    C7      21.530401   17.589839   20.836204 C.2        1 MOL1         0.6174
      19    O1      21.207246   16.528631   20.339353 O.co2      1 MOL1        -0.6695
      20    O2      22.328766   17.690675   21.746864 O.co2      1 MOL1        -0.6695
@<TRIPOS>BOND
    1     1     2    1
    2     1     3    1
    3     1     4    2
    4     4     5    1
    5     4     6    1
    6     6     7    1
    7     6     8    1
    8     6     9    1
    9     9    10    1
   10     9    11    1
   11     9    12    1
   12    12    13    1
   13    12    14    1
   14    12    15    1
   15    15    16    1
   16    15    17    1
   17    15    18    1
   18    18    19    1
   19    18    20    2
@<TRIPOS>SUBSTRUCTURE
       1 MOL1            1 RESIDUE      1      MOL     
@<SCITEGIC>MOL_PROPERTY
VConf Rank
SciTegic.value.IntegerValue
993

@<SCITEGIC>MOL_PROPERTY
Conf_Id
SciTegic.value.IntegerValue
53

@<SCITEGIC>MOL_PROPERTY
Delta U+W
SciTegic.value.DoubleValue
0.549

@<SCITEGIC>MOL_PROPERTY
U+W
SciTegic.value.DoubleValue
-51.197

@<SCITEGIC>MOL_PROPERTY
Grad RMS
SciTegic.value.DoubleValue
0.000000

@<SCITEGIC>MOL_PROPERTY
U
SciTegic.value.DoubleValue
10.870

@<SCITEGIC>MOL_PROPERTY
W
SciTegic.value.DoubleValue
-62.067

@<SCITEGIC>MOL_PROPERTY
W(PB)
SciTegic.value.DoubleValue
-64.228

@<SCITEGIC>MOL_PROPERTY
W(SA)
SciTegic.value.DoubleValue
2.161

@<SCITEGIC>MOL_PROPERTY
Valence
SciTegic.value.DoubleValue
8.803

@<SCITEGIC>MOL_PROPERTY
Coulomb
SciTegic.value.DoubleValue
1.020

@<SCITEGIC>MOL_PROPERTY
VdW
SciTegic.value.DoubleValue
1.048

@<SCITEGIC>MOL_PROPERTY
VdW6
SciTegic.value.DoubleValue
-8.312

@<SCITEGIC>MOL_PROPERTY
VdW12
SciTegic.value.DoubleValue
9.360

@<SCITEGIC>MOL_PROPERTY
Bond
SciTegic.value.DoubleValue
0.212

@<SCITEGIC>MOL_PROPERTY
Angle
SciTegic.value.DoubleValue
3.379

@<SCITEGIC>MOL_PROPERTY
Pdih
SciTegic.value.DoubleValue
5.211

@<SCITEGIC>MOL_PROPERTY
Idih
SciTegic.value.DoubleValue
0.001

@<SCITEGIC>MOL_PROPERTY
Tether
SciTegic.value.DoubleValue
0.000

@<TRIPOS>MOLECULE
guest-s22_confgen4.mol2 : confsearch ligand conformer 994
          20          19           1
SMALL
USER_CHARGES
 
@<TRIPOS>ATOM
       1    C1      20.611366   19.638824   24.599304 C.2        1 MOL1        -0.2535
       2    H1      20.836198   20.541115   24.034839 H          1 MOL1         0.0845
       3    H2      21.241796   19.424717   25.460489 H          1 MOL1         0.0845
       4    C2      19.605286   18.822918   24.266505 C.2        1 MOL1        -0.1324
       5    H3      19.420954   17.933017   24.867671 H          1 MOL1         0.0833
       6    C3      18.654772   18.995103   23.093149 C.3        1 MOL1        -0.1813
       7    H4      17.721915   19.443834   23.458964 H          1 MOL1         0.0753
       8    H5      18.361448   18.004432   22.722862 H          1 MOL1         0.0753
       9    C4      19.191830   19.833622   21.903937 C.3        1 MOL1        -0.1855
      10    H6      18.388637   19.942716   21.162439 H          1 MOL1         0.0755
      11    H7      19.415932   20.852090   22.247193 H          1 MOL1         0.0755
      12    C5      20.443276   19.241537   21.203813 C.3        1 MOL1        -0.1855
      13    H8      21.277331   19.194870   21.915661 H          1 MOL1         0.0755
      14    H9      20.759991   19.930300   20.408631 H          1 MOL1         0.0755
      15    C6      20.229578   17.832996   20.585212 C.3        1 MOL1        -0.1958
      16    H10     21.163079   17.496178   20.119707 H          1 MOL1         0.0753
      17    H11     19.991523   17.101208   21.365479 H          1 MOL1         0.0753
      18    C7      19.143156   17.779433   19.515051 C.2        1 MOL1         0.6174
      19    O1      18.097998   17.219543   19.782121 O.co2      1 MOL1        -0.6695
      20    O2      19.378500   18.284336   18.434683 O.co2      1 MOL1        -0.6695
@<TRIPOS>BOND
    1     1     2    1
    2     1     3    1
    3     1     4    2
    4     4     5    1
    5     4     6    1
    6     6     7    1
    7     6     8    1
    8     6     9    1
    9     9    10    1
   10     9    11    1
   11     9    12    1
   12    12    13    1
   13    12    14    1
   14    12    15    1
   15    15    16    1
   16    15    17    1
   17    15    18    1
   18    18    19    1
   19    18    20    2
@<TRIPOS>SUBSTRUCTURE
       1 MOL1            1 RESIDUE      1      MOL     
@<SCITEGIC>MOL_PROPERTY
VConf Rank
SciTegic.value.IntegerValue
994

@<SCITEGIC>MOL_PROPERTY
Conf_Id
SciTegic.value.IntegerValue
66

@<SCITEGIC>MOL_PROPERTY
Delta U+W
SciTegic.value.DoubleValue
1.737

@<SCITEGIC>MOL_PROPERTY
U+W
SciTegic.value.DoubleValue
-50.008

@<SCITEGIC>MOL_PROPERTY
Grad RMS
SciTegic.value.DoubleValue
0.000000

@<SCITEGIC>MOL_PROPERTY
U
SciTegic.value.DoubleValue
11.091

@<SCITEGIC>MOL_PROPERTY
W
SciTegic.value.DoubleValue
-61.099

@<SCITEGIC>MOL_PROPERTY
W(PB)
SciTegic.value.DoubleValue
-63.213

@<SCITEGIC>MOL_PROPERTY
W(SA)
SciTegic.value.DoubleValue
2.114

@<SCITEGIC>MOL_PROPERTY
Valence
SciTegic.value.DoubleValue
9.664

@<SCITEGIC>MOL_PROPERTY
Coulomb
SciTegic.value.DoubleValue
0.658

@<SCITEGIC>MOL_PROPERTY
VdW
SciTegic.value.DoubleValue
0.769

@<SCITEGIC>MOL_PROPERTY
VdW6
SciTegic.value.DoubleValue
-9.171

@<SCITEGIC>MOL_PROPERTY
VdW12
SciTegic.value.DoubleValue
9.940

@<SCITEGIC>MOL_PROPERTY
Bond
SciTegic.value.DoubleValue
0.244

@<SCITEGIC>MOL_PROPERTY
Angle
SciTegic.value.DoubleValue
3.658

@<SCITEGIC>MOL_PROPERTY
Pdih
SciTegic.value.DoubleValue
5.762

@<SCITEGIC>MOL_PROPERTY
Idih
SciTegic.value.DoubleValue
0.001

@<SCITEGIC>MOL_PROPERTY
Tether
SciTegic.value.DoubleValue
0.000

@<TRIPOS>MOLECULE
guest-s22_confgen4.mol2 : confsearch ligand conformer 995
          20          19           1
SMALL
USER_CHARGES
 
@<TRIPOS>ATOM
       1    C1      17.711985   17.795881   23.499931 C.2        1 MOL1        -0.2535
       2    H1      18.591184   17.177876   23.668042 H          1 MOL1         0.0845
       3    H2      17.028337   17.920017   24.337876 H          1 MOL1         0.0845
       4    C2      17.464672   18.378881   22.321870 C.2        1 MOL1        -0.1324
       5    H3      16.566938   18.985861   22.207896 H          1 MOL1         0.0833
       6    C3      18.328370   18.298199   21.073625 C.3        1 MOL1        -0.1813
       7    H4      18.265663   19.252566   20.536129 H          1 MOL1         0.0753
       8    H5      17.886789   17.561661   20.389447 H          1 MOL1         0.0753
       9    C4      19.821713   17.946969   21.303588 C.3        1 MOL1        -0.1855
      10    H6      19.894629   16.965117   21.789535 H          1 MOL1         0.0755
      11    H7      20.310106   17.830580   20.326575 H          1 MOL1         0.0755
      12    C5      20.612628   18.990973   22.132570 C.3        1 MOL1        -0.1855
      13    H8      21.626345   18.604392   22.306100 H          1 MOL1         0.0755
      14    H9      20.156791   19.113034   23.123989 H          1 MOL1         0.0755
      15    C6      20.720572   20.376261   21.443917 C.3        1 MOL1        -0.1958
      16    H10     21.127675   20.266011   20.431858 H          1 MOL1         0.0753
      17    H11     19.730832   20.837115   21.349737 H          1 MOL1         0.0753
      18    C7      21.613716   21.346798   22.208506 C.2        1 MOL1         0.6174
      19    O1      21.098322   22.073352   23.035089 O.co2      1 MOL1        -0.6695
      20    O2      22.804831   21.340836   21.967378 O.co2      1 MOL1        -0.6695
@<TRIPOS>BOND
    1     1     2    1
    2     1     3    1
    3     1     4    2
    4     4     5    1
    5     4     6    1
    6     6     7    1
    7     6     8    1
    8     6     9    1
    9     9    10    1
   10     9    11    1
   11     9    12    1
   12    12    13    1
   13    12    14    1
   14    12    15    1
   15    15    16    1
   16    15    17    1
   17    15    18    1
   18    18    19    1
   19    18    20    2
@<TRIPOS>SUBSTRUCTURE
       1 MOL1            1 RESIDUE      1      MOL     
@<SCITEGIC>MOL_PROPERTY
VConf Rank
SciTegic.value.IntegerValue
995

@<SCITEGIC>MOL_PROPERTY
Conf_Id
SciTegic.value.IntegerValue
64

@<SCITEGIC>MOL_PROPERTY
Delta U+W
SciTegic.value.DoubleValue
0.366

@<SCITEGIC>MOL_PROPERTY
U+W
SciTegic.value.DoubleValue
-51.379

@<SCITEGIC>MOL_PROPERTY
Grad RMS
SciTegic.value.DoubleValue
0.000000

@<SCITEGIC>MOL_PROPERTY
U
SciTegic.value.DoubleValue
10.000

@<SCITEGIC>MOL_PROPERTY
W
SciTegic.value.DoubleValue
-61.379

@<SCITEGIC>MOL_PROPERTY
W(PB)
SciTegic.value.DoubleValue
-63.541

@<SCITEGIC>MOL_PROPERTY
W(SA)
SciTegic.value.DoubleValue
2.162

@<SCITEGIC>MOL_PROPERTY
Valence
SciTegic.value.DoubleValue
9.398

@<SCITEGIC>MOL_PROPERTY
Coulomb
SciTegic.value.DoubleValue
-0.504

@<SCITEGIC>MOL_PROPERTY
VdW
SciTegic.value.DoubleValue
1.105

@<SCITEGIC>MOL_PROPERTY
VdW6
SciTegic.value.DoubleValue
-7.975

@<SCITEGIC>MOL_PROPERTY
VdW12
SciTegic.value.DoubleValue
9.080

@<SCITEGIC>MOL_PROPERTY
Bond
SciTegic.value.DoubleValue
0.216

@<SCITEGIC>MOL_PROPERTY
Angle
SciTegic.value.DoubleValue
3.417

@<SCITEGIC>MOL_PROPERTY
Pdih
SciTegic.value.DoubleValue
5.765

@<SCITEGIC>MOL_PROPERTY
Idih
SciTegic.value.DoubleValue
0.001

@<SCITEGIC>MOL_PROPERTY
Tether
SciTegic.value.DoubleValue
0.000

@<TRIPOS>MOLECULE
guest-s22_confgen4.mol2 : confsearch ligand conformer 996
          20          19           1
SMALL
USER_CHARGES
 
@<TRIPOS>ATOM
       1    C1      17.689210   17.677447   23.388654 C.2        1 MOL1        -0.2535
       2    H1      17.106912   18.592991   23.298513 H          1 MOL1         0.0845
       3    H2      17.603205   17.118330   24.318759 H          1 MOL1         0.0845
       4    C2      18.482516   17.255465   22.400418 C.2        1 MOL1        -0.1324
       5    H3      19.058976   16.337489   22.511797 H          1 MOL1         0.0833
       6    C3      18.653853   17.978305   21.081281 C.3        1 MOL1        -0.1813
       7    H4      17.896671   18.766470   20.971070 H          1 MOL1         0.0753
       8    H5      18.485102   17.269810   20.259453 H          1 MOL1         0.0753
       9    C4      20.063665   18.592339   20.928518 C.3        1 MOL1        -0.1855
      10    H6      20.820911   17.804077   21.039441 H          1 MOL1         0.0755
      11    H7      20.169274   18.988872   19.909455 H          1 MOL1         0.0755
      12    C5      20.334100   19.725138   21.944990 C.3        1 MOL1        -0.1855
      13    H8      20.257781   19.334765   22.969204 H          1 MOL1         0.0755
      14    H9      19.565856   20.504160   21.843925 H          1 MOL1         0.0755
      15    C6      21.733758   20.356821   21.745103 C.3        1 MOL1        -0.1958
      16    H10     22.512772   19.592934   21.855564 H          1 MOL1         0.0753
      17    H11     21.823104   20.767463   20.732248 H          1 MOL1         0.0753
      18    C7      22.024459   21.477405   22.737010 C.2        1 MOL1         0.6174
      19    O1      21.687221   22.606811   22.441272 O.co2      1 MOL1        -0.6695
      20    O2      22.567782   21.189520   23.785158 O.co2      1 MOL1        -0.6695
@<TRIPOS>BOND
    1     1     2    1
    2     1     3    1
    3     1     4    2
    4     4     5    1
    5     4     6    1
    6     6     7    1
    7     6     8    1
    8     6     9    1
    9     9    10    1
   10     9    11    1
   11     9    12    1
   12    12    13    1
   13    12    14    1
   14    12    15    1
   15    15    16    1
   16    15    17    1
   17    15    18    1
   18    18    19    1
   19    18    20    2
@<TRIPOS>SUBSTRUCTURE
       1 MOL1            1 RESIDUE      1      MOL     
@<SCITEGIC>MOL_PROPERTY
VConf Rank
SciTegic.value.IntegerValue
996

@<SCITEGIC>MOL_PROPERTY
Conf_Id
SciTegic.value.IntegerValue
42

@<SCITEGIC>MOL_PROPERTY
Delta U+W
SciTegic.value.DoubleValue
-0.601

@<SCITEGIC>MOL_PROPERTY
U+W
SciTegic.value.DoubleValue
-52.347

@<SCITEGIC>MOL_PROPERTY
Grad RMS
SciTegic.value.DoubleValue
0.000000

@<SCITEGIC>MOL_PROPERTY
U
SciTegic.value.DoubleValue
8.428

@<SCITEGIC>MOL_PROPERTY
W
SciTegic.value.DoubleValue
-60.774

@<SCITEGIC>MOL_PROPERTY
W(PB)
SciTegic.value.DoubleValue
-62.982

@<SCITEGIC>MOL_PROPERTY
W(SA)
SciTegic.value.DoubleValue
2.208

@<SCITEGIC>MOL_PROPERTY
Valence
SciTegic.value.DoubleValue
9.231

@<SCITEGIC>MOL_PROPERTY
Coulomb
SciTegic.value.DoubleValue
-1.304

@<SCITEGIC>MOL_PROPERTY
VdW
SciTegic.value.DoubleValue
0.501

@<SCITEGIC>MOL_PROPERTY
VdW6
SciTegic.value.DoubleValue
-6.515

@<SCITEGIC>MOL_PROPERTY
VdW12
SciTegic.value.DoubleValue
7.016

@<SCITEGIC>MOL_PROPERTY
Bond
SciTegic.value.DoubleValue
0.103

@<SCITEGIC>MOL_PROPERTY
Angle
SciTegic.value.DoubleValue
2.328

@<SCITEGIC>MOL_PROPERTY
Pdih
SciTegic.value.DoubleValue
6.799

@<SCITEGIC>MOL_PROPERTY
Idih
SciTegic.value.DoubleValue
0.000

@<SCITEGIC>MOL_PROPERTY
Tether
SciTegic.value.DoubleValue
0.000

@<TRIPOS>MOLECULE
guest-s22_confgen4.mol2 : confsearch ligand conformer 997
          20          19           1
SMALL
USER_CHARGES
 
@<TRIPOS>ATOM
       1    C1      19.303605   18.992893   25.052646 C.2        1 MOL1        -0.2535
       2    H1      19.957598   18.126877   25.140425 H          1 MOL1         0.0845
       3    H2      18.418350   19.018629   25.685700 H          1 MOL1         0.0845
       4    C2      19.571321   19.985326   24.199752 C.2        1 MOL1        -0.1324
       5    H3      18.902116   20.842070   24.125192 H          1 MOL1         0.0833
       6    C3      20.779502   20.019157   23.288127 C.3        1 MOL1        -0.1813
       7    H4      21.492992   19.230199   23.562146 H          1 MOL1         0.0753
       8    H5      21.305442   20.973394   23.424614 H          1 MOL1         0.0753
       9    C4      20.393485   19.871773   21.799091 C.3        1 MOL1        -0.1855
      10    H6      19.685080   20.665890   21.525452 H          1 MOL1         0.0755
      11    H7      21.289555   20.025951   21.182627 H          1 MOL1         0.0755
      12    C5      19.785136   18.486904   21.474561 C.3        1 MOL1        -0.1855
      13    H8      18.863757   18.336522   22.054043 H          1 MOL1         0.0755
      14    H9      20.486024   17.701527   21.787879 H          1 MOL1         0.0755
      15    C6      19.473081   18.311879   19.965651 C.3        1 MOL1        -0.1958
      16    H10     20.377433   18.481978   19.369042 H          1 MOL1         0.0753
      17    H11     19.156163   17.279874   19.774547 H          1 MOL1         0.0753
      18    C7      18.369881   19.231783   19.450350 C.2        1 MOL1         0.6174
      19    O1      18.690571   20.208011   18.801272 O.co2      1 MOL1        -0.6695
      20    O2      17.216879   18.936916   19.696796 O.co2      1 MOL1        -0.6695
@<TRIPOS>BOND
    1     1     2    1
    2     1     3    1
    3     1     4    2
    4     4     5    1
    5     4     6    1
    6     6     7    1
    7     6     8    1
    8     6     9    1
    9     9    10    1
   10     9    11    1
   11     9    12    1
   12    12    13    1
   13    12    14    1
   14    12    15    1
   15    15    16    1
   16    15    17    1
   17    15    18    1
   18    18    19    1
   19    18    20    2
@<TRIPOS>SUBSTRUCTURE
       1 MOL1            1 RESIDUE      1      MOL     
@<SCITEGIC>MOL_PROPERTY
VConf Rank
SciTegic.value.IntegerValue
997

@<SCITEGIC>MOL_PROPERTY
Conf_Id
SciTegic.value.IntegerValue
68

@<SCITEGIC>MOL_PROPERTY
Delta U+W
SciTegic.value.DoubleValue
0.492

@<SCITEGIC>MOL_PROPERTY
U+W
SciTegic.value.DoubleValue
-51.253

@<SCITEGIC>MOL_PROPERTY
Grad RMS
SciTegic.value.DoubleValue
0.000000

@<SCITEGIC>MOL_PROPERTY
U
SciTegic.value.DoubleValue
10.179

@<SCITEGIC>MOL_PROPERTY
W
SciTegic.value.DoubleValue
-61.432

@<SCITEGIC>MOL_PROPERTY
W(PB)
SciTegic.value.DoubleValue
-63.627

@<SCITEGIC>MOL_PROPERTY
W(SA)
SciTegic.value.DoubleValue
2.195

@<SCITEGIC>MOL_PROPERTY
Valence
SciTegic.value.DoubleValue
9.483

@<SCITEGIC>MOL_PROPERTY
Coulomb
SciTegic.value.DoubleValue
0.361

@<SCITEGIC>MOL_PROPERTY
VdW
SciTegic.value.DoubleValue
0.335

@<SCITEGIC>MOL_PROPERTY
VdW6
SciTegic.value.DoubleValue
-7.385

@<SCITEGIC>MOL_PROPERTY
VdW12
SciTegic.value.DoubleValue
7.720

@<SCITEGIC>MOL_PROPERTY
Bond
SciTegic.value.DoubleValue
0.125

@<SCITEGIC>MOL_PROPERTY
Angle
SciTegic.value.DoubleValue
2.487

@<SCITEGIC>MOL_PROPERTY
Pdih
SciTegic.value.DoubleValue
6.870

@<SCITEGIC>MOL_PROPERTY
Idih
SciTegic.value.DoubleValue
0.001

@<SCITEGIC>MOL_PROPERTY
Tether
SciTegic.value.DoubleValue
0.000

@<TRIPOS>MOLECULE
guest-s22_confgen4.mol2 : confsearch ligand conformer 998
          20          19           1
SMALL
USER_CHARGES
 
@<TRIPOS>ATOM
       1    C1      22.319609   19.699721   23.807988 C.2        1 MOL1        -0.2535
       2    H1      22.904791   18.809775   23.582048 H          1 MOL1         0.0845
       3    H2      22.437208   20.139042   24.797101 H          1 MOL1         0.0845
       4    C2      21.486208   20.232736   22.910751 C.2        1 MOL1        -0.1324
       5    H3      20.911922   21.125451   23.156720 H          1 MOL1         0.0833
       6    C3      21.275905   19.681071   21.516757 C.3        1 MOL1        -0.1813
       7    H4      22.117133   19.028918   21.245556 H          1 MOL1         0.0753
       8    H5      21.274851   20.501003   20.786205 H          1 MOL1         0.0753
       9    C4      19.964221   18.872949   21.395899 C.3        1 MOL1        -0.1855
      10    H6      19.933384   18.393334   20.408091 H          1 MOL1         0.0755
      11    H7      19.967546   18.061907   22.137382 H          1 MOL1         0.0755
      12    C5      18.700418   19.747221   21.575285 C.3        1 MOL1        -0.1855
      13    H8      18.733017   20.582006   20.862276 H          1 MOL1         0.0755
      14    H9      18.688327   20.189538   22.580783 H          1 MOL1         0.0755
      15    C6      17.389017   18.949098   21.356011 C.3        1 MOL1        -0.1958
      16    H10     16.534326   19.635372   21.379192 H          1 MOL1         0.0753
      17    H11     17.391982   18.479212   20.365071 H          1 MOL1         0.0753
      18    C7      17.137372   17.870211   22.405542 C.2        1 MOL1         0.6174
      19    O1      16.720966   18.216346   23.493614 O.co2      1 MOL1        -0.6695
      20    O2      17.345271   16.711879   22.101949 O.co2      1 MOL1        -0.6695
@<TRIPOS>BOND
    1     1     2    1
    2     1     3    1
    3     1     4    2
    4     4     5    1
    5     4     6    1
    6     6     7    1
    7     6     8    1
    8     6     9    1
    9     9    10    1
   10     9    11    1
   11     9    12    1
   12    12    13    1
   13    12    14    1
   14    12    15    1
   15    15    16    1
   16    15    17    1
   17    15    18    1
   18    18    19    1
   19    18    20    2
@<TRIPOS>SUBSTRUCTURE
       1 MOL1            1 RESIDUE      1      MOL     
@<SCITEGIC>MOL_PROPERTY
VConf Rank
SciTegic.value.IntegerValue
998

@<SCITEGIC>MOL_PROPERTY
Conf_Id
SciTegic.value.IntegerValue
87

@<SCITEGIC>MOL_PROPERTY
Delta U+W
SciTegic.value.DoubleValue
0.339

@<SCITEGIC>MOL_PROPERTY
U+W
SciTegic.value.DoubleValue
-51.407

@<SCITEGIC>MOL_PROPERTY
Grad RMS
SciTegic.value.DoubleValue
0.000000

@<SCITEGIC>MOL_PROPERTY
U
SciTegic.value.DoubleValue
10.461

@<SCITEGIC>MOL_PROPERTY
W
SciTegic.value.DoubleValue
-61.867

@<SCITEGIC>MOL_PROPERTY
W(PB)
SciTegic.value.DoubleValue
-64.045

@<SCITEGIC>MOL_PROPERTY
W(SA)
SciTegic.value.DoubleValue
2.178

@<SCITEGIC>MOL_PROPERTY
Valence
SciTegic.value.DoubleValue
9.555

@<SCITEGIC>MOL_PROPERTY
Coulomb
SciTegic.value.DoubleValue
0.483

@<SCITEGIC>MOL_PROPERTY
VdW
SciTegic.value.DoubleValue
0.423

@<SCITEGIC>MOL_PROPERTY
VdW6
SciTegic.value.DoubleValue
-7.223

@<SCITEGIC>MOL_PROPERTY
VdW12
SciTegic.value.DoubleValue
7.646

@<SCITEGIC>MOL_PROPERTY
Bond
SciTegic.value.DoubleValue
0.126

@<SCITEGIC>MOL_PROPERTY
Angle
SciTegic.value.DoubleValue
2.492

@<SCITEGIC>MOL_PROPERTY
Pdih
SciTegic.value.DoubleValue
6.936

@<SCITEGIC>MOL_PROPERTY
Idih
SciTegic.value.DoubleValue
0.001

@<SCITEGIC>MOL_PROPERTY
Tether
SciTegic.value.DoubleValue
0.000

@<TRIPOS>MOLECULE
guest-s22_confgen4.mol2 : confsearch ligand conformer 999
          20          19           1
SMALL
USER_CHARGES
 
@<TRIPOS>ATOM
       1    C1      21.700585   19.665345   20.227992 C.2        1 MOL1        -0.2535
       2    H1      22.140512   18.708137   19.952979 H          1 MOL1         0.0845
       3    H2      21.677854   20.444481   19.468090 H          1 MOL1         0.0845
       4    C2      21.204831   19.877116   21.449915 C.2        1 MOL1        -0.1324
       5    H3      20.776791   20.844823   21.708977 H          1 MOL1         0.0833
       6    C3      21.214758   18.845046   22.557317 C.3        1 MOL1        -0.1813
       7    H4      21.087414   19.332683   23.532986 H          1 MOL1         0.0753
       8    H5      22.207347   18.375651   22.586339 H          1 MOL1         0.0753
       9    C4      20.151411   17.733240   22.377465 C.3        1 MOL1        -0.1855
      10    H6      20.155267   17.374052   21.339243 H          1 MOL1         0.0755
      11    H7      20.453145   16.875461   22.993830 H          1 MOL1         0.0755
      12    C5      18.713954   18.131046   22.797662 C.3        1 MOL1        -0.1855
      13    H8      18.716332   18.502711   23.831538 H          1 MOL1         0.0755
      14    H9      18.092203   17.225002   22.798347 H          1 MOL1         0.0755
      15    C6      18.046596   19.179703   21.871263 C.3        1 MOL1        -0.1958
      16    H10     18.552360   20.146587   21.957389 H          1 MOL1         0.0753
      17    H11     18.120937   18.863263   20.824046 H          1 MOL1         0.0753
      18    C7      16.573984   19.401791   22.196413 C.2        1 MOL1         0.6174
      19    O1      16.289702   20.242850   23.026289 O.co2      1 MOL1        -0.6695
      20    O2      15.750372   18.713323   21.626714 O.co2      1 MOL1        -0.6695
@<TRIPOS>BOND
    1     1     2    1
    2     1     3    1
    3     1     4    2
    4     4     5    1
    5     4     6    1
    6     6     7    1
    7     6     8    1
    8     6     9    1
    9     9    10    1
   10     9    11    1
   11     9    12    1
   12    12    13    1
   13    12    14    1
   14    12    15    1
   15    15    16    1
   16    15    17    1
   17    15    18    1
   18    18    19    1
   19    18    20    2
@<TRIPOS>SUBSTRUCTURE
       1 MOL1            1 RESIDUE      1      MOL     
@<SCITEGIC>MOL_PROPERTY
VConf Rank
SciTegic.value.IntegerValue
999

@<SCITEGIC>MOL_PROPERTY
Conf_Id
SciTegic.value.IntegerValue
51

@<SCITEGIC>MOL_PROPERTY
Delta U+W
SciTegic.value.DoubleValue
1.709

@<SCITEGIC>MOL_PROPERTY
U+W
SciTegic.value.DoubleValue
-50.036

@<SCITEGIC>MOL_PROPERTY
Grad RMS
SciTegic.value.DoubleValue
0.000000

@<SCITEGIC>MOL_PROPERTY
U
SciTegic.value.DoubleValue
10.643

@<SCITEGIC>MOL_PROPERTY
W
SciTegic.value.DoubleValue
-60.679

@<SCITEGIC>MOL_PROPERTY
W(PB)
SciTegic.value.DoubleValue
-62.882

@<SCITEGIC>MOL_PROPERTY
W(SA)
SciTegic.value.DoubleValue
2.203

@<SCITEGIC>MOL_PROPERTY
Valence
SciTegic.value.DoubleValue
11.231

@<SCITEGIC>MOL_PROPERTY
Coulomb
SciTegic.value.DoubleValue
-1.077

@<SCITEGIC>MOL_PROPERTY
VdW
SciTegic.value.DoubleValue
0.489

@<SCITEGIC>MOL_PROPERTY
VdW6
SciTegic.value.DoubleValue
-7.546

@<SCITEGIC>MOL_PROPERTY
VdW12
SciTegic.value.DoubleValue
8.035

@<SCITEGIC>MOL_PROPERTY
Bond
SciTegic.value.DoubleValue
0.159

@<SCITEGIC>MOL_PROPERTY
Angle
SciTegic.value.DoubleValue
3.005

@<SCITEGIC>MOL_PROPERTY
Pdih
SciTegic.value.DoubleValue
8.065

@<SCITEGIC>MOL_PROPERTY
Idih
SciTegic.value.DoubleValue
0.002

@<SCITEGIC>MOL_PROPERTY
Tether
SciTegic.value.DoubleValue
0.000

@<TRIPOS>MOLECULE
guest-s22_confgen4.mol2 : confsearch ligand conformer 1000
          20          19           1
SMALL
USER_CHARGES
 
@<TRIPOS>ATOM
       1    C1      16.985245   18.280911   22.620281 C.2        1 MOL1        -0.2535
       2    H1      16.595824   17.916229   21.671189 H          1 MOL1         0.0845
       3    H2      16.290639   18.790856   23.285487 H          1 MOL1         0.0845
       4    C2      18.266745   18.112533   22.956614 C.2        1 MOL1        -0.1324
       5    H3      18.635633   18.476640   23.914811 H          1 MOL1         0.0833
       6    C3      19.283198   17.403234   22.087522 C.3        1 MOL1        -0.1813
       7    H4      18.829042   16.479365   21.704619 H          1 MOL1         0.0753
       8    H5      20.143258   17.084164   22.691198 H          1 MOL1         0.0753
       9    C4      19.765631   18.248686   20.882681 C.3        1 MOL1        -0.1855
      10    H6      20.199957   17.563153   20.142316 H          1 MOL1         0.0755
      11    H7      18.906508   18.721545   20.387461 H          1 MOL1         0.0755
      12    C5      20.837807   19.314923   21.221328 C.3        1 MOL1        -0.1855
      13    H8      21.229719   19.720754   20.278357 H          1 MOL1         0.0755
      14    H9      21.688985   18.840716   21.728933 H          1 MOL1         0.0755
      15    C6      20.314050   20.494838   22.079669 C.3        1 MOL1        -0.1958
      16    H10     19.407459   20.917852   21.630810 H          1 MOL1         0.0753
      17    H11     20.051658   20.152259   23.085588 H          1 MOL1         0.0753
      18    C7      21.336796   21.615258   22.228907 C.2        1 MOL1         0.6174
      19    O1      22.126580   21.552776   23.150441 O.co2      1 MOL1        -0.6695
      20    O2      21.330508   22.511084   21.407726 O.co2      1 MOL1        -0.6695
@<TRIPOS>BOND
    1     1     2    1
    2     1     3    1
    3     1     4    2
    4     4     5    1
    5     4     6    1
    6     6     7    1
    7     6     8    1
    8     6     9    1
    9     9    10    1
   10     9    11    1
   11     9    12    1
   12    12    13    1
   13    12    14    1
   14    12    15    1
   15    15    16    1
   16    15    17    1
   17    15    18    1
   18    18    19    1
   19    18    20    2
@<TRIPOS>SUBSTRUCTURE
       1 MOL1            1 RESIDUE      1      MOL     
@<SCITEGIC>MOL_PROPERTY
VConf Rank
SciTegic.value.IntegerValue
1000

@<SCITEGIC>MOL_PROPERTY
Conf_Id
SciTegic.value.IntegerValue
91

@<SCITEGIC>MOL_PROPERTY
Delta U+W
SciTegic.value.DoubleValue
1.604

@<SCITEGIC>MOL_PROPERTY
U+W
SciTegic.value.DoubleValue
-50.141

@<SCITEGIC>MOL_PROPERTY
Grad RMS
SciTegic.value.DoubleValue
0.000000

@<SCITEGIC>MOL_PROPERTY
U
SciTegic.value.DoubleValue
10.644

@<SCITEGIC>MOL_PROPERTY
W
SciTegic.value.DoubleValue
-60.786

@<SCITEGIC>MOL_PROPERTY
W(PB)
SciTegic.value.DoubleValue
-62.965

@<SCITEGIC>MOL_PROPERTY
W(SA)
SciTegic.value.DoubleValue
2.179

@<SCITEGIC>MOL_PROPERTY
Valence
SciTegic.value.DoubleValue
11.230

@<SCITEGIC>MOL_PROPERTY
Coulomb
SciTegic.value.DoubleValue
-1.075

@<SCITEGIC>MOL_PROPERTY
VdW
SciTegic.value.DoubleValue
0.489

@<SCITEGIC>MOL_PROPERTY
VdW6
SciTegic.value.DoubleValue
-7.547

@<SCITEGIC>MOL_PROPERTY
VdW12
SciTegic.value.DoubleValue
8.036

@<SCITEGIC>MOL_PROPERTY
Bond
SciTegic.value.DoubleValue
0.159

@<SCITEGIC>MOL_PROPERTY
Angle
SciTegic.value.DoubleValue
3.006

@<SCITEGIC>MOL_PROPERTY
Pdih
SciTegic.value.DoubleValue
8.064

@<SCITEGIC>MOL_PROPERTY
Idih
SciTegic.value.DoubleValue
0.002

@<SCITEGIC>MOL_PROPERTY
Tether
SciTegic.value.DoubleValue
0.000

