VeraChem MOL file


 20 19  0  0  0  0  0  0  0  0999 V2000     
   19.8544   19.1510   18.8169 C   0  0  0  0  0  0  0  0  0  0  0  0
   20.0357   20.2331   18.7809 H   0  0  0  0  0  0  0  0  0  0  0  0
   20.3379   18.6999   17.9408 H   0  0  0  0  0  0  0  0  0  0  0  0
   18.7732   18.9827   18.7279 H   0  0  0  0  0  0  0  0  0  0  0  0
   20.4073   18.5375   20.1216 C   0  0  0  0  0  0  0  0  0  0  0  0
   21.4948   18.6913   20.1651 H   0  0  0  0  0  0  0  0  0  0  0  0
   20.2423   17.4507   20.1126 H   0  0  0  0  0  0  0  0  0  0  0  0
   19.7439   19.1542   21.3727 C   0  0  0  0  0  0  0  0  0  0  0  0
   19.9120   20.2394   21.3827 H   0  0  0  0  0  0  0  0  0  0  0  0
   18.6579   18.9970   21.3302 H   0  0  0  0  0  0  0  0  0  0  0  0
   20.3006   18.5374   22.6694 C   0  0  0  0  0  0  0  0  0  0  0  0
   21.3792   18.7056   22.7224 H   0  0  0  0  0  0  0  0  0  0  0  0
   20.1208   17.4593   22.6698 H   0  0  0  0  0  0  0  0  0  0  0  0
   19.6776   19.1133   23.9259 N   0  3  0  0  0  0  0  0  0  0  0  0
   18.6547   18.9807   23.9099 H   0  0  0  0  0  0  0  0  0  0  0  0
   19.8198   20.1345   23.9587 H   0  0  0  0  0  0  0  0  0  0  0  0
   20.2823   18.4506   25.1565 C   0  0  0  0  0  0  0  0  0  0  0  0
   21.3590   18.6331   25.1710 H   0  0  0  0  0  0  0  0  0  0  0  0
   19.8251   18.8744   26.0534 H   0  0  0  0  0  0  0  0  0  0  0  0
   20.0900   17.3762   25.1178 H   0  0  0  0  0  0  0  0  0  0  0  0
  1  2  1  0  0  0  0
  1  3  1  0  0  0  0
  1  4  1  0  0  0  0
  1  5  1  0  0  0  0
  5  6  1  0  0  0  0
  5  7  1  0  0  0  0
  5  8  1  0  0  0  0
  8  9  1  0  0  0  0
  8 10  1  0  0  0  0
  8 11  1  0  0  0  0
 11 12  1  0  0  0  0
 11 13  1  0  0  0  0
 11 14  1  0  0  0  0
 14 15  1  0  0  0  0
 14 16  1  0  0  0  0
 14 17  1  0  0  0  0
 17 18  1  0  0  0  0
 17 19  1  0  0  0  0
 17 20  1  0  0  0  0
M  END
> <VM2 Rank>
1

> <Conf_Id>
67

> <Probability>
13.69

> <Sum Probability>
13.69

> <Delta G>
0.000

> <G>
53.937

> <E>
31.435

> <-TS>
22.502

> <U+W>
15.338

> <U>
69.277

> <W>
-53.938

> <W(PB)>
-55.889

> <W(SA)>
1.950

> <Valence>
0.846

> <Coulomb>
68.557

> <VdW>
-0.127

> <VdW6>
-3.008

> <VdW12>
2.882

> <Bond>
0.088

> <Angle>
0.332

> <Pdih>
0.426

> <Idih>
0.000

> <Tether>
0.000

$$$$
VeraChem MOL file


 20 19  0  0  0  0  0  0  0  0999 V2000     
   20.2447   19.5234   19.0575 C   0  0  0  0  0  0  0  0  0  0  0  0
   21.0844   20.2045   19.2476 H   0  0  0  0  0  0  0  0  0  0  0  0
   20.4069   19.0550   18.0781 H   0  0  0  0  0  0  0  0  0  0  0  0
   19.3266   20.1220   18.9959 H   0  0  0  0  0  0  0  0  0  0  0  0
   20.1366   18.4514   20.1636 C   0  0  0  0  0  0  0  0  0  0  0  0
   21.0549   17.8474   20.1778 H   0  0  0  0  0  0  0  0  0  0  0  0
   19.3109   17.7652   19.9275 H   0  0  0  0  0  0  0  0  0  0  0  0
   19.9075   19.0822   21.5548 C   0  0  0  0  0  0  0  0  0  0  0  0
   20.7341   19.7663   21.7862 H   0  0  0  0  0  0  0  0  0  0  0  0
   18.9878   19.6818   21.5411 H   0  0  0  0  0  0  0  0  0  0  0  0
   19.7994   18.0036   22.6525 C   0  0  0  0  0  0  0  0  0  0  0  0
   20.7302   17.4333   22.7055 H   0  0  0  0  0  0  0  0  0  0  0  0
   18.9938   17.3122   22.3922 H   0  0  0  0  0  0  0  0  0  0  0  0
   19.5006   18.5424   24.0421 N   0  3  0  0  0  0  0  0  0  0  0  0
   19.2825   17.7582   24.6768 H   0  0  0  0  0  0  0  0  0  0  0  0
   18.6431   19.1153   24.0266 H   0  0  0  0  0  0  0  0  0  0  0  0
   20.6773   19.3412   24.5924 C   0  0  0  0  0  0  0  0  0  0  0  0
   20.8595   20.2064   23.9521 H   0  0  0  0  0  0  0  0  0  0  0  0
   20.4392   19.6780   25.6037 H   0  0  0  0  0  0  0  0  0  0  0  0
   21.5643   18.7045   24.6162 H   0  0  0  0  0  0  0  0  0  0  0  0
  1  2  1  0  0  0  0
  1  3  1  0  0  0  0
  1  4  1  0  0  0  0
  1  5  1  0  0  0  0
  5  6  1  0  0  0  0
  5  7  1  0  0  0  0
  5  8  1  0  0  0  0
  8  9  1  0  0  0  0
  8 10  1  0  0  0  0
  8 11  1  0  0  0  0
 11 12  1  0  0  0  0
 11 13  1  0  0  0  0
 11 14  1  0  0  0  0
 14 15  1  0  0  0  0
 14 16  1  0  0  0  0
 14 17  1  0  0  0  0
 17 18  1  0  0  0  0
 17 19  1  0  0  0  0
 17 20  1  0  0  0  0
M  END
> <VM2 Rank>
2

> <Conf_Id>
37

> <Probability>
10.69

> <Sum Probability>
24.38

> <Delta G>
0.147

> <G>
54.084

> <E>
31.414

> <-TS>
22.671

> <U+W>
15.318

> <U>
69.657

> <W>
-54.337

> <W(PB)>
-56.236

> <W(SA)>
1.899

> <Valence>
1.137

> <Coulomb>
68.383

> <VdW>
0.138

> <VdW6>
-3.703

> <VdW12>
3.841

> <Bond>
0.125

> <Angle>
0.468

> <Pdih>
0.543

> <Idih>
0.000

> <Tether>
0.000

$$$$
VeraChem MOL file


 20 19  0  0  0  0  0  0  0  0999 V2000     
   19.4687   18.7548   19.0251 C   0  0  0  0  0  0  0  0  0  0  0  0
   18.8814   19.6810   18.9772 H   0  0  0  0  0  0  0  0  0  0  0  0
   19.9766   18.6286   18.0601 H   0  0  0  0  0  0  0  0  0  0  0  0
   18.7727   17.9152   19.1508 H   0  0  0  0  0  0  0  0  0  0  0  0
   20.4939   18.8051   20.1786 C   0  0  0  0  0  0  0  0  0  0  0  0
   21.1968   19.6326   20.0065 H   0  0  0  0  0  0  0  0  0  0  0  0
   21.0885   17.8806   20.1793 H   0  0  0  0  0  0  0  0  0  0  0  0
   19.8069   18.9826   21.5506 C   0  0  0  0  0  0  0  0  0  0  0  0
   19.2165   19.9083   21.5506 H   0  0  0  0  0  0  0  0  0  0  0  0
   19.1063   18.1544   21.7180 H   0  0  0  0  0  0  0  0  0  0  0  0
   20.8390   19.0334   22.6961 C   0  0  0  0  0  0  0  0  0  0  0  0
   21.5476   19.8419   22.4992 H   0  0  0  0  0  0  0  0  0  0  0  0
   21.3985   18.0953   22.7334 H   0  0  0  0  0  0  0  0  0  0  0  0
   20.2445   19.2793   24.0733 N   0  3  0  0  0  0  0  0  0  0  0  0
   19.6801   20.1425   24.0700 H   0  0  0  0  0  0  0  0  0  0  0  0
   21.0030   19.4624   24.7489 H   0  0  0  0  0  0  0  0  0  0  0  0
   19.4131   18.0889   24.5394 C   0  0  0  0  0  0  0  0  0  0  0  0
   18.5741   17.9426   23.8563 H   0  0  0  0  0  0  0  0  0  0  0  0
   20.0406   17.1951   24.5522 H   0  0  0  0  0  0  0  0  0  0  0  0
   19.0359   18.2879   25.5449 H   0  0  0  0  0  0  0  0  0  0  0  0
  1  2  1  0  0  0  0
  1  3  1  0  0  0  0
  1  4  1  0  0  0  0
  1  5  1  0  0  0  0
  5  6  1  0  0  0  0
  5  7  1  0  0  0  0
  5  8  1  0  0  0  0
  8  9  1  0  0  0  0
  8 10  1  0  0  0  0
  8 11  1  0  0  0  0
 11 12  1  0  0  0  0
 11 13  1  0  0  0  0
 11 14  1  0  0  0  0
 14 15  1  0  0  0  0
 14 16  1  0  0  0  0
 14 17  1  0  0  0  0
 17 18  1  0  0  0  0
 17 19  1  0  0  0  0
 17 20  1  0  0  0  0
M  END
> <VM2 Rank>
3

> <Conf_Id>
394

> <Probability>
9.21

> <Sum Probability>
33.59

> <Delta G>
0.236

> <G>
54.173

> <E>
31.503

> <-TS>
22.670

> <U+W>
15.407

> <U>
69.657

> <W>
-54.250

> <W(PB)>
-56.176

> <W(SA)>
1.926

> <Valence>
1.136

> <Coulomb>
68.383

> <VdW>
0.138

> <VdW6>
-3.703

> <VdW12>
3.841

> <Bond>
0.125

> <Angle>
0.468

> <Pdih>
0.543

> <Idih>
0.000

> <Tether>
0.000

$$$$
VeraChem MOL file


 20 19  0  0  0  0  0  0  0  0999 V2000     
   20.8667   19.3665   19.5194 C   0  0  0  0  0  0  0  0  0  0  0  0
   20.5577   20.4198   19.5220 H   0  0  0  0  0  0  0  0  0  0  0  0
   21.7364   19.2627   20.1804 H   0  0  0  0  0  0  0  0  0  0  0  0
   21.1934   19.1163   18.5017 H   0  0  0  0  0  0  0  0  0  0  0  0
   19.7057   18.4446   19.9580 C   0  0  0  0  0  0  0  0  0  0  0  0
   20.0429   17.3984   19.9527 H   0  0  0  0  0  0  0  0  0  0  0  0
   18.8958   18.5114   19.2180 H   0  0  0  0  0  0  0  0  0  0  0  0
   19.1424   18.8035   21.3530 C   0  0  0  0  0  0  0  0  0  0  0  0
   18.7742   19.8381   21.3461 H   0  0  0  0  0  0  0  0  0  0  0  0
   18.2762   18.1625   21.5643 H   0  0  0  0  0  0  0  0  0  0  0  0
   20.1839   18.6322   22.4760 C   0  0  0  0  0  0  0  0  0  0  0  0
   21.0330   19.2957   22.2953 H   0  0  0  0  0  0  0  0  0  0  0  0
   20.5483   17.6019   22.4844 H   0  0  0  0  0  0  0  0  0  0  0  0
   19.6383   18.9445   23.8556 N   0  3  0  0  0  0  0  0  0  0  0  0
   18.8280   18.3410   24.0637 H   0  0  0  0  0  0  0  0  0  0  0  0
   19.2748   19.9094   23.8852 H   0  0  0  0  0  0  0  0  0  0  0  0
   20.7289   18.7528   24.9011 C   0  0  0  0  0  0  0  0  0  0  0  0
   20.3228   18.9807   25.8891 H   0  0  0  0  0  0  0  0  0  0  0  0
   21.0742   17.7170   24.8752 H   0  0  0  0  0  0  0  0  0  0  0  0
   21.5608   19.4253   24.6810 H   0  0  0  0  0  0  0  0  0  0  0  0
  1  2  1  0  0  0  0
  1  3  1  0  0  0  0
  1  4  1  0  0  0  0
  1  5  1  0  0  0  0
  5  6  1  0  0  0  0
  5  7  1  0  0  0  0
  5  8  1  0  0  0  0
  8  9  1  0  0  0  0
  8 10  1  0  0  0  0
  8 11  1  0  0  0  0
 11 12  1  0  0  0  0
 11 13  1  0  0  0  0
 11 14  1  0  0  0  0
 14 15  1  0  0  0  0
 14 16  1  0  0  0  0
 14 17  1  0  0  0  0
 17 18  1  0  0  0  0
 17 19  1  0  0  0  0
 17 20  1  0  0  0  0
M  END
> <VM2 Rank>
4

> <Conf_Id>
118

> <Probability>
7.40

> <Sum Probability>
40.99

> <Delta G>
0.367

> <G>
54.304

> <E>
31.705

> <-TS>
22.599

> <U+W>
15.609

> <U>
69.798

> <W>
-54.189

> <W(PB)>
-56.121

> <W(SA)>
1.932

> <Valence>
1.134

> <Coulomb>
68.735

> <VdW>
-0.070

> <VdW6>
-3.565

> <VdW12>
3.494

> <Bond>
0.108

> <Angle>
0.456

> <Pdih>
0.569

> <Idih>
0.000

> <Tether>
0.000

$$$$
VeraChem MOL file


 20 19  0  0  0  0  0  0  0  0999 V2000     
   19.6008   18.1121   19.4663 C   0  0  0  0  0  0  0  0  0  0  0  0
   19.6694   17.2145   20.0938 H   0  0  0  0  0  0  0  0  0  0  0  0
   18.5509   18.4313   19.4379 H   0  0  0  0  0  0  0  0  0  0  0  0
   19.8911   17.8258   18.4471 H   0  0  0  0  0  0  0  0  0  0  0  0
   20.5129   19.2445   19.9918 C   0  0  0  0  0  0  0  0  0  0  0  0
   20.4841   20.0853   19.2845 H   0  0  0  0  0  0  0  0  0  0  0  0
   21.5556   18.8973   20.0161 H   0  0  0  0  0  0  0  0  0  0  0  0
   20.1000   19.7524   21.3931 C   0  0  0  0  0  0  0  0  0  0  0  0
   20.7388   20.6025   21.6675 H   0  0  0  0  0  0  0  0  0  0  0  0
   19.0699   20.1311   21.3585 H   0  0  0  0  0  0  0  0  0  0  0  0
   20.2150   18.6631   22.4773 C   0  0  0  0  0  0  0  0  0  0  0  0
   21.2409   18.2881   22.5132 H   0  0  0  0  0  0  0  0  0  0  0  0
   19.5526   17.8292   22.2333 H   0  0  0  0  0  0  0  0  0  0  0  0
   19.8496   19.1536   23.8645 N   0  3  0  0  0  0  0  0  0  0  0  0
   18.8875   19.5257   23.8691 H   0  0  0  0  0  0  0  0  0  0  0  0
   20.4508   19.9482   24.1317 H   0  0  0  0  0  0  0  0  0  0  0  0
   19.9875   18.0183   24.8700 C   0  0  0  0  0  0  0  0  0  0  0  0
   21.0204   17.6634   24.8727 H   0  0  0  0  0  0  0  0  0  0  0  0
   19.7217   18.3850   25.8639 H   0  0  0  0  0  0  0  0  0  0  0  0
   19.3176   17.2035   24.5870 H   0  0  0  0  0  0  0  0  0  0  0  0
  1  2  1  0  0  0  0
  1  3  1  0  0  0  0
  1  4  1  0  0  0  0
  1  5  1  0  0  0  0
  5  6  1  0  0  0  0
  5  7  1  0  0  0  0
  5  8  1  0  0  0  0
  8  9  1  0  0  0  0
  8 10  1  0  0  0  0
  8 11  1  0  0  0  0
 11 12  1  0  0  0  0
 11 13  1  0  0  0  0
 11 14  1  0  0  0  0
 14 15  1  0  0  0  0
 14 16  1  0  0  0  0
 14 17  1  0  0  0  0
 17 18  1  0  0  0  0
 17 19  1  0  0  0  0
 17 20  1  0  0  0  0
M  END
> <VM2 Rank>
5

> <Conf_Id>
34

> <Probability>
7.33

> <Sum Probability>
48.31

> <Delta G>
0.373

> <G>
54.310

> <E>
31.711

> <-TS>
22.599

> <U+W>
15.615

> <U>
69.798

> <W>
-54.184

> <W(PB)>
-56.116

> <W(SA)>
1.933

> <Valence>
1.134

> <Coulomb>
68.735

> <VdW>
-0.070

> <VdW6>
-3.565

> <VdW12>
3.494

> <Bond>
0.108

> <Angle>
0.456

> <Pdih>
0.569

> <Idih>
0.000

> <Tether>
0.000

$$$$
VeraChem MOL file


 20 19  0  0  0  0  0  0  0  0999 V2000     
   19.6844   18.8158   18.9889 C   0  0  0  0  0  0  0  0  0  0  0  0
   20.5413   19.3305   18.5351 H   0  0  0  0  0  0  0  0  0  0  0  0
   19.4592   17.9337   18.3755 H   0  0  0  0  0  0  0  0  0  0  0  0
   18.8179   19.4883   18.9414 H   0  0  0  0  0  0  0  0  0  0  0  0
   19.9896   18.4042   20.4454 C   0  0  0  0  0  0  0  0  0  0  0  0
   20.8400   17.7077   20.4563 H   0  0  0  0  0  0  0  0  0  0  0  0
   19.1275   17.8583   20.8519 H   0  0  0  0  0  0  0  0  0  0  0  0
   20.3101   19.6309   21.3317 C   0  0  0  0  0  0  0  0  0  0  0  0
   21.1482   20.1874   20.8914 H   0  0  0  0  0  0  0  0  0  0  0  0
   19.4537   20.3181   21.3480 H   0  0  0  0  0  0  0  0  0  0  0  0
   20.6879   19.2435   22.7755 C   0  0  0  0  0  0  0  0  0  0  0  0
   20.9885   20.1403   23.3232 H   0  0  0  0  0  0  0  0  0  0  0  0
   21.5357   18.5540   22.7610 H   0  0  0  0  0  0  0  0  0  0  0  0
   19.5633   18.5876   23.5547 N   0  3  0  0  0  0  0  0  0  0  0  0
   19.2485   17.7326   23.0728 H   0  0  0  0  0  0  0  0  0  0  0  0
   18.7396   19.2080   23.5802 H   0  0  0  0  0  0  0  0  0  0  0  0
   20.0307   18.2619   24.9669 C   0  0  0  0  0  0  0  0  0  0  0  0
   20.3277   19.1850   25.4694 H   0  0  0  0  0  0  0  0  0  0  0  0
   19.2125   17.7908   25.5160 H   0  0  0  0  0  0  0  0  0  0  0  0
   20.8813   17.5788   24.9159 H   0  0  0  0  0  0  0  0  0  0  0  0
  1  2  1  0  0  0  0
  1  3  1  0  0  0  0
  1  4  1  0  0  0  0
  1  5  1  0  0  0  0
  5  6  1  0  0  0  0
  5  7  1  0  0  0  0
  5  8  1  0  0  0  0
  8  9  1  0  0  0  0
  8 10  1  0  0  0  0
  8 11  1  0  0  0  0
 11 12  1  0  0  0  0
 11 13  1  0  0  0  0
 11 14  1  0  0  0  0
 14 15  1  0  0  0  0
 14 16  1  0  0  0  0
 14 17  1  0  0  0  0
 17 18  1  0  0  0  0
 17 19  1  0  0  0  0
 17 20  1  0  0  0  0
M  END
> <VM2 Rank>
6

> <Conf_Id>
465

> <Probability>
6.94

> <Sum Probability>
55.26

> <Delta G>
0.405

> <G>
54.342

> <E>
31.753

> <-TS>
22.589

> <U+W>
15.657

> <U>
69.962

> <W>
-54.305

> <W(PB)>
-56.223

> <W(SA)>
1.918

> <Valence>
0.982

> <Coulomb>
69.057

> <VdW>
-0.078

> <VdW6>
-3.548

> <VdW12>
3.471

> <Bond>
0.105

> <Angle>
0.408

> <Pdih>
0.469

> <Idih>
0.000

> <Tether>
0.000

$$$$
VeraChem MOL file


 20 19  0  0  0  0  0  0  0  0999 V2000     
   20.1835   19.3100   19.0098 C   0  0  0  0  0  0  0  0  0  0  0  0
   19.6812   18.4781   18.4990 H   0  0  0  0  0  0  0  0  0  0  0  0
   19.5210   20.1845   18.9707 H   0  0  0  0  0  0  0  0  0  0  0  0
   21.0926   19.5515   18.4440 H   0  0  0  0  0  0  0  0  0  0  0  0
   20.5304   18.9398   20.4681 C   0  0  0  0  0  0  0  0  0  0  0  0
   21.0660   19.7785   20.9332 H   0  0  0  0  0  0  0  0  0  0  0  0
   21.2184   18.0826   20.4723 H   0  0  0  0  0  0  0  0  0  0  0  0
   19.2645   18.5954   21.2879 C   0  0  0  0  0  0  0  0  0  0  0  0
   18.5847   19.4575   21.3115 H   0  0  0  0  0  0  0  0  0  0  0  0
   18.7198   17.7824   20.7897 H   0  0  0  0  0  0  0  0  0  0  0  0
   19.5871   18.1535   22.7294 C   0  0  0  0  0  0  0  0  0  0  0  0
   20.2692   17.2998   22.7079 H   0  0  0  0  0  0  0  0  0  0  0  0
   18.6654   17.8396   23.2259 H   0  0  0  0  0  0  0  0  0  0  0  0
   20.2194   19.2374   23.5822 N   0  3  0  0  0  0  0  0  0  0  0  0
   19.6057   20.0658   23.6166 H   0  0  0  0  0  0  0  0  0  0  0  0
   21.0967   19.5631   23.1501 H   0  0  0  0  0  0  0  0  0  0  0  0
   20.4812   18.7079   24.9857 C   0  0  0  0  0  0  0  0  0  0  0  0
   21.1583   17.8530   24.9274 H   0  0  0  0  0  0  0  0  0  0  0  0
   20.9360   19.4974   25.5881 H   0  0  0  0  0  0  0  0  0  0  0  0
   19.5352   18.3999   25.4363 H   0  0  0  0  0  0  0  0  0  0  0  0
  1  2  1  0  0  0  0
  1  3  1  0  0  0  0
  1  4  1  0  0  0  0
  1  5  1  0  0  0  0
  5  6  1  0  0  0  0
  5  7  1  0  0  0  0
  5  8  1  0  0  0  0
  8  9  1  0  0  0  0
  8 10  1  0  0  0  0
  8 11  1  0  0  0  0
 11 12  1  0  0  0  0
 11 13  1  0  0  0  0
 11 14  1  0  0  0  0
 14 15  1  0  0  0  0
 14 16  1  0  0  0  0
 14 17  1  0  0  0  0
 17 18  1  0  0  0  0
 17 19  1  0  0  0  0
 17 20  1  0  0  0  0
M  END
> <VM2 Rank>
7

> <Conf_Id>
245

> <Probability>
6.48

> <Sum Probability>
61.74

> <Delta G>
0.446

> <G>
54.383

> <E>
31.794

> <-TS>
22.589

> <U+W>
15.698

> <U>
69.962

> <W>
-54.265

> <W(PB)>
-56.166

> <W(SA)>
1.901

> <Valence>
0.982

> <Coulomb>
69.058

> <VdW>
-0.077

> <VdW6>
-3.548

> <VdW12>
3.471

> <Bond>
0.105

> <Angle>
0.408

> <Pdih>
0.469

> <Idih>
0.000

> <Tether>
0.000

$$$$
VeraChem MOL file


 20 19  0  0  0  0  0  0  0  0999 V2000     
   19.9202   18.3276   19.2182 C   0  0  0  0  0  0  0  0  0  0  0  0
   19.1811   17.5278   19.3570 H   0  0  0  0  0  0  0  0  0  0  0  0
   19.4294   19.1592   18.6960 H   0  0  0  0  0  0  0  0  0  0  0  0
   20.7137   17.9422   18.5648 H   0  0  0  0  0  0  0  0  0  0  0  0
   20.5032   18.7869   20.5721 C   0  0  0  0  0  0  0  0  0  0  0  0
   21.2612   19.5637   20.3979 H   0  0  0  0  0  0  0  0  0  0  0  0
   21.0183   17.9405   21.0463 H   0  0  0  0  0  0  0  0  0  0  0  0
   19.4037   19.3331   21.5132 C   0  0  0  0  0  0  0  0  0  0  0  0
   18.8681   20.1490   21.0102 H   0  0  0  0  0  0  0  0  0  0  0  0
   18.6581   18.5526   21.7124 H   0  0  0  0  0  0  0  0  0  0  0  0
   19.9678   19.8725   22.8464 C   0  0  0  0  0  0  0  0  0  0  0  0
   19.1519   20.2797   23.4490 H   0  0  0  0  0  0  0  0  0  0  0  0
   20.6647   20.6870   22.6329 H   0  0  0  0  0  0  0  0  0  0  0  0
   20.7069   18.8541   23.7014 N   0  3  0  0  0  0  0  0  0  0  0  0
   21.1548   19.3331   24.4984 H   0  0  0  0  0  0  0  0  0  0  0  0
   21.4863   18.4409   23.1686 H   0  0  0  0  0  0  0  0  0  0  0  0
   19.7642   17.7698   24.2117 C   0  0  0  0  0  0  0  0  0  0  0  0
   20.3229   17.0805   24.8486 H   0  0  0  0  0  0  0  0  0  0  0  0
   18.9609   18.2339   24.7878 H   0  0  0  0  0  0  0  0  0  0  0  0
   19.3449   17.2259   23.3629 H   0  0  0  0  0  0  0  0  0  0  0  0
  1  2  1  0  0  0  0
  1  3  1  0  0  0  0
  1  4  1  0  0  0  0
  1  5  1  0  0  0  0
  5  6  1  0  0  0  0
  5  7  1  0  0  0  0
  5  8  1  0  0  0  0
  8  9  1  0  0  0  0
  8 10  1  0  0  0  0
  8 11  1  0  0  0  0
 11 12  1  0  0  0  0
 11 13  1  0  0  0  0
 11 14  1  0  0  0  0
 14 15  1  0  0  0  0
 14 16  1  0  0  0  0
 14 17  1  0  0  0  0
 17 18  1  0  0  0  0
 17 19  1  0  0  0  0
 17 20  1  0  0  0  0
M  END
> <VM2 Rank>
8

> <Conf_Id>
463

> <Probability>
5.35

> <Sum Probability>
67.09

> <Delta G>
0.560

> <G>
54.497

> <E>
31.685

> <-TS>
22.812

> <U+W>
15.589

> <U>
70.298

> <W>
-54.709

> <W(PB)>
-56.586

> <W(SA)>
1.877

> <Valence>
1.245

> <Coulomb>
68.933

> <VdW>
0.120

> <VdW6>
-4.430

> <VdW12>
4.550

> <Bond>
0.148

> <Angle>
0.587

> <Pdih>
0.509

> <Idih>
0.000

> <Tether>
0.000

$$$$
VeraChem MOL file


 20 19  0  0  0  0  0  0  0  0999 V2000     
   20.6591   19.0613   19.2492 C   0  0  0  0  0  0  0  0  0  0  0  0
   21.4568   19.7876   19.4526 H   0  0  0  0  0  0  0  0  0  0  0  0
   21.0669   18.2929   18.5796 H   0  0  0  0  0  0  0  0  0  0  0  0
   19.8533   19.5801   18.7137 H   0  0  0  0  0  0  0  0  0  0  0  0
   20.1394   18.4257   20.5568 C   0  0  0  0  0  0  0  0  0  0  0  0
   20.9619   17.8844   21.0438 H   0  0  0  0  0  0  0  0  0  0  0  0
   19.3661   17.6819   20.3183 H   0  0  0  0  0  0  0  0  0  0  0  0
   19.5608   19.4890   21.5198 C   0  0  0  0  0  0  0  0  0  0  0  0
   20.3367   20.2193   21.7829 H   0  0  0  0  0  0  0  0  0  0  0  0
   18.7702   20.0517   21.0061 H   0  0  0  0  0  0  0  0  0  0  0  0
   18.9619   18.8738   22.8041 C   0  0  0  0  0  0  0  0  0  0  0  0
   18.1529   18.1930   22.5273 H   0  0  0  0  0  0  0  0  0  0  0  0
   18.5347   19.6668   23.4230 H   0  0  0  0  0  0  0  0  0  0  0  0
   19.9386   18.0912   23.6691 N   0  3  0  0  0  0  0  0  0  0  0  0
   20.3692   17.3317   23.1216 H   0  0  0  0  0  0  0  0  0  0  0  0
   19.4236   17.6140   24.4256 H   0  0  0  0  0  0  0  0  0  0  0  0
   21.0062   19.0030   24.2640 C   0  0  0  0  0  0  0  0  0  0  0  0
   21.6644   18.4125   24.9051 H   0  0  0  0  0  0  0  0  0  0  0  0
   21.5880   19.4533   23.4574 H   0  0  0  0  0  0  0  0  0  0  0  0
   20.5230   19.7850   24.8537 H   0  0  0  0  0  0  0  0  0  0  0  0
  1  2  1  0  0  0  0
  1  3  1  0  0  0  0
  1  4  1  0  0  0  0
  1  5  1  0  0  0  0
  5  6  1  0  0  0  0
  5  7  1  0  0  0  0
  5  8  1  0  0  0  0
  8  9  1  0  0  0  0
  8 10  1  0  0  0  0
  8 11  1  0  0  0  0
 11 12  1  0  0  0  0
 11 13  1  0  0  0  0
 11 14  1  0  0  0  0
 14 15  1  0  0  0  0
 14 16  1  0  0  0  0
 14 17  1  0  0  0  0
 17 18  1  0  0  0  0
 17 19  1  0  0  0  0
 17 20  1  0  0  0  0
M  END
> <VM2 Rank>
9

> <Conf_Id>
446

> <Probability>
5.20

> <Sum Probability>
72.29

> <Delta G>
0.577

> <G>
54.514

> <E>
31.702

> <-TS>
22.812

> <U+W>
15.606

> <U>
70.298

> <W>
-54.692

> <W(PB)>
-56.577

> <W(SA)>
1.885

> <Valence>
1.245

> <Coulomb>
68.933

> <VdW>
0.120

> <VdW6>
-4.430

> <VdW12>
4.550

> <Bond>
0.148

> <Angle>
0.587

> <Pdih>
0.510

> <Idih>
0.000

> <Tether>
0.000

$$$$
VeraChem MOL file


 20 19  0  0  0  0  0  0  0  0999 V2000     
   20.9207   19.1876   19.5881 C   0  0  0  0  0  0  0  0  0  0  0  0
   21.7507   18.4999   19.7959 H   0  0  0  0  0  0  0  0  0  0  0  0
   20.9046   19.3757   18.5068 H   0  0  0  0  0  0  0  0  0  0  0  0
   21.1333   20.1417   20.0866 H   0  0  0  0  0  0  0  0  0  0  0  0
   19.5731   18.5904   20.0547 C   0  0  0  0  0  0  0  0  0  0  0  0
   19.3579   17.6875   19.4659 H   0  0  0  0  0  0  0  0  0  0  0  0
   18.7611   19.2994   19.8403 H   0  0  0  0  0  0  0  0  0  0  0  0
   19.5629   18.2247   21.5574 C   0  0  0  0  0  0  0  0  0  0  0  0
   18.6091   17.7383   21.8005 H   0  0  0  0  0  0  0  0  0  0  0  0
   20.3516   17.4882   21.7581 H   0  0  0  0  0  0  0  0  0  0  0  0
   19.7481   19.4573   22.4684 C   0  0  0  0  0  0  0  0  0  0  0  0
   18.9790   20.1953   22.2268 H   0  0  0  0  0  0  0  0  0  0  0  0
   20.7240   19.9127   22.2841 H   0  0  0  0  0  0  0  0  0  0  0  0
   19.6439   19.1652   23.9564 N   0  3  0  0  0  0  0  0  0  0  0  0
   18.7464   18.7031   24.1679 H   0  0  0  0  0  0  0  0  0  0  0  0
   19.6138   20.0533   24.4814 H   0  0  0  0  0  0  0  0  0  0  0  0
   20.8173   18.3188   24.4381 C   0  0  0  0  0  0  0  0  0  0  0  0
   21.7511   18.8414   24.2197 H   0  0  0  0  0  0  0  0  0  0  0  0
   20.7268   18.1621   25.5152 H   0  0  0  0  0  0  0  0  0  0  0  0
   20.8037   17.3549   23.9257 H   0  0  0  0  0  0  0  0  0  0  0  0
  1  2  1  0  0  0  0
  1  3  1  0  0  0  0
  1  4  1  0  0  0  0
  1  5  1  0  0  0  0
  5  6  1  0  0  0  0
  5  7  1  0  0  0  0
  5  8  1  0  0  0  0
  8  9  1  0  0  0  0
  8 10  1  0  0  0  0
  8 11  1  0  0  0  0
 11 12  1  0  0  0  0
 11 13  1  0  0  0  0
 11 14  1  0  0  0  0
 14 15  1  0  0  0  0
 14 16  1  0  0  0  0
 14 17  1  0  0  0  0
 17 18  1  0  0  0  0
 17 19  1  0  0  0  0
 17 20  1  0  0  0  0
M  END
> <VM2 Rank>
10

> <Conf_Id>
89

> <Probability>
4.76

> <Sum Probability>
77.05

> <Delta G>
0.630

> <G>
54.567

> <E>
31.805

> <-TS>
22.762

> <U+W>
15.708

> <U>
70.163

> <W>
-54.454

> <W(PB)>
-56.327

> <W(SA)>
1.873

> <Valence>
1.420

> <Coulomb>
68.566

> <VdW>
0.177

> <VdW6>
-4.267

> <VdW12>
4.445

> <Bond>
0.146

> <Angle>
0.581

> <Pdih>
0.693

> <Idih>
0.000

> <Tether>
0.000

$$$$
VeraChem MOL file


 20 19  0  0  0  0  0  0  0  0999 V2000     
   19.7767   18.0534   19.5401 C   0  0  0  0  0  0  0  0  0  0  0  0
   20.4487   17.2089   19.7411 H   0  0  0  0  0  0  0  0  0  0  0  0
   18.8008   17.8290   19.9889 H   0  0  0  0  0  0  0  0  0  0  0  0
   19.6344   18.1166   18.4535 H   0  0  0  0  0  0  0  0  0  0  0  0
   20.3640   19.3745   20.0878 C   0  0  0  0  0  0  0  0  0  0  0  0
   19.6709   20.2015   19.8785 H   0  0  0  0  0  0  0  0  0  0  0  0
   21.2925   19.6056   19.5470 H   0  0  0  0  0  0  0  0  0  0  0  0
   20.6659   19.3183   21.6036 C   0  0  0  0  0  0  0  0  0  0  0  0
   21.3871   18.5149   21.8015 H   0  0  0  0  0  0  0  0  0  0  0  0
   21.1490   20.2564   21.9070 H   0  0  0  0  0  0  0  0  0  0  0  0
   19.3946   19.1068   22.4535 C   0  0  0  0  0  0  0  0  0  0  0  0
   18.9398   18.1439   22.2093 H   0  0  0  0  0  0  0  0  0  0  0  0
   18.6734   19.8924   22.2140 H   0  0  0  0  0  0  0  0  0  0  0  0
   19.6244   19.1459   23.9556 N   0  3  0  0  0  0  0  0  0  0  0  0
   18.7152   19.1625   24.4437 H   0  0  0  0  0  0  0  0  0  0  0  0
   20.0842   20.0291   24.2240 H   0  0  0  0  0  0  0  0  0  0  0  0
   20.4404   17.9452   24.4223 C   0  0  0  0  0  0  0  0  0  0  0  0
   20.5523   17.9890   25.5079 H   0  0  0  0  0  0  0  0  0  0  0  0
   19.9202   17.0265   24.1430 H   0  0  0  0  0  0  0  0  0  0  0  0
   21.4251   17.9709   23.9516 H   0  0  0  0  0  0  0  0  0  0  0  0
  1  2  1  0  0  0  0
  1  3  1  0  0  0  0
  1  4  1  0  0  0  0
  1  5  1  0  0  0  0
  5  6  1  0  0  0  0
  5  7  1  0  0  0  0
  5  8  1  0  0  0  0
  8  9  1  0  0  0  0
  8 10  1  0  0  0  0
  8 11  1  0  0  0  0
 11 12  1  0  0  0  0
 11 13  1  0  0  0  0
 11 14  1  0  0  0  0
 14 15  1  0  0  0  0
 14 16  1  0  0  0  0
 14 17  1  0  0  0  0
 17 18  1  0  0  0  0
 17 19  1  0  0  0  0
 17 20  1  0  0  0  0
M  END
> <VM2 Rank>
11

> <Conf_Id>
120

> <Probability>
4.75

> <Sum Probability>
81.80

> <Delta G>
0.631

> <G>
54.568

> <E>
31.807

> <-TS>
22.762

> <U+W>
15.710

> <U>
70.163

> <W>
-54.453

> <W(PB)>
-56.364

> <W(SA)>
1.911

> <Valence>
1.420

> <Coulomb>
68.566

> <VdW>
0.177

> <VdW6>
-4.267

> <VdW12>
4.445

> <Bond>
0.146

> <Angle>
0.581

> <Pdih>
0.693

> <Idih>
0.000

> <Tether>
0.000

$$$$
VeraChem MOL file


 20 19  0  0  0  0  0  0  0  0999 V2000     
   19.9877   19.5063   19.3466 C   0  0  0  0  0  0  0  0  0  0  0  0
   20.4744   20.3793   19.7993 H   0  0  0  0  0  0  0  0  0  0  0  0
   20.3577   19.4191   18.3168 H   0  0  0  0  0  0  0  0  0  0  0  0
   18.9085   19.7013   19.2989 H   0  0  0  0  0  0  0  0  0  0  0  0
   20.2852   18.2134   20.1405 C   0  0  0  0  0  0  0  0  0  0  0  0
   21.3709   18.0464   20.1809 H   0  0  0  0  0  0  0  0  0  0  0  0
   19.8612   17.3557   19.5996 H   0  0  0  0  0  0  0  0  0  0  0  0
   19.7081   18.2368   21.5753 C   0  0  0  0  0  0  0  0  0  0  0  0
   18.6195   18.3732   21.5318 H   0  0  0  0  0  0  0  0  0  0  0  0
   19.8837   17.2591   22.0420 H   0  0  0  0  0  0  0  0  0  0  0  0
   20.3337   19.3451   22.4496 C   0  0  0  0  0  0  0  0  0  0  0  0
   20.1584   20.3138   21.9756 H   0  0  0  0  0  0  0  0  0  0  0  0
   21.4136   19.1947   22.5228 H   0  0  0  0  0  0  0  0  0  0  0  0
   19.7753   19.4290   23.8610 N   0  3  0  0  0  0  0  0  0  0  0  0
   18.7495   19.5331   23.8338 H   0  0  0  0  0  0  0  0  0  0  0  0
   20.1162   20.2903   24.3162 H   0  0  0  0  0  0  0  0  0  0  0  0
   20.1760   18.2134   24.6899 C   0  0  0  0  0  0  0  0  0  0  0  0
   19.7552   17.3123   24.2397 H   0  0  0  0  0  0  0  0  0  0  0  0
   21.2653   18.1400   24.7170 H   0  0  0  0  0  0  0  0  0  0  0  0
   19.7900   18.3298   25.7050 H   0  0  0  0  0  0  0  0  0  0  0  0
  1  2  1  0  0  0  0
  1  3  1  0  0  0  0
  1  4  1  0  0  0  0
  1  5  1  0  0  0  0
  5  6  1  0  0  0  0
  5  7  1  0  0  0  0
  5  8  1  0  0  0  0
  8  9  1  0  0  0  0
  8 10  1  0  0  0  0
  8 11  1  0  0  0  0
 11 12  1  0  0  0  0
 11 13  1  0  0  0  0
 11 14  1  0  0  0  0
 14 15  1  0  0  0  0
 14 16  1  0  0  0  0
 14 17  1  0  0  0  0
 17 18  1  0  0  0  0
 17 19  1  0  0  0  0
 17 20  1  0  0  0  0
M  END
> <VM2 Rank>
12

> <Conf_Id>
459

> <Probability>
4.60

> <Sum Probability>
86.39

> <Delta G>
0.651

> <G>
54.588

> <E>
31.822

> <-TS>
22.765

> <U+W>
15.726

> <U>
70.231

> <W>
-54.505

> <W(PB)>
-56.395

> <W(SA)>
1.890

> <Valence>
1.441

> <Coulomb>
68.568

> <VdW>
0.222

> <VdW6>
-4.234

> <VdW12>
4.455

> <Bond>
0.148

> <Angle>
0.601

> <Pdih>
0.692

> <Idih>
0.000

> <Tether>
0.000

$$$$
VeraChem MOL file


 20 19  0  0  0  0  0  0  0  0999 V2000     
   19.4758   18.9992   19.3252 C   0  0  0  0  0  0  0  0  0  0  0  0
   18.5801   18.5034   19.7200 H   0  0  0  0  0  0  0  0  0  0  0  0
   19.2925   20.0815   19.3149 H   0  0  0  0  0  0  0  0  0  0  0  0
   19.6032   18.6718   18.2852 H   0  0  0  0  0  0  0  0  0  0  0  0
   20.7313   18.6551   20.1592 C   0  0  0  0  0  0  0  0  0  0  0  0
   21.6148   19.0923   19.6731 H   0  0  0  0  0  0  0  0  0  0  0  0
   20.8869   17.5670   20.1606 H   0  0  0  0  0  0  0  0  0  0  0  0
   20.6523   19.1720   21.6149 C   0  0  0  0  0  0  0  0  0  0  0  0
   21.6078   18.9666   22.1142 H   0  0  0  0  0  0  0  0  0  0  0  0
   20.5276   20.2628   21.6117 H   0  0  0  0  0  0  0  0  0  0  0  0
   19.5025   18.5222   22.4148 C   0  0  0  0  0  0  0  0  0  0  0  0
   19.6401   17.4386   22.4485 H   0  0  0  0  0  0  0  0  0  0  0  0
   18.5563   18.7275   21.9085 H   0  0  0  0  0  0  0  0  0  0  0  0
   19.3641   19.0218   23.8438 N   0  3  0  0  0  0  0  0  0  0  0  0
   18.4814   18.6713   24.2477 H   0  0  0  0  0  0  0  0  0  0  0  0
   19.2704   20.0488   23.8557 H   0  0  0  0  0  0  0  0  0  0  0  0
   20.5400   18.5737   24.7051 C   0  0  0  0  0  0  0  0  0  0  0  0
   20.6026   17.4835   24.6890 H   0  0  0  0  0  0  0  0  0  0  0  0
   21.4630   19.0036   24.3113 H   0  0  0  0  0  0  0  0  0  0  0  0
   20.3842   18.9180   25.7299 H   0  0  0  0  0  0  0  0  0  0  0  0
  1  2  1  0  0  0  0
  1  3  1  0  0  0  0
  1  4  1  0  0  0  0
  1  5  1  0  0  0  0
  5  6  1  0  0  0  0
  5  7  1  0  0  0  0
  5  8  1  0  0  0  0
  8  9  1  0  0  0  0
  8 10  1  0  0  0  0
  8 11  1  0  0  0  0
 11 12  1  0  0  0  0
 11 13  1  0  0  0  0
 11 14  1  0  0  0  0
 14 15  1  0  0  0  0
 14 16  1  0  0  0  0
 14 17  1  0  0  0  0
 17 18  1  0  0  0  0
 17 19  1  0  0  0  0
 17 20  1  0  0  0  0
M  END
> <VM2 Rank>
13

> <Conf_Id>
297

> <Probability>
4.23

> <Sum Probability>
90.63

> <Delta G>
0.700

> <G>
54.637

> <E>
31.871

> <-TS>
22.765

> <U+W>
15.775

> <U>
70.231

> <W>
-54.456

> <W(PB)>
-56.330

> <W(SA)>
1.874

> <Valence>
1.441

> <Coulomb>
68.568

> <VdW>
0.222

> <VdW6>
-4.234

> <VdW12>
4.455

> <Bond>
0.148

> <Angle>
0.601

> <Pdih>
0.692

> <Idih>
0.000

> <Tether>
0.000

$$$$
VeraChem MOL file


 20 19  0  0  0  0  0  0  0  0999 V2000     
   20.9019   18.3884   19.8179 C   0  0  0  0  0  0  0  0  0  0  0  0
   20.2892   17.6310   19.3121 H   0  0  0  0  0  0  0  0  0  0  0  0
   21.6445   18.7537   19.0968 H   0  0  0  0  0  0  0  0  0  0  0  0
   21.4472   17.8984   20.6343 H   0  0  0  0  0  0  0  0  0  0  0  0
   20.0289   19.5549   20.3350 C   0  0  0  0  0  0  0  0  0  0  0  0
   19.5780   20.0714   19.4760 H   0  0  0  0  0  0  0  0  0  0  0  0
   20.6639   20.2985   20.8354 H   0  0  0  0  0  0  0  0  0  0  0  0
   18.8982   19.0914   21.2873 C   0  0  0  0  0  0  0  0  0  0  0  0
   18.3012   19.9602   21.5947 H   0  0  0  0  0  0  0  0  0  0  0  0
   18.2143   18.4292   20.7399 H   0  0  0  0  0  0  0  0  0  0  0  0
   19.4003   18.3504   22.5442 C   0  0  0  0  0  0  0  0  0  0  0  0
   19.9568   17.4581   22.2476 H   0  0  0  0  0  0  0  0  0  0  0  0
   18.5436   18.0316   23.1432 H   0  0  0  0  0  0  0  0  0  0  0  0
   20.2985   19.1872   23.4351 N   0  3  0  0  0  0  0  0  0  0  0  0
   19.8052   20.0421   23.7347 H   0  0  0  0  0  0  0  0  0  0  0  0
   21.1178   19.5141   22.9020 H   0  0  0  0  0  0  0  0  0  0  0  0
   20.7382   18.3717   24.6435 C   0  0  0  0  0  0  0  0  0  0  0  0
   21.3845   18.9854   25.2748 H   0  0  0  0  0  0  0  0  0  0  0  0
   19.8565   18.0632   25.2093 H   0  0  0  0  0  0  0  0  0  0  0  0
   21.2857   17.4902   24.3029 H   0  0  0  0  0  0  0  0  0  0  0  0
  1  2  1  0  0  0  0
  1  3  1  0  0  0  0
  1  4  1  0  0  0  0
  1  5  1  0  0  0  0
  5  6  1  0  0  0  0
  5  7  1  0  0  0  0
  5  8  1  0  0  0  0
  8  9  1  0  0  0  0
  8 10  1  0  0  0  0
  8 11  1  0  0  0  0
 11 12  1  0  0  0  0
 11 13  1  0  0  0  0
 11 14  1  0  0  0  0
 14 15  1  0  0  0  0
 14 16  1  0  0  0  0
 14 17  1  0  0  0  0
 17 18  1  0  0  0  0
 17 19  1  0  0  0  0
 17 20  1  0  0  0  0
M  END
> <VM2 Rank>
14

> <Conf_Id>
90

> <Probability>
2.31

> <Sum Probability>
92.94

> <Delta G>
1.060

> <G>
54.997

> <E>
32.224

> <-TS>
22.773

> <U+W>
16.128

> <U>
70.374

> <W>
-54.246

> <W(PB)>
-56.133

> <W(SA)>
1.887

> <Valence>
1.257

> <Coulomb>
69.240

> <VdW>
-0.123

> <VdW6>
-4.336

> <VdW12>
4.212

> <Bond>
0.128

> <Angle>
0.603

> <Pdih>
0.526

> <Idih>
0.000

> <Tether>
0.000

$$$$
VeraChem MOL file


 20 19  0  0  0  0  0  0  0  0999 V2000     
   20.5664   18.0554   19.8039 C   0  0  0  0  0  0  0  0  0  0  0  0
   21.0175   17.4720   20.6164 H   0  0  0  0  0  0  0  0  0  0  0  0
   20.2269   17.3470   19.0372 H   0  0  0  0  0  0  0  0  0  0  0  0
   21.3488   18.6823   19.3569 H   0  0  0  0  0  0  0  0  0  0  0  0
   19.3851   18.9160   20.3080 C   0  0  0  0  0  0  0  0  0  0  0  0
   18.6166   18.2670   20.7494 H   0  0  0  0  0  0  0  0  0  0  0  0
   18.9085   19.4070   19.4478 H   0  0  0  0  0  0  0  0  0  0  0  0
   19.8156   20.0017   21.3258 C   0  0  0  0  0  0  0  0  0  0  0  0
   20.5050   20.7023   20.8361 H   0  0  0  0  0  0  0  0  0  0  0  0
   18.9387   20.5928   21.6215 H   0  0  0  0  0  0  0  0  0  0  0  0
   20.4993   19.4410   22.5903 C   0  0  0  0  0  0  0  0  0  0  0  0
   20.7983   20.2691   23.2379 H   0  0  0  0  0  0  0  0  0  0  0  0
   21.3995   18.8898   22.3082 H   0  0  0  0  0  0  0  0  0  0  0  0
   19.6195   18.5135   23.4066 N   0  3  0  0  0  0  0  0  0  0  0  0
   19.3097   17.7201   22.8261 H   0  0  0  0  0  0  0  0  0  0  0  0
   18.7561   19.0010   23.6907 H   0  0  0  0  0  0  0  0  0  0  0  0
   20.3802   18.0164   24.6284 C   0  0  0  0  0  0  0  0  0  0  0  0
   21.2715   17.4760   24.3022 H   0  0  0  0  0  0  0  0  0  0  0  0
   20.6706   18.8708   25.2435 H   0  0  0  0  0  0  0  0  0  0  0  0
   19.7359   17.3495   25.2055 H   0  0  0  0  0  0  0  0  0  0  0  0
  1  2  1  0  0  0  0
  1  3  1  0  0  0  0
  1  4  1  0  0  0  0
  1  5  1  0  0  0  0
  5  6  1  0  0  0  0
  5  7  1  0  0  0  0
  5  8  1  0  0  0  0
  8  9  1  0  0  0  0
  8 10  1  0  0  0  0
  8 11  1  0  0  0  0
 11 12  1  0  0  0  0
 11 13  1  0  0  0  0
 11 14  1  0  0  0  0
 14 15  1  0  0  0  0
 14 16  1  0  0  0  0
 14 17  1  0  0  0  0
 17 18  1  0  0  0  0
 17 19  1  0  0  0  0
 17 20  1  0  0  0  0
M  END
> <VM2 Rank>
15

> <Conf_Id>
454

> <Probability>
1.94

> <Sum Probability>
94.88

> <Delta G>
1.165

> <G>
55.103

> <E>
32.330

> <-TS>
22.772

> <U+W>
16.234

> <U>
70.374

> <W>
-54.140

> <W(PB)>
-56.047

> <W(SA)>
1.907

> <Valence>
1.257

> <Coulomb>
69.240

> <VdW>
-0.123

> <VdW6>
-4.336

> <VdW12>
4.213

> <Bond>
0.128

> <Angle>
0.603

> <Pdih>
0.526

> <Idih>
0.000

> <Tether>
0.000

$$$$
VeraChem MOL file


 20 19  0  0  0  0  0  0  0  0999 V2000     
   19.2819   18.9367   19.6799 C   0  0  0  0  0  0  0  0  0  0  0  0
   19.7312   19.7798   19.1391 H   0  0  0  0  0  0  0  0  0  0  0  0
   18.8405   18.2601   18.9367 H   0  0  0  0  0  0  0  0  0  0  0  0
   18.4645   19.3249   20.3004 H   0  0  0  0  0  0  0  0  0  0  0  0
   20.3394   18.1943   20.5287 C   0  0  0  0  0  0  0  0  0  0  0  0
   21.0873   17.7489   19.8577 H   0  0  0  0  0  0  0  0  0  0  0  0
   19.8681   17.3541   21.0566 H   0  0  0  0  0  0  0  0  0  0  0  0
   21.0638   19.1176   21.5397 C   0  0  0  0  0  0  0  0  0  0  0  0
   21.8259   18.5404   22.0788 H   0  0  0  0  0  0  0  0  0  0  0  0
   21.6085   19.8969   20.9905 H   0  0  0  0  0  0  0  0  0  0  0  0
   20.1198   19.8007   22.5555 C   0  0  0  0  0  0  0  0  0  0  0  0
   19.4247   20.4480   22.0153 H   0  0  0  0  0  0  0  0  0  0  0  0
   20.7044   20.4295   23.2318 H   0  0  0  0  0  0  0  0  0  0  0  0
   19.2901   18.8526   23.4075 N   0  3  0  0  0  0  0  0  0  0  0  0
   18.7327   18.2314   22.8028 H   0  0  0  0  0  0  0  0  0  0  0  0
   18.5966   19.3914   23.9495 H   0  0  0  0  0  0  0  0  0  0  0  0
   20.1710   18.0422   24.3518 C   0  0  0  0  0  0  0  0  0  0  0  0
   19.5387   17.3984   24.9671 H   0  0  0  0  0  0  0  0  0  0  0  0
   20.8596   17.4288   23.7673 H   0  0  0  0  0  0  0  0  0  0  0  0
   20.7346   18.7245   24.9917 H   0  0  0  0  0  0  0  0  0  0  0  0
  1  2  1  0  0  0  0
  1  3  1  0  0  0  0
  1  4  1  0  0  0  0
  1  5  1  0  0  0  0
  5  6  1  0  0  0  0
  5  7  1  0  0  0  0
  5  8  1  0  0  0  0
  8  9  1  0  0  0  0
  8 10  1  0  0  0  0
  8 11  1  0  0  0  0
 11 12  1  0  0  0  0
 11 13  1  0  0  0  0
 11 14  1  0  0  0  0
 14 15  1  0  0  0  0
 14 16  1  0  0  0  0
 14 17  1  0  0  0  0
 17 18  1  0  0  0  0
 17 19  1  0  0  0  0
 17 20  1  0  0  0  0
M  END
> <VM2 Rank>
16

> <Conf_Id>
251

> <Probability>
1.58

> <Sum Probability>
96.46

> <Delta G>
1.288

> <G>
55.225

> <E>
32.217

> <-TS>
23.008

> <U+W>
16.120

> <U>
70.777

> <W>
-54.656

> <W(PB)>
-56.505

> <W(SA)>
1.849

> <Valence>
1.529

> <Coulomb>
69.166

> <VdW>
0.082

> <VdW6>
-5.166

> <VdW12>
5.248

> <Bond>
0.171

> <Angle>
0.752

> <Pdih>
0.605

> <Idih>
0.000

> <Tether>
0.000

$$$$
VeraChem MOL file


 20 19  0  0  0  0  0  0  0  0999 V2000     
   20.0370   19.6845   19.7115 C   0  0  0  0  0  0  0  0  0  0  0  0
   19.6303   20.4793   20.3492 H   0  0  0  0  0  0  0  0  0  0  0  0
   20.7484   20.1493   19.0166 H   0  0  0  0  0  0  0  0  0  0  0  0
   19.2136   19.2673   19.1174 H   0  0  0  0  0  0  0  0  0  0  0  0
   20.7334   18.5844   20.5452 C   0  0  0  0  0  0  0  0  0  0  0  0
   21.5548   19.0242   21.1272 H   0  0  0  0  0  0  0  0  0  0  0  0
   21.2001   17.8606   19.8624 H   0  0  0  0  0  0  0  0  0  0  0  0
   19.7618   17.8284   21.4851 C   0  0  0  0  0  0  0  0  0  0  0  0
   19.0015   17.3155   20.8813 H   0  0  0  0  0  0  0  0  0  0  0  0
   20.3089   17.0382   22.0152 H   0  0  0  0  0  0  0  0  0  0  0  0
   19.0449   18.7362   22.5105 C   0  0  0  0  0  0  0  0  0  0  0  0
   18.3828   18.1307   23.1345 H   0  0  0  0  0  0  0  0  0  0  0  0
   18.4272   19.4603   21.9736 H   0  0  0  0  0  0  0  0  0  0  0  0
   19.9636   19.5194   23.4357 N   0  3  0  0  0  0  0  0  0  0  0  0
   19.4085   20.1954   23.9834 H   0  0  0  0  0  0  0  0  0  0  0  0
   20.6148   20.0948   22.8816 H   0  0  0  0  0  0  0  0  0  0  0  0
   20.7253   18.5911   24.3751 C   0  0  0  0  0  0  0  0  0  0  0  0
   21.3565   17.9209   23.7882 H   0  0  0  0  0  0  0  0  0  0  0  0
   21.3483   19.1901   25.0429 H   0  0  0  0  0  0  0  0  0  0  0  0
   20.0115   18.0087   24.9615 H   0  0  0  0  0  0  0  0  0  0  0  0
  1  2  1  0  0  0  0
  1  3  1  0  0  0  0
  1  4  1  0  0  0  0
  1  5  1  0  0  0  0
  5  6  1  0  0  0  0
  5  7  1  0  0  0  0
  5  8  1  0  0  0  0
  8  9  1  0  0  0  0
  8 10  1  0  0  0  0
  8 11  1  0  0  0  0
 11 12  1  0  0  0  0
 11 13  1  0  0  0  0
 11 14  1  0  0  0  0
 14 15  1  0  0  0  0
 14 16  1  0  0  0  0
 14 17  1  0  0  0  0
 17 18  1  0  0  0  0
 17 19  1  0  0  0  0
 17 20  1  0  0  0  0
M  END
> <VM2 Rank>
17

> <Conf_Id>
343

> <Probability>
1.57

> <Sum Probability>
98.03

> <Delta G>
1.289

> <G>
55.226

> <E>
32.218

> <-TS>
23.008

> <U+W>
16.122

> <U>
70.777

> <W>
-54.655

> <W(PB)>
-56.491

> <W(SA)>
1.836

> <Valence>
1.529

> <Coulomb>
69.166

> <VdW>
0.082

> <VdW6>
-5.166

> <VdW12>
5.248

> <Bond>
0.171

> <Angle>
0.752

> <Pdih>
0.605

> <Idih>
0.000

> <Tether>
0.000

$$$$
VeraChem MOL file


 20 19  0  0  0  0  0  0  0  0999 V2000     
   19.7481   18.3613   19.2371 C   0  0  0  0  0  0  0  0  0  0  0  0
   19.9466   19.2714   18.6562 H   0  0  0  0  0  0  0  0  0  0  0  0
   20.1566   17.5099   18.6773 H   0  0  0  0  0  0  0  0  0  0  0  0
   18.6604   18.2290   19.3037 H   0  0  0  0  0  0  0  0  0  0  0  0
   20.3845   18.4468   20.6415 C   0  0  0  0  0  0  0  0  0  0  0  0
   21.4744   18.5466   20.5410 H   0  0  0  0  0  0  0  0  0  0  0  0
   20.2044   17.5040   21.1715 H   0  0  0  0  0  0  0  0  0  0  0  0
   19.8268   19.6428   21.4499 C   0  0  0  0  0  0  0  0  0  0  0  0
   20.0024   20.5607   20.8733 H   0  0  0  0  0  0  0  0  0  0  0  0
   18.7385   19.5568   21.5668 H   0  0  0  0  0  0  0  0  0  0  0  0
   20.4954   19.8177   22.8325 C   0  0  0  0  0  0  0  0  0  0  0  0
   20.4749   20.8809   23.0856 H   0  0  0  0  0  0  0  0  0  0  0  0
   21.5429   19.5097   22.7863 H   0  0  0  0  0  0  0  0  0  0  0  0
   19.8278   19.0943   23.9949 N   0  3  0  0  0  0  0  0  0  0  0  0
   18.8320   19.3560   24.0533 H   0  0  0  0  0  0  0  0  0  0  0  0
   20.2372   19.4307   24.8805 H   0  0  0  0  0  0  0  0  0  0  0  0
   19.9833   17.5812   23.9072 C   0  0  0  0  0  0  0  0  0  0  0  0
   19.4269   17.2106   23.0449 H   0  0  0  0  0  0  0  0  0  0  0  0
   21.0418   17.3322   23.8061 H   0  0  0  0  0  0  0  0  0  0  0  0
   19.5839   17.1286   24.8175 H   0  0  0  0  0  0  0  0  0  0  0  0
  1  2  1  0  0  0  0
  1  3  1  0  0  0  0
  1  4  1  0  0  0  0
  1  5  1  0  0  0  0
  5  6  1  0  0  0  0
  5  7  1  0  0  0  0
  5  8  1  0  0  0  0
  8  9  1  0  0  0  0
  8 10  1  0  0  0  0
  8 11  1  0  0  0  0
 11 12  1  0  0  0  0
 11 13  1  0  0  0  0
 11 14  1  0  0  0  0
 14 15  1  0  0  0  0
 14 16  1  0  0  0  0
 14 17  1  0  0  0  0
 17 18  1  0  0  0  0
 17 19  1  0  0  0  0
 17 20  1  0  0  0  0
M  END
> <VM2 Rank>
18

> <Conf_Id>
74

> <Probability>
0.66

> <Sum Probability>
98.70

> <Delta G>
1.805

> <G>
55.742

> <E>
33.200

> <-TS>
22.542

> <U+W>
17.103

> <U>
71.852

> <W>
-54.749

> <W(PB)>
-56.607

> <W(SA)>
1.858

> <Valence>
3.010

> <Coulomb>
68.712

> <VdW>
0.131

> <VdW6>
-4.513

> <VdW12>
4.644

> <Bond>
0.159

> <Angle>
1.000

> <Pdih>
1.850

> <Idih>
0.000

> <Tether>
0.000

$$$$
VeraChem MOL file


 20 19  0  0  0  0  0  0  0  0999 V2000     
   20.6265   19.2314   19.2741 C   0  0  0  0  0  0  0  0  0  0  0  0
   20.7653   20.3140   19.3923 H   0  0  0  0  0  0  0  0  0  0  0  0
   21.4972   18.8380   18.7336 H   0  0  0  0  0  0  0  0  0  0  0  0
   19.7401   19.0672   18.6476 H   0  0  0  0  0  0  0  0  0  0  0  0
   20.4761   18.5375   20.6452 C   0  0  0  0  0  0  0  0  0  0  0  0
   21.3971   18.6852   21.2215 H   0  0  0  0  0  0  0  0  0  0  0  0
   20.3710   17.4539   20.4944 H   0  0  0  0  0  0  0  0  0  0  0  0
   19.2518   19.0732   21.4258 C   0  0  0  0  0  0  0  0  0  0  0  0
   19.3422   20.1547   21.5923 H   0  0  0  0  0  0  0  0  0  0  0  0
   18.3576   18.9315   20.8045 H   0  0  0  0  0  0  0  0  0  0  0  0
   19.0130   18.3490   22.7703 C   0  0  0  0  0  0  0  0  0  0  0  0
   19.3138   17.3013   22.6928 H   0  0  0  0  0  0  0  0  0  0  0  0
   17.9403   18.3697   22.9794 H   0  0  0  0  0  0  0  0  0  0  0  0
   19.6923   18.9598   23.9892 N   0  3  0  0  0  0  0  0  0  0  0  0
   19.3154   18.5170   24.8419 H   0  0  0  0  0  0  0  0  0  0  0  0
   19.4365   19.9548   24.0789 H   0  0  0  0  0  0  0  0  0  0  0  0
   21.2064   18.7930   23.9583 C   0  0  0  0  0  0  0  0  0  0  0  0
   21.4507   17.7373   23.8228 H   0  0  0  0  0  0  0  0  0  0  0  0
   21.6175   19.3815   23.1366 H   0  0  0  0  0  0  0  0  0  0  0  0
   21.6234   19.1493   24.9028 H   0  0  0  0  0  0  0  0  0  0  0  0
  1  2  1  0  0  0  0
  1  3  1  0  0  0  0
  1  4  1  0  0  0  0
  1  5  1  0  0  0  0
  5  6  1  0  0  0  0
  5  7  1  0  0  0  0
  5  8  1  0  0  0  0
  8  9  1  0  0  0  0
  8 10  1  0  0  0  0
  8 11  1  0  0  0  0
 11 12  1  0  0  0  0
 11 13  1  0  0  0  0
 11 14  1  0  0  0  0
 14 15  1  0  0  0  0
 14 16  1  0  0  0  0
 14 17  1  0  0  0  0
 17 18  1  0  0  0  0
 17 19  1  0  0  0  0
 17 20  1  0  0  0  0
M  END
> <VM2 Rank>
19

> <Conf_Id>
284

> <Probability>
0.60

> <Sum Probability>
99.29

> <Delta G>
1.867

> <G>
55.804

> <E>
33.261

> <-TS>
22.544

> <U+W>
17.164

> <U>
71.852

> <W>
-54.688

> <W(PB)>
-56.549

> <W(SA)>
1.861

> <Valence>
3.010

> <Coulomb>
68.712

> <VdW>
0.131

> <VdW6>
-4.514

> <VdW12>
4.645

> <Bond>
0.159

> <Angle>
1.000

> <Pdih>
1.850

> <Idih>
0.000

> <Tether>
0.000

$$$$
VeraChem MOL file


 20 19  0  0  0  0  0  0  0  0999 V2000     
   20.1916   17.7888   20.0712 C   0  0  0  0  0  0  0  0  0  0  0  0
   19.9063   17.1234   20.8952 H   0  0  0  0  0  0  0  0  0  0  0  0
   19.3188   17.9158   19.4178 H   0  0  0  0  0  0  0  0  0  0  0  0
   20.9729   17.2813   19.4906 H   0  0  0  0  0  0  0  0  0  0  0  0
   20.7006   19.1540   20.5884 C   0  0  0  0  0  0  0  0  0  0  0  0
   21.0396   19.7531   19.7317 H   0  0  0  0  0  0  0  0  0  0  0  0
   21.5862   19.0120   21.2211 H   0  0  0  0  0  0  0  0  0  0  0  0
   19.6194   19.9544   21.3552 C   0  0  0  0  0  0  0  0  0  0  0  0
   20.0317   20.9267   21.6554 H   0  0  0  0  0  0  0  0  0  0  0  0
   18.7940   20.1778   20.6665 H   0  0  0  0  0  0  0  0  0  0  0  0
   19.0314   19.2489   22.5999 C   0  0  0  0  0  0  0  0  0  0  0  0
   18.6217   18.2726   22.3304 H   0  0  0  0  0  0  0  0  0  0  0  0
   18.2060   19.8613   22.9717 H   0  0  0  0  0  0  0  0  0  0  0  0
   19.9913   19.0642   23.7659 N   0  3  0  0  0  0  0  0  0  0  0  0
   19.4613   19.1014   24.6505 H   0  0  0  0  0  0  0  0  0  0  0  0
   20.6478   19.8571   23.8196 H   0  0  0  0  0  0  0  0  0  0  0  0
   20.7317   17.7337   23.6824 C   0  0  0  0  0  0  0  0  0  0  0  0
   21.3836   17.6330   24.5528 H   0  0  0  0  0  0  0  0  0  0  0  0
   20.0042   16.9193   23.6733 H   0  0  0  0  0  0  0  0  0  0  0  0
   21.3308   17.7015   22.7718 H   0  0  0  0  0  0  0  0  0  0  0  0
  1  2  1  0  0  0  0
  1  3  1  0  0  0  0
  1  4  1  0  0  0  0
  1  5  1  0  0  0  0
  5  6  1  0  0  0  0
  5  7  1  0  0  0  0
  5  8  1  0  0  0  0
  8  9  1  0  0  0  0
  8 10  1  0  0  0  0
  8 11  1  0  0  0  0
 11 12  1  0  0  0  0
 11 13  1  0  0  0  0
 11 14  1  0  0  0  0
 14 15  1  0  0  0  0
 14 16  1  0  0  0  0
 14 17  1  0  0  0  0
 17 18  1  0  0  0  0
 17 19  1  0  0  0  0
 17 20  1  0  0  0  0
M  END
> <VM2 Rank>
20

> <Conf_Id>
147

> <Probability>
0.21

> <Sum Probability>
99.50

> <Delta G>
2.494

> <G>
56.431

> <E>
33.223

> <-TS>
23.208

> <U+W>
17.126

> <U>
72.122

> <W>
-54.995

> <W(PB)>
-56.810

> <W(SA)>
1.815

> <Valence>
3.197

> <Coulomb>
69.115

> <VdW>
-0.190

> <VdW6>
-5.585

> <VdW12>
5.395

> <Bond>
0.177

> <Angle>
1.207

> <Pdih>
1.813

> <Idih>
0.000

> <Tether>
0.000

$$$$
VeraChem MOL file


 20 19  0  0  0  0  0  0  0  0999 V2000     
   21.1594   18.7479   20.1117 C   0  0  0  0  0  0  0  0  0  0  0  0
   21.6845   17.9867   19.5203 H   0  0  0  0  0  0  0  0  0  0  0  0
   21.0671   19.6486   19.4911 H   0  0  0  0  0  0  0  0  0  0  0  0
   21.7916   18.9918   20.9742 H   0  0  0  0  0  0  0  0  0  0  0  0
   19.7694   18.2312   20.5494 C   0  0  0  0  0  0  0  0  0  0  0  0
   19.8774   17.3185   21.1495 H   0  0  0  0  0  0  0  0  0  0  0  0
   19.2044   17.9343   19.6547 H   0  0  0  0  0  0  0  0  0  0  0  0
   18.9461   19.2871   21.3270 C   0  0  0  0  0  0  0  0  0  0  0  0
   18.7587   20.1428   20.6650 H   0  0  0  0  0  0  0  0  0  0  0  0
   17.9587   18.8722   21.5685 H   0  0  0  0  0  0  0  0  0  0  0  0
   19.6031   19.8154   22.6239 C   0  0  0  0  0  0  0  0  0  0  0  0
   18.9822   20.6306   23.0043 H   0  0  0  0  0  0  0  0  0  0  0  0
   20.5931   20.2264   22.4131 H   0  0  0  0  0  0  0  0  0  0  0  0
   19.7306   18.8058   23.7550 N   0  3  0  0  0  0  0  0  0  0  0  0
   18.9309   18.1554   23.7475 H   0  0  0  0  0  0  0  0  0  0  0  0
   19.6602   19.2986   24.6589 H   0  0  0  0  0  0  0  0  0  0  0  0
   21.0574   18.0566   23.6960 C   0  0  0  0  0  0  0  0  0  0  0  0
   21.8773   18.7758   23.7519 H   0  0  0  0  0  0  0  0  0  0  0  0
   21.1160   17.3678   24.5416 H   0  0  0  0  0  0  0  0  0  0  0  0
   21.1233   17.4958   22.7632 H   0  0  0  0  0  0  0  0  0  0  0  0
  1  2  1  0  0  0  0
  1  3  1  0  0  0  0
  1  4  1  0  0  0  0
  1  5  1  0  0  0  0
  5  6  1  0  0  0  0
  5  7  1  0  0  0  0
  5  8  1  0  0  0  0
  8  9  1  0  0  0  0
  8 10  1  0  0  0  0
  8 11  1  0  0  0  0
 11 12  1  0  0  0  0
 11 13  1  0  0  0  0
 11 14  1  0  0  0  0
 14 15  1  0  0  0  0
 14 16  1  0  0  0  0
 14 17  1  0  0  0  0
 17 18  1  0  0  0  0
 17 19  1  0  0  0  0
 17 20  1  0  0  0  0
M  END
> <VM2 Rank>
21

> <Conf_Id>
292

> <Probability>
0.18

> <Sum Probability>
99.68

> <Delta G>
2.586

> <G>
56.523

> <E>
33.314

> <-TS>
23.208

> <U+W>
17.218

> <U>
72.122

> <W>
-54.904

> <W(PB)>
-56.725

> <W(SA)>
1.821

> <Valence>
3.197

> <Coulomb>
69.115

> <VdW>
-0.190

> <VdW6>
-5.584

> <VdW12>
5.394

> <Bond>
0.177

> <Angle>
1.207

> <Pdih>
1.813

> <Idih>
0.000

> <Tether>
0.000

$$$$
VeraChem MOL file


 20 19  0  0  0  0  0  0  0  0999 V2000     
   19.5907   19.9799   20.2744 C   0  0  0  0  0  0  0  0  0  0  0  0
   20.2484   20.7044   20.7722 H   0  0  0  0  0  0  0  0  0  0  0  0
   19.3552   20.3746   19.2774 H   0  0  0  0  0  0  0  0  0  0  0  0
   18.6459   19.9209   20.8267 H   0  0  0  0  0  0  0  0  0  0  0  0
   20.2677   18.5954   20.1555 C   0  0  0  0  0  0  0  0  0  0  0  0
   21.0708   18.6629   19.4082 H   0  0  0  0  0  0  0  0  0  0  0  0
   19.5463   17.8663   19.7603 H   0  0  0  0  0  0  0  0  0  0  0  0
   20.8778   18.0638   21.4777 C   0  0  0  0  0  0  0  0  0  0  0  0
   21.4074   17.1289   21.2514 H   0  0  0  0  0  0  0  0  0  0  0  0
   21.6440   18.7566   21.8478 H   0  0  0  0  0  0  0  0  0  0  0  0
   19.8437   17.7578   22.5860 C   0  0  0  0  0  0  0  0  0  0  0  0
   20.2967   17.0947   23.3273 H   0  0  0  0  0  0  0  0  0  0  0  0
   18.9931   17.2322   22.1447 H   0  0  0  0  0  0  0  0  0  0  0  0
   19.3067   18.9642   23.3400 N   0  3  0  0  0  0  0  0  0  0  0  0
   18.4972   18.6805   23.9141 H   0  0  0  0  0  0  0  0  0  0  0  0
   18.9375   19.6596   22.6767 H   0  0  0  0  0  0  0  0  0  0  0  0
   20.3795   19.5830   24.2294 C   0  0  0  0  0  0  0  0  0  0  0  0
   19.9476   20.4215   24.7801 H   0  0  0  0  0  0  0  0  0  0  0  0
   20.7422   18.8296   24.9319 H   0  0  0  0  0  0  0  0  0  0  0  0
   21.2046   19.9387   23.6094 H   0  0  0  0  0  0  0  0  0  0  0  0
  1  2  1  0  0  0  0
  1  3  1  0  0  0  0
  1  4  1  0  0  0  0
  1  5  1  0  0  0  0
  5  6  1  0  0  0  0
  5  7  1  0  0  0  0
  5  8  1  0  0  0  0
  8  9  1  0  0  0  0
  8 10  1  0  0  0  0
  8 11  1  0  0  0  0
 11 12  1  0  0  0  0
 11 13  1  0  0  0  0
 11 14  1  0  0  0  0
 14 15  1  0  0  0  0
 14 16  1  0  0  0  0
 14 17  1  0  0  0  0
 17 18  1  0  0  0  0
 17 19  1  0  0  0  0
 17 20  1  0  0  0  0
M  END
> <VM2 Rank>
22

> <Conf_Id>
230

> <Probability>
0.09

> <Sum Probability>
99.77

> <Delta G>
3.015

> <G>
56.952

> <E>
34.176

> <-TS>
22.776

> <U+W>
18.080

> <U>
72.490

> <W>
-54.411

> <W(PB)>
-56.270

> <W(SA)>
1.860

> <Valence>
2.738

> <Coulomb>
69.795

> <VdW>
-0.043

> <VdW6>
-5.334

> <VdW12>
5.291

> <Bond>
0.182

> <Angle>
1.135

> <Pdih>
1.422

> <Idih>
0.000

> <Tether>
0.000

$$$$
VeraChem MOL file


 20 19  0  0  0  0  0  0  0  0999 V2000     
   18.9671   19.3629   20.2484 C   0  0  0  0  0  0  0  0  0  0  0  0
   18.6171   19.6444   19.2467 H   0  0  0  0  0  0  0  0  0  0  0  0
   18.2161   18.6929   20.6871 H   0  0  0  0  0  0  0  0  0  0  0  0
   19.0115   20.2830   20.8423 H   0  0  0  0  0  0  0  0  0  0  0  0
   20.3490   18.6761   20.1590 C   0  0  0  0  0  0  0  0  0  0  0  0
   21.1009   19.4053   19.8259 H   0  0  0  0  0  0  0  0  0  0  0  0
   20.3057   17.9060   19.3760 H   0  0  0  0  0  0  0  0  0  0  0  0
   20.8183   18.0049   21.4751 C   0  0  0  0  0  0  0  0  0  0  0  0
   20.1031   17.2319   21.7831 H   0  0  0  0  0  0  0  0  0  0  0  0
   21.7567   17.4746   21.2659 H   0  0  0  0  0  0  0  0  0  0  0  0
   21.0874   18.9879   22.6382 C   0  0  0  0  0  0  0  0  0  0  0  0
   21.6397   19.8500   22.2558 H   0  0  0  0  0  0  0  0  0  0  0  0
   21.7138   18.4964   23.3868 H   0  0  0  0  0  0  0  0  0  0  0  0
   19.8554   19.5070   23.3630 N   0  3  0  0  0  0  0  0  0  0  0  0
   19.1926   19.9120   22.6874 H   0  0  0  0  0  0  0  0  0  0  0  0
   20.1226   20.2882   23.9824 H   0  0  0  0  0  0  0  0  0  0  0  0
   19.1887   18.4051   24.1792 C   0  0  0  0  0  0  0  0  0  0  0  0
   18.8514   17.6111   23.5103 H   0  0  0  0  0  0  0  0  0  0  0  0
   19.9079   18.0043   24.8967 H   0  0  0  0  0  0  0  0  0  0  0  0
   18.3320   18.8234   24.7121 H   0  0  0  0  0  0  0  0  0  0  0  0
  1  2  1  0  0  0  0
  1  3  1  0  0  0  0
  1  4  1  0  0  0  0
  1  5  1  0  0  0  0
  5  6  1  0  0  0  0
  5  7  1  0  0  0  0
  5  8  1  0  0  0  0
  8  9  1  0  0  0  0
  8 10  1  0  0  0  0
  8 11  1  0  0  0  0
 11 12  1  0  0  0  0
 11 13  1  0  0  0  0
 11 14  1  0  0  0  0
 14 15  1  0  0  0  0
 14 16  1  0  0  0  0
 14 17  1  0  0  0  0
 17 18  1  0  0  0  0
 17 19  1  0  0  0  0
 17 20  1  0  0  0  0
M  END
> <VM2 Rank>
23

> <Conf_Id>
76

> <Probability>
0.08

> <Sum Probability>
99.85

> <Delta G>
3.071

> <G>
57.008

> <E>
34.233

> <-TS>
22.774

> <U+W>
18.137

> <U>
72.490

> <W>
-54.353

> <W(PB)>
-56.202

> <W(SA)>
1.848

> <Valence>
2.738

> <Coulomb>
69.795

> <VdW>
-0.043

> <VdW6>
-5.334

> <VdW12>
5.290

> <Bond>
0.182

> <Angle>
1.135

> <Pdih>
1.421

> <Idih>
0.000

> <Tether>
0.000

$$$$
VeraChem MOL file


 20 19  0  0  0  0  0  0  0  0999 V2000     
   18.9213   18.4870   20.1529 C   0  0  0  0  0  0  0  0  0  0  0  0
   18.3349   19.3961   20.3393 H   0  0  0  0  0  0  0  0  0  0  0  0
   18.5768   18.0588   19.2025 H   0  0  0  0  0  0  0  0  0  0  0  0
   18.6973   17.7526   20.9355 H   0  0  0  0  0  0  0  0  0  0  0  0
   20.4338   18.7983   20.0822 C   0  0  0  0  0  0  0  0  0  0  0  0
   20.6328   19.3625   19.1602 H   0  0  0  0  0  0  0  0  0  0  0  0
   20.9965   17.8586   19.9901 H   0  0  0  0  0  0  0  0  0  0  0  0
   20.9779   19.6155   21.2817 C   0  0  0  0  0  0  0  0  0  0  0  0
   22.0367   19.8339   21.0894 H   0  0  0  0  0  0  0  0  0  0  0  0
   20.4753   20.5900   21.3397 H   0  0  0  0  0  0  0  0  0  0  0  0
   20.8854   18.8916   22.6418 C   0  0  0  0  0  0  0  0  0  0  0  0
   21.5981   19.3438   23.3362 H   0  0  0  0  0  0  0  0  0  0  0  0
   21.1531   17.8392   22.5189 H   0  0  0  0  0  0  0  0  0  0  0  0
   19.5203   18.9666   23.2989 N   0  3  0  0  0  0  0  0  0  0  0  0
   18.8010   18.5995   22.6599 H   0  0  0  0  0  0  0  0  0  0  0  0
   19.2614   19.9509   23.4670 H   0  0  0  0  0  0  0  0  0  0  0  0
   19.5272   18.1850   24.6055 C   0  0  0  0  0  0  0  0  0  0  0  0
   19.7714   17.1407   24.3990 H   0  0  0  0  0  0  0  0  0  0  0  0
   20.2746   18.6133   25.2769 H   0  0  0  0  0  0  0  0  0  0  0  0
   18.5391   18.2479   25.0668 H   0  0  0  0  0  0  0  0  0  0  0  0
  1  2  1  0  0  0  0
  1  3  1  0  0  0  0
  1  4  1  0  0  0  0
  1  5  1  0  0  0  0
  5  6  1  0  0  0  0
  5  7  1  0  0  0  0
  5  8  1  0  0  0  0
  8  9  1  0  0  0  0
  8 10  1  0  0  0  0
  8 11  1  0  0  0  0
 11 12  1  0  0  0  0
 11 13  1  0  0  0  0
 11 14  1  0  0  0  0
 14 15  1  0  0  0  0
 14 16  1  0  0  0  0
 14 17  1  0  0  0  0
 17 18  1  0  0  0  0
 17 19  1  0  0  0  0
 17 20  1  0  0  0  0
M  END
> <VM2 Rank>
24

> <Conf_Id>
240

> <Probability>
0.08

> <Sum Probability>
99.93

> <Delta G>
3.080

> <G>
57.018

> <E>
34.322

> <-TS>
22.696

> <U+W>
18.226

> <U>
72.042

> <W>
-53.816

> <W(PB)>
-55.689

> <W(SA)>
1.873

> <Valence>
2.428

> <Coulomb>
69.829

> <VdW>
-0.215

> <VdW6>
-4.563

> <VdW12>
4.348

> <Bond>
0.137

> <Angle>
0.936

> <Pdih>
1.356

> <Idih>
0.000

> <Tether>
0.000

$$$$
VeraChem MOL file


 20 19  0  0  0  0  0  0  0  0999 V2000     
   20.4694   20.0201   20.2177 C   0  0  0  0  0  0  0  0  0  0  0  0
   19.5585   20.6079   20.3904 H   0  0  0  0  0  0  0  0  0  0  0  0
   21.1721   20.2034   21.0391 H   0  0  0  0  0  0  0  0  0  0  0  0
   20.9404   20.3994   19.3014 H   0  0  0  0  0  0  0  0  0  0  0  0
   20.1481   18.5153   20.0702 C   0  0  0  0  0  0  0  0  0  0  0  0
   21.0858   17.9470   19.9939 H   0  0  0  0  0  0  0  0  0  0  0  0
   19.6216   18.3610   19.1178 H   0  0  0  0  0  0  0  0  0  0  0  0
   19.2761   17.9303   21.2105 C   0  0  0  0  0  0  0  0  0  0  0  0
   18.3045   18.4404   21.2488 H   0  0  0  0  0  0  0  0  0  0  0  0
   19.0566   16.8828   20.9645 H   0  0  0  0  0  0  0  0  0  0  0  0
   19.9427   17.9580   22.6023 C   0  0  0  0  0  0  0  0  0  0  0  0
   20.9969   17.6845   22.5124 H   0  0  0  0  0  0  0  0  0  0  0  0
   19.4553   17.2217   23.2465 H   0  0  0  0  0  0  0  0  0  0  0  0
   19.8521   19.2951   23.3128 N   0  3  0  0  0  0  0  0  0  0  0  0
   18.8639   19.5572   23.4503 H   0  0  0  0  0  0  0  0  0  0  0  0
   20.2523   20.0366   22.7207 H   0  0  0  0  0  0  0  0  0  0  0  0
   20.5776   19.2252   24.6496 C   0  0  0  0  0  0  0  0  0  0  0  0
   21.6275   18.9788   24.4769 H   0  0  0  0  0  0  0  0  0  0  0  0
   20.5040   20.1937   25.1491 H   0  0  0  0  0  0  0  0  0  0  0  0
   20.1147   18.4550   25.2702 H   0  0  0  0  0  0  0  0  0  0  0  0
  1  2  1  0  0  0  0
  1  3  1  0  0  0  0
  1  4  1  0  0  0  0
  1  5  1  0  0  0  0
  5  6  1  0  0  0  0
  5  7  1  0  0  0  0
  5  8  1  0  0  0  0
  8  9  1  0  0  0  0
  8 10  1  0  0  0  0
  8 11  1  0  0  0  0
 11 12  1  0  0  0  0
 11 13  1  0  0  0  0
 11 14  1  0  0  0  0
 14 15  1  0  0  0  0
 14 16  1  0  0  0  0
 14 17  1  0  0  0  0
 17 18  1  0  0  0  0
 17 19  1  0  0  0  0
 17 20  1  0  0  0  0
M  END
> <VM2 Rank>
25

> <Conf_Id>
256

> <Probability>
0.07

> <Sum Probability>
100.00

> <Delta G>
3.142

> <G>
57.079

> <E>
34.384

> <-TS>
22.695

> <U+W>
18.287

> <U>
72.042

> <W>
-53.754

> <W(PB)>
-55.647

> <W(SA)>
1.893

> <Valence>
2.428

> <Coulomb>
69.828

> <VdW>
-0.215

> <VdW6>
-4.563

> <VdW12>
4.348

> <Bond>
0.137

> <Angle>
0.936

> <Pdih>
1.356

> <Idih>
0.000

> <Tether>
0.000

$$$$
VeraChem MOL file


 20 19  0  0  0  0  0  0  0  0999 V2000     
   19.0668   18.1605   20.2301 C   0  0  0  0  0  0  0  0  0  0  0  0
   18.5458   18.9471   19.6689 H   0  0  0  0  0  0  0  0  0  0  0  0
   19.0138   17.2393   19.6355 H   0  0  0  0  0  0  0  0  0  0  0  0
   18.5129   17.9867   21.1585 H   0  0  0  0  0  0  0  0  0  0  0  0
   20.5408   18.5517   20.4906 C   0  0  0  0  0  0  0  0  0  0  0  0
   21.0309   18.6878   19.5162 H   0  0  0  0  0  0  0  0  0  0  0  0
   21.0773   17.7298   20.9843 H   0  0  0  0  0  0  0  0  0  0  0  0
   20.6964   19.8604   21.3064 C   0  0  0  0  0  0  0  0  0  0  0  0
   21.6316   20.3457   20.9970 H   0  0  0  0  0  0  0  0  0  0  0  0
   19.8970   20.5677   21.0492 H   0  0  0  0  0  0  0  0  0  0  0  0
   20.7684   19.6785   22.8412 C   0  0  0  0  0  0  0  0  0  0  0  0
   20.9342   20.6622   23.2879 H   0  0  0  0  0  0  0  0  0  0  0  0
   21.6218   19.0496   23.1064 H   0  0  0  0  0  0  0  0  0  0  0  0
   19.5314   19.1009   23.5076 N   0  3  0  0  0  0  0  0  0  0  0  0
   18.6880   19.3475   22.9694 H   0  0  0  0  0  0  0  0  0  0  0  0
   19.3995   19.5448   24.4298 H   0  0  0  0  0  0  0  0  0  0  0  0
   19.6623   17.5921   23.6872 C   0  0  0  0  0  0  0  0  0  0  0  0
   18.7609   17.2094   24.1708 H   0  0  0  0  0  0  0  0  0  0  0  0
   19.7864   17.1176   22.7124 H   0  0  0  0  0  0  0  0  0  0  0  0
   20.5323   17.3802   24.3125 H   0  0  0  0  0  0  0  0  0  0  0  0
  1  2  1  0  0  0  0
  1  3  1  0  0  0  0
  1  4  1  0  0  0  0
  1  5  1  0  0  0  0
  5  6  1  0  0  0  0
  5  7  1  0  0  0  0
  5  8  1  0  0  0  0
  8  9  1  0  0  0  0
  8 10  1  0  0  0  0
  8 11  1  0  0  0  0
 11 12  1  0  0  0  0
 11 13  1  0  0  0  0
 11 14  1  0  0  0  0
 14 15  1  0  0  0  0
 14 16  1  0  0  0  0
 14 17  1  0  0  0  0
 17 18  1  0  0  0  0
 17 19  1  0  0  0  0
 17 20  1  0  0  0  0
M  END
> <VM2 Rank>
26

> <Conf_Id>
443

> <Probability>
0.00

> <Sum Probability>
100.00

> <Delta G>
4.837

> <G>
58.774

> <E>
35.631

> <-TS>
23.143

> <U+W>
19.535

> <U>
74.442

> <W>
-54.908

> <W(PB)>
-56.715

> <W(SA)>
1.807

> <Valence>
5.113

> <Coulomb>
69.460

> <VdW>
-0.131

> <VdW6>
-5.678

> <VdW12>
5.547

> <Bond>
0.188

> <Angle>
1.349

> <Pdih>
3.576

> <Idih>
0.000

> <Tether>
0.000

$$$$
