@<TRIPOS>MOLECULE
guest-s21_vm2.mol2 : vm2 ligand conformer 1
          22          21           1
SMALL
USER_CHARGES
 
@<TRIPOS>ATOM
       1    C1      19.831436   19.134098   26.187472 C.2        1 MOL1         0.6145
       2    O1      20.058743   20.237246   26.643355 O.co2      1 MOL1        -0.6735
       3    O2      20.174473   18.099850   26.725141 O.co2      1 MOL1        -0.6735
       4    C2      19.094614   19.043256   24.855911 C.3        1 MOL1        -0.1985
       5    H1      18.397967   19.887928   24.793671 H          1 MOL1         0.0740
       6    H2      18.492885   18.126439   24.861323 H          1 MOL1         0.0740
       7    C3      20.050609   19.047985   23.637674 C.3        1 MOL1        -0.1882
       8    H3      20.654842   19.965703   23.654124 H          1 MOL1         0.0742
       9    H4      20.749639   18.204258   23.721673 H          1 MOL1         0.0742
      10    C4      19.280785   18.955370   22.302505 C.3        1 MOL1        -0.1880
      11    H5      18.582094   19.799507   22.222272 H          1 MOL1         0.0742
      12    H6      18.676844   18.037618   22.289845 H          1 MOL1         0.0742
      13    C5      20.236308   18.960253   21.089971 C.3        1 MOL1        -0.1880
      14    H7      20.840535   19.877795   21.102346 H          1 MOL1         0.0742
      15    H8      20.935093   18.116182   21.169778 H          1 MOL1         0.0742
      16    C6      19.467662   18.867903   19.755160 C.3        1 MOL1        -0.1856
      17    H9      18.768963   19.711806   19.670758 H          1 MOL1         0.0742
      18    H10     18.863500   17.950202   19.738196 H          1 MOL1         0.0742
      19    C7      20.425370   18.873039   18.546812 C.3        1 MOL1        -0.2871
      20    H11     21.020545   19.795276   18.521251 H          1 MOL1         0.0754
      21    H12     19.862430   18.806832   17.606702 H          1 MOL1         0.0754
      22    H13     21.115798   18.020444   18.589208 H          1 MOL1         0.0754
@<TRIPOS>BOND
    1     1     2    1
    2     1     3    2
    3     1     4    1
    4     4     5    1
    5     4     6    1
    6     4     7    1
    7     7     8    1
    8     7     9    1
    9     7    10    1
   10    10    11    1
   11    10    12    1
   12    10    13    1
   13    13    14    1
   14    13    15    1
   15    13    16    1
   16    16    17    1
   17    16    18    1
   18    16    19    1
   19    19    20    1
   20    19    21    1
   21    19    22    1
@<TRIPOS>SUBSTRUCTURE
       1 MOL1            1 RESIDUE      1      MOL     
@<SCITEGIC>MOL_PROPERTY
VM2 Rank
SciTegic.value.IntegerValue
1

@<SCITEGIC>MOL_PROPERTY
Conf_Id
SciTegic.value.IntegerValue
394

@<SCITEGIC>MOL_PROPERTY
Probability
SciTegic.value.DoubleValue
32.50

@<SCITEGIC>MOL_PROPERTY
Sum Probability
SciTegic.value.DoubleValue
32.50

@<SCITEGIC>MOL_PROPERTY
Delta G
SciTegic.value.DoubleValue
0.000

@<SCITEGIC>MOL_PROPERTY
G
SciTegic.value.DoubleValue
-16.998

@<SCITEGIC>MOL_PROPERTY
E
SciTegic.value.DoubleValue
-36.566

@<SCITEGIC>MOL_PROPERTY
-TS
SciTegic.value.DoubleValue
19.568

@<SCITEGIC>MOL_PROPERTY
U+W
SciTegic.value.DoubleValue
-54.451

@<SCITEGIC>MOL_PROPERTY
U
SciTegic.value.DoubleValue
5.779

@<SCITEGIC>MOL_PROPERTY
W
SciTegic.value.DoubleValue
-60.230

@<SCITEGIC>MOL_PROPERTY
W(PB)
SciTegic.value.DoubleValue
-62.557

@<SCITEGIC>MOL_PROPERTY
W(SA)
SciTegic.value.DoubleValue
2.328

@<SCITEGIC>MOL_PROPERTY
Valence
SciTegic.value.DoubleValue
7.101

@<SCITEGIC>MOL_PROPERTY
Coulomb
SciTegic.value.DoubleValue
-2.079

@<SCITEGIC>MOL_PROPERTY
VdW
SciTegic.value.DoubleValue
0.757

@<SCITEGIC>MOL_PROPERTY
VdW6
SciTegic.value.DoubleValue
-6.496

@<SCITEGIC>MOL_PROPERTY
VdW12
SciTegic.value.DoubleValue
7.253

@<SCITEGIC>MOL_PROPERTY
Bond
SciTegic.value.DoubleValue
0.100

@<SCITEGIC>MOL_PROPERTY
Angle
SciTegic.value.DoubleValue
2.262

@<SCITEGIC>MOL_PROPERTY
Pdih
SciTegic.value.DoubleValue
4.739

@<SCITEGIC>MOL_PROPERTY
Idih
SciTegic.value.DoubleValue
0.001

@<SCITEGIC>MOL_PROPERTY
Tether
SciTegic.value.DoubleValue
0.000

@<TRIPOS>MOLECULE
guest-s21_vm2.mol2 : vm2 ligand conformer 2
          22          21           1
SMALL
USER_CHARGES
 
@<TRIPOS>ATOM
       1    C1      19.729009   18.854911   25.965555 C.2        1 MOL1         0.6145
       2    O1      19.212949   19.642960   26.733149 O.co2      1 MOL1        -0.6735
       3    O2      20.523195   18.002178   26.309966 O.co2      1 MOL1        -0.6735
       4    C2      19.378322   18.956967   24.485426 C.3        1 MOL1        -0.1985
       5    H1      18.343448   19.310422   24.404601 H          1 MOL1         0.0740
       6    H2      19.410759   17.945569   24.064947 H          1 MOL1         0.0740
       7    C3      20.329280   19.903425   23.707590 C.3        1 MOL1        -0.1882
       8    H3      20.343067   20.880385   24.210382 H          1 MOL1         0.0742
       9    H4      21.355694   19.514460   23.757695 H          1 MOL1         0.0742
      10    C4      19.920696   20.112172   22.229997 C.3        1 MOL1        -0.1880
      11    H5      20.573478   20.880373   21.793272 H          1 MOL1         0.0742
      12    H6      18.897880   20.510565   22.183892 H          1 MOL1         0.0742
      13    C5      20.017972   18.825921   21.377606 C.3        1 MOL1        -0.1880
      14    H7      21.026872   18.400692   21.468190 H          1 MOL1         0.0742
      15    H8      19.316278   18.071273   21.755859 H          1 MOL1         0.0742
      16    C6      19.707619   19.102360   19.891453 C.3        1 MOL1        -0.1856
      17    H9      20.409984   19.850589   19.498681 H          1 MOL1         0.0742
      18    H10     18.699737   19.529830   19.797081 H          1 MOL1         0.0742
      19    C7      19.800959   17.818107   19.043257 C.3        1 MOL1        -0.2871
      20    H11     19.085435   17.062839   19.393956 H          1 MOL1         0.0754
      21    H12     20.808809   17.385720   19.094962 H          1 MOL1         0.0754
      22    H13     19.577944   18.032987   17.990089 H          1 MOL1         0.0754
@<TRIPOS>BOND
    1     1     2    1
    2     1     3    2
    3     1     4    1
    4     4     5    1
    5     4     6    1
    6     4     7    1
    7     7     8    1
    8     7     9    1
    9     7    10    1
   10    10    11    1
   11    10    12    1
   12    10    13    1
   13    13    14    1
   14    13    15    1
   15    13    16    1
   16    16    17    1
   17    16    18    1
   18    16    19    1
   19    19    20    1
   20    19    21    1
   21    19    22    1
@<TRIPOS>SUBSTRUCTURE
       1 MOL1            1 RESIDUE      1      MOL     
@<SCITEGIC>MOL_PROPERTY
VM2 Rank
SciTegic.value.IntegerValue
2

@<SCITEGIC>MOL_PROPERTY
Conf_Id
SciTegic.value.IntegerValue
231

@<SCITEGIC>MOL_PROPERTY
Probability
SciTegic.value.DoubleValue
8.38

@<SCITEGIC>MOL_PROPERTY
Sum Probability
SciTegic.value.DoubleValue
40.88

@<SCITEGIC>MOL_PROPERTY
Delta G
SciTegic.value.DoubleValue
0.808

@<SCITEGIC>MOL_PROPERTY
G
SciTegic.value.DoubleValue
-16.190

@<SCITEGIC>MOL_PROPERTY
E
SciTegic.value.DoubleValue
-35.867

@<SCITEGIC>MOL_PROPERTY
-TS
SciTegic.value.DoubleValue
19.677

@<SCITEGIC>MOL_PROPERTY
U+W
SciTegic.value.DoubleValue
-53.752

@<SCITEGIC>MOL_PROPERTY
U
SciTegic.value.DoubleValue
6.782

@<SCITEGIC>MOL_PROPERTY
W
SciTegic.value.DoubleValue
-60.534

@<SCITEGIC>MOL_PROPERTY
W(PB)
SciTegic.value.DoubleValue
-62.847

@<SCITEGIC>MOL_PROPERTY
W(SA)
SciTegic.value.DoubleValue
2.313

@<SCITEGIC>MOL_PROPERTY
Valence
SciTegic.value.DoubleValue
7.621

@<SCITEGIC>MOL_PROPERTY
Coulomb
SciTegic.value.DoubleValue
-1.711

@<SCITEGIC>MOL_PROPERTY
VdW
SciTegic.value.DoubleValue
0.872

@<SCITEGIC>MOL_PROPERTY
VdW6
SciTegic.value.DoubleValue
-7.188

@<SCITEGIC>MOL_PROPERTY
VdW12
SciTegic.value.DoubleValue
8.060

@<SCITEGIC>MOL_PROPERTY
Bond
SciTegic.value.DoubleValue
0.142

@<SCITEGIC>MOL_PROPERTY
Angle
SciTegic.value.DoubleValue
2.504

@<SCITEGIC>MOL_PROPERTY
Pdih
SciTegic.value.DoubleValue
4.974

@<SCITEGIC>MOL_PROPERTY
Idih
SciTegic.value.DoubleValue
0.001

@<SCITEGIC>MOL_PROPERTY
Tether
SciTegic.value.DoubleValue
0.000

@<TRIPOS>MOLECULE
guest-s21_vm2.mol2 : vm2 ligand conformer 3
          22          21           1
SMALL
USER_CHARGES
 
@<TRIPOS>ATOM
       1    C1      20.133430   19.130249   25.955958 C.2        1 MOL1         0.6145
       2    O1      19.613767   19.915825   26.723656 O.co2      1 MOL1        -0.6735
       3    O2      20.647935   18.086914   26.307015 O.co2      1 MOL1        -0.6735
       4    C2      20.118901   19.461344   24.467891 C.3        1 MOL1        -0.1985
       5    H1      21.034083   19.051061   24.026426 H          1 MOL1         0.0740
       6    H2      20.166245   20.551696   24.361518 H          1 MOL1         0.0740
       7    C3      18.865429   18.906874   23.742286 C.3        1 MOL1        -0.1882
       8    H3      18.853145   17.810701   23.817005 H          1 MOL1         0.0742
       9    H4      17.968027   19.263450   24.266660 H          1 MOL1         0.0742
      10    C4      18.773014   19.330871   22.257200 C.3        1 MOL1        -0.1880
      11    H5      18.775483   20.427243   22.186783 H          1 MOL1         0.0742
      12    H6      17.805443   18.995990   21.858893 H          1 MOL1         0.0742
      13    C5      19.906004   18.749690   21.380253 C.3        1 MOL1        -0.1880
      14    H7      20.877000   19.133664   21.718889 H          1 MOL1         0.0742
      15    H8      19.934960   17.657387   21.494012 H          1 MOL1         0.0742
      16    C6      19.714466   19.107065   19.891302 C.3        1 MOL1        -0.1856
      17    H9      19.683090   20.199164   19.773826 H          1 MOL1         0.0742
      18    H10     18.748656   18.719932   19.538070 H          1 MOL1         0.0742
      19    C7      20.847054   18.530167   19.018438 C.3        1 MOL1        -0.2871
      20    H11     21.822872   18.925993   19.329074 H          1 MOL1         0.0754
      21    H12     20.694820   18.793282   17.963606 H          1 MOL1         0.0754
      22    H13     20.881595   17.435353   19.093154 H          1 MOL1         0.0754
@<TRIPOS>BOND
    1     1     2    1
    2     1     3    2
    3     1     4    1
    4     4     5    1
    5     4     6    1
    6     4     7    1
    7     7     8    1
    8     7     9    1
    9     7    10    1
   10    10    11    1
   11    10    12    1
   12    10    13    1
   13    13    14    1
   14    13    15    1
   15    13    16    1
   16    16    17    1
   17    16    18    1
   18    16    19    1
   19    19    20    1
   20    19    21    1
   21    19    22    1
@<TRIPOS>SUBSTRUCTURE
       1 MOL1            1 RESIDUE      1      MOL     
@<SCITEGIC>MOL_PROPERTY
VM2 Rank
SciTegic.value.IntegerValue
3

@<SCITEGIC>MOL_PROPERTY
Conf_Id
SciTegic.value.IntegerValue
110

@<SCITEGIC>MOL_PROPERTY
Probability
SciTegic.value.DoubleValue
7.52

@<SCITEGIC>MOL_PROPERTY
Sum Probability
SciTegic.value.DoubleValue
48.40

@<SCITEGIC>MOL_PROPERTY
Delta G
SciTegic.value.DoubleValue
0.873

@<SCITEGIC>MOL_PROPERTY
G
SciTegic.value.DoubleValue
-16.125

@<SCITEGIC>MOL_PROPERTY
E
SciTegic.value.DoubleValue
-35.802

@<SCITEGIC>MOL_PROPERTY
-TS
SciTegic.value.DoubleValue
19.677

@<SCITEGIC>MOL_PROPERTY
U+W
SciTegic.value.DoubleValue
-53.687

@<SCITEGIC>MOL_PROPERTY
U
SciTegic.value.DoubleValue
6.782

@<SCITEGIC>MOL_PROPERTY
W
SciTegic.value.DoubleValue
-60.469

@<SCITEGIC>MOL_PROPERTY
W(PB)
SciTegic.value.DoubleValue
-62.789

@<SCITEGIC>MOL_PROPERTY
W(SA)
SciTegic.value.DoubleValue
2.320

@<SCITEGIC>MOL_PROPERTY
Valence
SciTegic.value.DoubleValue
7.621

@<SCITEGIC>MOL_PROPERTY
Coulomb
SciTegic.value.DoubleValue
-1.711

@<SCITEGIC>MOL_PROPERTY
VdW
SciTegic.value.DoubleValue
0.872

@<SCITEGIC>MOL_PROPERTY
VdW6
SciTegic.value.DoubleValue
-7.188

@<SCITEGIC>MOL_PROPERTY
VdW12
SciTegic.value.DoubleValue
8.060

@<SCITEGIC>MOL_PROPERTY
Bond
SciTegic.value.DoubleValue
0.142

@<SCITEGIC>MOL_PROPERTY
Angle
SciTegic.value.DoubleValue
2.504

@<SCITEGIC>MOL_PROPERTY
Pdih
SciTegic.value.DoubleValue
4.974

@<SCITEGIC>MOL_PROPERTY
Idih
SciTegic.value.DoubleValue
0.001

@<SCITEGIC>MOL_PROPERTY
Tether
SciTegic.value.DoubleValue
0.000

@<TRIPOS>MOLECULE
guest-s21_vm2.mol2 : vm2 ligand conformer 4
          22          21           1
SMALL
USER_CHARGES
 
@<TRIPOS>ATOM
       1    C1      19.996138   19.032815   25.987445 C.2        1 MOL1         0.6145
       2    O1      20.322376   20.080000   26.510361 O.co2      1 MOL1        -0.6735
       3    O2      20.420730   17.947641   26.331790 O.co2      1 MOL1        -0.6735
       4    C2      19.015458   19.085274   24.821323 C.3        1 MOL1        -0.1985
       5    H1      18.331768   19.926149   24.988990 H          1 MOL1         0.0740
       6    H2      18.413435   18.168847   24.840835 H          1 MOL1         0.0740
       7    C3      19.719122   19.232741   23.449680 C.3        1 MOL1        -0.1882
       8    H3      20.324539   20.149678   23.449420 H          1 MOL1         0.0742
       9    H4      20.411599   18.391552   23.314242 H          1 MOL1         0.0742
      10    C4      18.702191   19.278673   22.285721 C.3        1 MOL1        -0.1880
      11    H5      17.973571   20.077687   22.479761 H          1 MOL1         0.0742
      12    H6      18.132668   18.339737   22.253603 H          1 MOL1         0.0742
      13    C5      19.354959   19.535652   20.906805 C.3        1 MOL1        -0.1880
      14    H7      18.557014   19.677749   20.165174 H          1 MOL1         0.0742
      15    H8      19.921467   20.476432   20.937345 H          1 MOL1         0.0742
      16    C6      20.276727   18.387470   20.437432 C.3        1 MOL1        -0.1856
      17    H9      19.725013   17.437511   20.457305 H          1 MOL1         0.0742
      18    H10     21.126417   18.279338   21.124231 H          1 MOL1         0.0742
      19    C7      20.812299   18.638735   19.013443 C.3        1 MOL1        -0.2871
      20    H11     21.467220   17.816926   18.695987 H          1 MOL1         0.0754
      21    H12     21.392121   19.570071   18.970959 H          1 MOL1         0.0754
      22    H13     19.988938   18.713981   18.291106 H          1 MOL1         0.0754
@<TRIPOS>BOND
    1     1     2    1
    2     1     3    2
    3     1     4    1
    4     4     5    1
    5     4     6    1
    6     4     7    1
    7     7     8    1
    8     7     9    1
    9     7    10    1
   10    10    11    1
   11    10    12    1
   12    10    13    1
   13    13    14    1
   14    13    15    1
   15    13    16    1
   16    16    17    1
   17    16    18    1
   18    16    19    1
   19    19    20    1
   20    19    21    1
   21    19    22    1
@<TRIPOS>SUBSTRUCTURE
       1 MOL1            1 RESIDUE      1      MOL     
@<SCITEGIC>MOL_PROPERTY
VM2 Rank
SciTegic.value.IntegerValue
4

@<SCITEGIC>MOL_PROPERTY
Conf_Id
SciTegic.value.IntegerValue
132

@<SCITEGIC>MOL_PROPERTY
Probability
SciTegic.value.DoubleValue
7.46

@<SCITEGIC>MOL_PROPERTY
Sum Probability
SciTegic.value.DoubleValue
55.85

@<SCITEGIC>MOL_PROPERTY
Delta G
SciTegic.value.DoubleValue
0.878

@<SCITEGIC>MOL_PROPERTY
G
SciTegic.value.DoubleValue
-16.120

@<SCITEGIC>MOL_PROPERTY
E
SciTegic.value.DoubleValue
-35.794

@<SCITEGIC>MOL_PROPERTY
-TS
SciTegic.value.DoubleValue
19.673

@<SCITEGIC>MOL_PROPERTY
U+W
SciTegic.value.DoubleValue
-53.679

@<SCITEGIC>MOL_PROPERTY
U
SciTegic.value.DoubleValue
7.026

@<SCITEGIC>MOL_PROPERTY
W
SciTegic.value.DoubleValue
-60.705

@<SCITEGIC>MOL_PROPERTY
W(PB)
SciTegic.value.DoubleValue
-63.009

@<SCITEGIC>MOL_PROPERTY
W(SA)
SciTegic.value.DoubleValue
2.304

@<SCITEGIC>MOL_PROPERTY
Valence
SciTegic.value.DoubleValue
7.638

@<SCITEGIC>MOL_PROPERTY
Coulomb
SciTegic.value.DoubleValue
-1.488

@<SCITEGIC>MOL_PROPERTY
VdW
SciTegic.value.DoubleValue
0.877

@<SCITEGIC>MOL_PROPERTY
VdW6
SciTegic.value.DoubleValue
-7.165

@<SCITEGIC>MOL_PROPERTY
VdW12
SciTegic.value.DoubleValue
8.042

@<SCITEGIC>MOL_PROPERTY
Bond
SciTegic.value.DoubleValue
0.134

@<SCITEGIC>MOL_PROPERTY
Angle
SciTegic.value.DoubleValue
2.513

@<SCITEGIC>MOL_PROPERTY
Pdih
SciTegic.value.DoubleValue
4.990

@<SCITEGIC>MOL_PROPERTY
Idih
SciTegic.value.DoubleValue
0.001

@<SCITEGIC>MOL_PROPERTY
Tether
SciTegic.value.DoubleValue
0.000

@<TRIPOS>MOLECULE
guest-s21_vm2.mol2 : vm2 ligand conformer 5
          22          21           1
SMALL
USER_CHARGES
 
@<TRIPOS>ATOM
       1    C1      19.600202   19.027701   25.980236 C.2        1 MOL1         0.6145
       2    O1      19.227798   20.065914   26.490042 O.co2      1 MOL1        -0.6735
       3    O2      19.192532   17.931672   26.310356 O.co2      1 MOL1        -0.6735
       4    C2      20.620706   19.106010   24.850294 C.3        1 MOL1        -0.1985
       5    H1      21.245164   18.205476   24.892025 H          1 MOL1         0.0740
       6    H2      21.275877   19.964246   25.042122 H          1 MOL1         0.0740
       7    C3      19.963491   19.235767   23.454040 C.3        1 MOL1        -0.1882
       8    H3      19.298397   18.376966   23.294103 H          1 MOL1         0.0742
       9    H4      19.334918   20.136704   23.431428 H          1 MOL1         0.0742
      10    C4      21.020285   19.308535   22.327558 C.3        1 MOL1        -0.1880
      11    H5      21.614660   18.384639   22.316440 H          1 MOL1         0.0742
      12    H6      21.720535   20.126006   22.547444 H          1 MOL1         0.0742
      13    C5      20.411335   19.549268   20.925849 C.3        1 MOL1        -0.1880
      14    H7      19.820093   20.475158   20.935475 H          1 MOL1         0.0742
      15    H8      21.231617   19.712175   20.213441 H          1 MOL1         0.0742
      16    C6      19.536934   18.377987   20.424041 C.3        1 MOL1        -0.1856
      17    H9      18.666114   18.247665   21.079821 H          1 MOL1         0.0742
      18    H10     20.111843   17.442532   20.464160 H          1 MOL1         0.0742
      19    C7      19.046716   18.616146   18.981585 C.3        1 MOL1        -0.2871
      20    H11     18.445045   19.532289   18.917870 H          1 MOL1         0.0754
      21    H12     18.425000   17.777940   18.641074 H          1 MOL1         0.0754
      22    H13     19.893354   18.712918   18.289346 H          1 MOL1         0.0754
@<TRIPOS>BOND
    1     1     2    1
    2     1     3    2
    3     1     4    1
    4     4     5    1
    5     4     6    1
    6     4     7    1
    7     7     8    1
    8     7     9    1
    9     7    10    1
   10    10    11    1
   11    10    12    1
   12    10    13    1
   13    13    14    1
   14    13    15    1
   15    13    16    1
   16    16    17    1
   17    16    18    1
   18    16    19    1
   19    19    20    1
   20    19    21    1
   21    19    22    1
@<TRIPOS>SUBSTRUCTURE
       1 MOL1            1 RESIDUE      1      MOL     
@<SCITEGIC>MOL_PROPERTY
VM2 Rank
SciTegic.value.IntegerValue
5

@<SCITEGIC>MOL_PROPERTY
Conf_Id
SciTegic.value.IntegerValue
494

@<SCITEGIC>MOL_PROPERTY
Probability
SciTegic.value.DoubleValue
7.06

@<SCITEGIC>MOL_PROPERTY
Sum Probability
SciTegic.value.DoubleValue
62.91

@<SCITEGIC>MOL_PROPERTY
Delta G
SciTegic.value.DoubleValue
0.910

@<SCITEGIC>MOL_PROPERTY
G
SciTegic.value.DoubleValue
-16.088

@<SCITEGIC>MOL_PROPERTY
E
SciTegic.value.DoubleValue
-35.761

@<SCITEGIC>MOL_PROPERTY
-TS
SciTegic.value.DoubleValue
19.674

@<SCITEGIC>MOL_PROPERTY
U+W
SciTegic.value.DoubleValue
-53.646

@<SCITEGIC>MOL_PROPERTY
U
SciTegic.value.DoubleValue
7.026

@<SCITEGIC>MOL_PROPERTY
W
SciTegic.value.DoubleValue
-60.672

@<SCITEGIC>MOL_PROPERTY
W(PB)
SciTegic.value.DoubleValue
-62.965

@<SCITEGIC>MOL_PROPERTY
W(SA)
SciTegic.value.DoubleValue
2.292

@<SCITEGIC>MOL_PROPERTY
Valence
SciTegic.value.DoubleValue
7.638

@<SCITEGIC>MOL_PROPERTY
Coulomb
SciTegic.value.DoubleValue
-1.489

@<SCITEGIC>MOL_PROPERTY
VdW
SciTegic.value.DoubleValue
0.877

@<SCITEGIC>MOL_PROPERTY
VdW6
SciTegic.value.DoubleValue
-7.165

@<SCITEGIC>MOL_PROPERTY
VdW12
SciTegic.value.DoubleValue
8.042

@<SCITEGIC>MOL_PROPERTY
Bond
SciTegic.value.DoubleValue
0.134

@<SCITEGIC>MOL_PROPERTY
Angle
SciTegic.value.DoubleValue
2.513

@<SCITEGIC>MOL_PROPERTY
Pdih
SciTegic.value.DoubleValue
4.990

@<SCITEGIC>MOL_PROPERTY
Idih
SciTegic.value.DoubleValue
0.001

@<SCITEGIC>MOL_PROPERTY
Tether
SciTegic.value.DoubleValue
0.000

@<TRIPOS>MOLECULE
guest-s21_vm2.mol2 : vm2 ligand conformer 6
          22          21           1
SMALL
USER_CHARGES
 
@<TRIPOS>ATOM
       1    C1      19.732852   19.223274   26.094722 C.2        1 MOL1         0.6145
       2    O1      20.138778   20.291456   26.507836 O.co2      1 MOL1        -0.6735
       3    O2      19.790637   18.189681   26.730963 O.co2      1 MOL1        -0.6735
       4    C2      19.137857   19.172899   24.691992 C.3        1 MOL1        -0.1985
       5    H1      18.646170   20.133310   24.495749 H          1 MOL1         0.0740
       6    H2      18.358661   18.401310   24.679825 H          1 MOL1         0.0740
       7    C3      20.195964   18.881101   23.599555 C.3        1 MOL1        -0.1882
       8    H3      20.975165   19.655232   23.632935 H          1 MOL1         0.0742
       9    H4      20.688118   17.923241   23.818186 H          1 MOL1         0.0742
      10    C4      19.568683   18.835109   22.189325 C.3        1 MOL1        -0.1880
      11    H5      19.073980   19.793426   21.984229 H          1 MOL1         0.0742
      12    H6      18.791763   18.059037   22.158326 H          1 MOL1         0.0742
      13    C5      20.629546   18.547334   21.102117 C.3        1 MOL1        -0.1880
      14    H7      21.380762   19.348944   21.096407 H          1 MOL1         0.0742
      15    H8      21.163497   17.622407   21.359683 H          1 MOL1         0.0742
      16    C6      20.030664   18.389923   19.685123 C.3        1 MOL1        -0.1856
      17    H9      19.283257   17.584507   19.685440 H          1 MOL1         0.0742
      18    H10     20.827966   18.072914   18.998790 H          1 MOL1         0.0742
      19    C7      19.395018   19.688223   19.142369 C.3        1 MOL1        -0.2871
      20    H11     18.517712   19.981883   19.732115 H          1 MOL1         0.0754
      21    H12     19.065949   19.549539   18.104390 H          1 MOL1         0.0754
      22    H13     20.115760   20.516070   19.160649 H          1 MOL1         0.0754
@<TRIPOS>BOND
    1     1     2    1
    2     1     3    2
    3     1     4    1
    4     4     5    1
    5     4     6    1
    6     4     7    1
    7     7     8    1
    8     7     9    1
    9     7    10    1
   10    10    11    1
   11    10    12    1
   12    10    13    1
   13    13    14    1
   14    13    15    1
   15    13    16    1
   16    16    17    1
   17    16    18    1
   18    16    19    1
   19    19    20    1
   20    19    21    1
   21    19    22    1
@<TRIPOS>SUBSTRUCTURE
       1 MOL1            1 RESIDUE      1      MOL     
@<SCITEGIC>MOL_PROPERTY
VM2 Rank
SciTegic.value.IntegerValue
6

@<SCITEGIC>MOL_PROPERTY
Conf_Id
SciTegic.value.IntegerValue
422

@<SCITEGIC>MOL_PROPERTY
Probability
SciTegic.value.DoubleValue
6.48

@<SCITEGIC>MOL_PROPERTY
Sum Probability
SciTegic.value.DoubleValue
69.39

@<SCITEGIC>MOL_PROPERTY
Delta G
SciTegic.value.DoubleValue
0.962

@<SCITEGIC>MOL_PROPERTY
G
SciTegic.value.DoubleValue
-16.036

@<SCITEGIC>MOL_PROPERTY
E
SciTegic.value.DoubleValue
-35.714

@<SCITEGIC>MOL_PROPERTY
-TS
SciTegic.value.DoubleValue
19.677

@<SCITEGIC>MOL_PROPERTY
U+W
SciTegic.value.DoubleValue
-53.599

@<SCITEGIC>MOL_PROPERTY
U
SciTegic.value.DoubleValue
6.751

@<SCITEGIC>MOL_PROPERTY
W
SciTegic.value.DoubleValue
-60.350

@<SCITEGIC>MOL_PROPERTY
W(PB)
SciTegic.value.DoubleValue
-62.659

@<SCITEGIC>MOL_PROPERTY
W(SA)
SciTegic.value.DoubleValue
2.309

@<SCITEGIC>MOL_PROPERTY
Valence
SciTegic.value.DoubleValue
7.602

@<SCITEGIC>MOL_PROPERTY
Coulomb
SciTegic.value.DoubleValue
-1.744

@<SCITEGIC>MOL_PROPERTY
VdW
SciTegic.value.DoubleValue
0.893

@<SCITEGIC>MOL_PROPERTY
VdW6
SciTegic.value.DoubleValue
-7.110

@<SCITEGIC>MOL_PROPERTY
VdW12
SciTegic.value.DoubleValue
8.004

@<SCITEGIC>MOL_PROPERTY
Bond
SciTegic.value.DoubleValue
0.131

@<SCITEGIC>MOL_PROPERTY
Angle
SciTegic.value.DoubleValue
2.489

@<SCITEGIC>MOL_PROPERTY
Pdih
SciTegic.value.DoubleValue
4.981

@<SCITEGIC>MOL_PROPERTY
Idih
SciTegic.value.DoubleValue
0.001

@<SCITEGIC>MOL_PROPERTY
Tether
SciTegic.value.DoubleValue
0.000

@<TRIPOS>MOLECULE
guest-s21_vm2.mol2 : vm2 ligand conformer 7
          22          21           1
SMALL
USER_CHARGES
 
@<TRIPOS>ATOM
       1    C1      19.743457   19.027910   26.102215 C.2        1 MOL1         0.6145
       2    O1      19.687085   20.107316   26.657338 O.co2      1 MOL1        -0.6735
       3    O2      20.260256   18.044329   26.594087 O.co2      1 MOL1        -0.6735
       4    C2      19.152261   18.906601   24.702222 C.3        1 MOL1        -0.1985
       5    H1      18.294473   19.586490   24.634431 H          1 MOL1         0.0740
       6    H2      18.767800   17.886615   24.581916 H          1 MOL1         0.0740
       7    C3      20.177212   19.226521   23.586303 C.3        1 MOL1        -0.1882
       8    H3      20.562293   20.245753   23.729100 H          1 MOL1         0.0742
       9    H4      21.035211   18.545760   23.675466 H          1 MOL1         0.0742
      10    C4      19.554452   19.096763   22.179293 C.3        1 MOL1        -0.1880
      11    H5      18.698508   19.779883   22.092333 H          1 MOL1         0.0742
      12    H6      19.166829   18.077839   22.050026 H          1 MOL1         0.0742
      13    C5      20.582583   19.413395   21.068910 C.3        1 MOL1        -0.1880
      14    H7      21.012570   20.407482   21.252858 H          1 MOL1         0.0742
      15    H8      21.415906   18.699423   21.121357 H          1 MOL1         0.0742
      16    C6      19.976105   19.396565   19.646515 C.3        1 MOL1        -0.1856
      17    H9      20.737374   19.744451   18.934699 H          1 MOL1         0.0742
      18    H10     19.146129   20.114251   19.588403 H          1 MOL1         0.0742
      19    C7      19.486590   17.999600   19.207117 C.3        1 MOL1        -0.2871
      20    H11     20.292401   17.258222   19.285615 H          1 MOL1         0.0754
      21    H12     19.148816   18.022270   18.162936 H          1 MOL1         0.0754
      22    H13     18.643654   17.658857   19.821166 H          1 MOL1         0.0754
@<TRIPOS>BOND
    1     1     2    1
    2     1     3    2
    3     1     4    1
    4     4     5    1
    5     4     6    1
    6     4     7    1
    7     7     8    1
    8     7     9    1
    9     7    10    1
   10    10    11    1
   11    10    12    1
   12    10    13    1
   13    13    14    1
   14    13    15    1
   15    13    16    1
   16    16    17    1
   17    16    18    1
   18    16    19    1
   19    19    20    1
   20    19    21    1
   21    19    22    1
@<TRIPOS>SUBSTRUCTURE
       1 MOL1            1 RESIDUE      1      MOL     
@<SCITEGIC>MOL_PROPERTY
VM2 Rank
SciTegic.value.IntegerValue
7

@<SCITEGIC>MOL_PROPERTY
Conf_Id
SciTegic.value.IntegerValue
421

@<SCITEGIC>MOL_PROPERTY
Probability
SciTegic.value.DoubleValue
6.12

@<SCITEGIC>MOL_PROPERTY
Sum Probability
SciTegic.value.DoubleValue
75.51

@<SCITEGIC>MOL_PROPERTY
Delta G
SciTegic.value.DoubleValue
0.995

@<SCITEGIC>MOL_PROPERTY
G
SciTegic.value.DoubleValue
-16.003

@<SCITEGIC>MOL_PROPERTY
E
SciTegic.value.DoubleValue
-35.680

@<SCITEGIC>MOL_PROPERTY
-TS
SciTegic.value.DoubleValue
19.677

@<SCITEGIC>MOL_PROPERTY
U+W
SciTegic.value.DoubleValue
-53.565

@<SCITEGIC>MOL_PROPERTY
U
SciTegic.value.DoubleValue
6.751

@<SCITEGIC>MOL_PROPERTY
W
SciTegic.value.DoubleValue
-60.316

@<SCITEGIC>MOL_PROPERTY
W(PB)
SciTegic.value.DoubleValue
-62.638

@<SCITEGIC>MOL_PROPERTY
W(SA)
SciTegic.value.DoubleValue
2.321

@<SCITEGIC>MOL_PROPERTY
Valence
SciTegic.value.DoubleValue
7.602

@<SCITEGIC>MOL_PROPERTY
Coulomb
SciTegic.value.DoubleValue
-1.744

@<SCITEGIC>MOL_PROPERTY
VdW
SciTegic.value.DoubleValue
0.893

@<SCITEGIC>MOL_PROPERTY
VdW6
SciTegic.value.DoubleValue
-7.110

@<SCITEGIC>MOL_PROPERTY
VdW12
SciTegic.value.DoubleValue
8.004

@<SCITEGIC>MOL_PROPERTY
Bond
SciTegic.value.DoubleValue
0.131

@<SCITEGIC>MOL_PROPERTY
Angle
SciTegic.value.DoubleValue
2.489

@<SCITEGIC>MOL_PROPERTY
Pdih
SciTegic.value.DoubleValue
4.982

@<SCITEGIC>MOL_PROPERTY
Idih
SciTegic.value.DoubleValue
0.001

@<SCITEGIC>MOL_PROPERTY
Tether
SciTegic.value.DoubleValue
0.000

@<TRIPOS>MOLECULE
guest-s21_vm2.mol2 : vm2 ligand conformer 8
          22          21           1
SMALL
USER_CHARGES
 
@<TRIPOS>ATOM
       1    C1      19.995953   19.018074   25.802307 C.2        1 MOL1         0.6145
       2    O1      20.594647   19.981766   26.237927 O.co2      1 MOL1        -0.6735
       3    O2      20.375697   17.871961   25.940192 O.co2      1 MOL1        -0.6735
       4    C2      18.686314   19.261698   25.057576 C.3        1 MOL1        -0.1985
       5    H1      18.102116   19.977963   25.647251 H          1 MOL1         0.0740
       6    H2      18.115019   18.325666   25.038336 H          1 MOL1         0.0740
       7    C3      18.871517   19.805769   23.617201 C.3        1 MOL1        -0.1882
       8    H3      17.888676   20.080491   23.210882 H          1 MOL1         0.0742
       9    H4      19.468949   20.727522   23.650353 H          1 MOL1         0.0742
      10    C4      19.543097   18.780348   22.676417 C.3        1 MOL1        -0.1880
      11    H5      18.949237   17.856243   22.657057 H          1 MOL1         0.0742
      12    H6      20.534707   18.513374   23.067368 H          1 MOL1         0.0742
      13    C5      19.688710   19.330800   21.241408 C.3        1 MOL1        -0.1880
      14    H7      18.698056   19.595824   20.847170 H          1 MOL1         0.0742
      15    H8      20.282689   20.254862   21.261599 H          1 MOL1         0.0742
      16    C6      20.360008   18.307625   20.301452 C.3        1 MOL1        -0.1856
      17    H9      19.767764   17.382349   20.277517 H          1 MOL1         0.0742
      18    H10     21.352209   18.041576   20.691655 H          1 MOL1         0.0742
      19    C7      20.504057   18.860959   18.869520 C.3        1 MOL1        -0.2871
      20    H11     19.522715   19.106146   18.442617 H          1 MOL1         0.0754
      21    H12     20.983000   18.120989   18.215194 H          1 MOL1         0.0754
      22    H13     21.119085   19.770382   18.859908 H          1 MOL1         0.0754
@<TRIPOS>BOND
    1     1     2    1
    2     1     3    2
    3     1     4    1
    4     4     5    1
    5     4     6    1
    6     4     7    1
    7     7     8    1
    8     7     9    1
    9     7    10    1
   10    10    11    1
   11    10    12    1
   12    10    13    1
   13    13    14    1
   14    13    15    1
   15    13    16    1
   16    16    17    1
   17    16    18    1
   18    16    19    1
   19    19    20    1
   20    19    21    1
   21    19    22    1
@<TRIPOS>SUBSTRUCTURE
       1 MOL1            1 RESIDUE      1      MOL     
@<SCITEGIC>MOL_PROPERTY
VM2 Rank
SciTegic.value.IntegerValue
8

@<SCITEGIC>MOL_PROPERTY
Conf_Id
SciTegic.value.IntegerValue
134

@<SCITEGIC>MOL_PROPERTY
Probability
SciTegic.value.DoubleValue
2.89

@<SCITEGIC>MOL_PROPERTY
Sum Probability
SciTegic.value.DoubleValue
78.40

@<SCITEGIC>MOL_PROPERTY
Delta G
SciTegic.value.DoubleValue
1.443

@<SCITEGIC>MOL_PROPERTY
G
SciTegic.value.DoubleValue
-15.555

@<SCITEGIC>MOL_PROPERTY
E
SciTegic.value.DoubleValue
-35.435

@<SCITEGIC>MOL_PROPERTY
-TS
SciTegic.value.DoubleValue
19.880

@<SCITEGIC>MOL_PROPERTY
U+W
SciTegic.value.DoubleValue
-53.320

@<SCITEGIC>MOL_PROPERTY
U
SciTegic.value.DoubleValue
7.937

@<SCITEGIC>MOL_PROPERTY
W
SciTegic.value.DoubleValue
-61.257

@<SCITEGIC>MOL_PROPERTY
W(PB)
SciTegic.value.DoubleValue
-63.561

@<SCITEGIC>MOL_PROPERTY
W(SA)
SciTegic.value.DoubleValue
2.304

@<SCITEGIC>MOL_PROPERTY
Valence
SciTegic.value.DoubleValue
7.358

@<SCITEGIC>MOL_PROPERTY
Coulomb
SciTegic.value.DoubleValue
-0.021

@<SCITEGIC>MOL_PROPERTY
VdW
SciTegic.value.DoubleValue
0.600

@<SCITEGIC>MOL_PROPERTY
VdW6
SciTegic.value.DoubleValue
-7.363

@<SCITEGIC>MOL_PROPERTY
VdW12
SciTegic.value.DoubleValue
7.964

@<SCITEGIC>MOL_PROPERTY
Bond
SciTegic.value.DoubleValue
0.121

@<SCITEGIC>MOL_PROPERTY
Angle
SciTegic.value.DoubleValue
2.425

@<SCITEGIC>MOL_PROPERTY
Pdih
SciTegic.value.DoubleValue
4.811

@<SCITEGIC>MOL_PROPERTY
Idih
SciTegic.value.DoubleValue
0.001

@<SCITEGIC>MOL_PROPERTY
Tether
SciTegic.value.DoubleValue
0.000

@<TRIPOS>MOLECULE
guest-s21_vm2.mol2 : vm2 ligand conformer 9
          22          21           1
SMALL
USER_CHARGES
 
@<TRIPOS>ATOM
       1    C1      19.540663   19.147525   25.784873 C.2        1 MOL1         0.6145
       2    O1      19.508675   20.290471   26.196638 O.co2      1 MOL1        -0.6735
       3    O2      18.606866   18.374813   25.872816 O.co2      1 MOL1        -0.6735
       4    C2      20.831674   18.651767   25.139395 C.3        1 MOL1        -0.1985
       5    H1      20.825666   17.555015   25.141695 H          1 MOL1         0.0740
       6    H2      21.661768   18.965914   25.783054 H          1 MOL1         0.0740
       7    C3      21.062054   19.183030   23.700761 C.3        1 MOL1        -0.1882
       8    H3      21.037449   20.281647   23.710208 H          1 MOL1         0.0742
       9    H4      22.068411   18.892170   23.370323 H          1 MOL1         0.0742
      10    C4      20.020144   18.644829   22.694607 C.3        1 MOL1        -0.1880
      11    H5      19.011527   18.946724   23.009186 H          1 MOL1         0.0742
      12    H6      20.039389   17.546363   22.698740 H          1 MOL1         0.0742
      13    C5      20.287165   19.160626   21.264187 C.3        1 MOL1        -0.1880
      14    H7      20.267780   20.259135   21.260872 H          1 MOL1         0.0742
      15    H8      21.294162   18.857467   20.946207 H          1 MOL1         0.0742
      16    C6      19.246564   18.624238   20.258960 C.3        1 MOL1        -0.1856
      17    H9      18.238007   18.927271   20.572787 H          1 MOL1         0.0742
      18    H10     19.264089   17.525532   20.258409 H          1 MOL1         0.0742
      19    C7      19.516196   19.141701   18.831764 C.3        1 MOL1        -0.2871
      20    H11     19.473373   20.238219   18.796935 H          1 MOL1         0.0754
      21    H12     18.767372   18.750847   18.130636 H          1 MOL1         0.0754
      22    H13     20.507170   18.825899   18.480146 H          1 MOL1         0.0754
@<TRIPOS>BOND
    1     1     2    1
    2     1     3    2
    3     1     4    1
    4     4     5    1
    5     4     6    1
    6     4     7    1
    7     7     8    1
    8     7     9    1
    9     7    10    1
   10    10    11    1
   11    10    12    1
   12    10    13    1
   13    13    14    1
   14    13    15    1
   15    13    16    1
   16    16    17    1
   17    16    18    1
   18    16    19    1
   19    19    20    1
   20    19    21    1
   21    19    22    1
@<TRIPOS>SUBSTRUCTURE
       1 MOL1            1 RESIDUE      1      MOL     
@<SCITEGIC>MOL_PROPERTY
VM2 Rank
SciTegic.value.IntegerValue
9

@<SCITEGIC>MOL_PROPERTY
Conf_Id
SciTegic.value.IntegerValue
135

@<SCITEGIC>MOL_PROPERTY
Probability
SciTegic.value.DoubleValue
2.75

@<SCITEGIC>MOL_PROPERTY
Sum Probability
SciTegic.value.DoubleValue
81.15

@<SCITEGIC>MOL_PROPERTY
Delta G
SciTegic.value.DoubleValue
1.473

@<SCITEGIC>MOL_PROPERTY
G
SciTegic.value.DoubleValue
-15.525

@<SCITEGIC>MOL_PROPERTY
E
SciTegic.value.DoubleValue
-35.405

@<SCITEGIC>MOL_PROPERTY
-TS
SciTegic.value.DoubleValue
19.880

@<SCITEGIC>MOL_PROPERTY
U+W
SciTegic.value.DoubleValue
-53.290

@<SCITEGIC>MOL_PROPERTY
U
SciTegic.value.DoubleValue
7.937

@<SCITEGIC>MOL_PROPERTY
W
SciTegic.value.DoubleValue
-61.226

@<SCITEGIC>MOL_PROPERTY
W(PB)
SciTegic.value.DoubleValue
-63.524

@<SCITEGIC>MOL_PROPERTY
W(SA)
SciTegic.value.DoubleValue
2.297

@<SCITEGIC>MOL_PROPERTY
Valence
SciTegic.value.DoubleValue
7.358

@<SCITEGIC>MOL_PROPERTY
Coulomb
SciTegic.value.DoubleValue
-0.021

@<SCITEGIC>MOL_PROPERTY
VdW
SciTegic.value.DoubleValue
0.601

@<SCITEGIC>MOL_PROPERTY
VdW6
SciTegic.value.DoubleValue
-7.363

@<SCITEGIC>MOL_PROPERTY
VdW12
SciTegic.value.DoubleValue
7.964

@<SCITEGIC>MOL_PROPERTY
Bond
SciTegic.value.DoubleValue
0.121

@<SCITEGIC>MOL_PROPERTY
Angle
SciTegic.value.DoubleValue
2.425

@<SCITEGIC>MOL_PROPERTY
Pdih
SciTegic.value.DoubleValue
4.811

@<SCITEGIC>MOL_PROPERTY
Idih
SciTegic.value.DoubleValue
0.000

@<SCITEGIC>MOL_PROPERTY
Tether
SciTegic.value.DoubleValue
0.000

@<TRIPOS>MOLECULE
guest-s21_vm2.mol2 : vm2 ligand conformer 10
          22          21           1
SMALL
USER_CHARGES
 
@<TRIPOS>ATOM
       1    C1      19.582837   19.107235   25.923147 C.2        1 MOL1         0.6145
       2    O1      19.605870   20.241937   26.357264 O.co2      1 MOL1        -0.6735
       3    O2      19.702758   18.118238   26.618896 O.co2      1 MOL1        -0.6735
       4    C2      19.417082   18.914274   24.420015 C.3        1 MOL1        -0.1985
       5    H1      18.780308   19.724766   24.047842 H          1 MOL1         0.0740
       6    H2      18.877291   17.974151   24.255016 H          1 MOL1         0.0740
       7    C3      20.771357   18.893003   23.664720 C.3        1 MOL1        -0.1882
       8    H3      21.283357   19.855380   23.802428 H          1 MOL1         0.0742
       9    H4      21.417760   18.129944   24.120021 H          1 MOL1         0.0742
      10    C4      20.629804   18.586828   22.154738 C.3        1 MOL1        -0.1880
      11    H5      20.135791   17.614494   22.028609 H          1 MOL1         0.0742
      12    H6      21.634791   18.485242   21.723054 H          1 MOL1         0.0742
      13    C5      19.855342   19.679721   21.378385 C.3        1 MOL1        -0.1880
      14    H7      18.810417   19.711375   21.713481 H          1 MOL1         0.0742
      15    H8      20.289325   20.661249   21.612864 H          1 MOL1         0.0742
      16    C6      19.889205   19.480281   19.845332 C.3        1 MOL1        -0.1856
      17    H9      20.930758   19.464061   19.495792 H          1 MOL1         0.0742
      18    H10     19.414683   20.347637   19.366033 H          1 MOL1         0.0742
      19    C7      19.165744   18.197483   19.381501 C.3        1 MOL1        -0.2871
      20    H11     19.143628   18.144114   18.285346 H          1 MOL1         0.0754
      21    H12     18.128983   18.179061   19.741936 H          1 MOL1         0.0754
      22    H13     19.673897   17.296724   19.747877 H          1 MOL1         0.0754
@<TRIPOS>BOND
    1     1     2    1
    2     1     3    2
    3     1     4    1
    4     4     5    1
    5     4     6    1
    6     4     7    1
    7     7     8    1
    8     7     9    1
    9     7    10    1
   10    10    11    1
   11    10    12    1
   12    10    13    1
   13    13    14    1
   14    13    15    1
   15    13    16    1
   16    16    17    1
   17    16    18    1
   18    16    19    1
   19    19    20    1
   20    19    21    1
   21    19    22    1
@<TRIPOS>SUBSTRUCTURE
       1 MOL1            1 RESIDUE      1      MOL     
@<SCITEGIC>MOL_PROPERTY
VM2 Rank
SciTegic.value.IntegerValue
10

@<SCITEGIC>MOL_PROPERTY
Conf_Id
SciTegic.value.IntegerValue
297

@<SCITEGIC>MOL_PROPERTY
Probability
SciTegic.value.DoubleValue
1.65

@<SCITEGIC>MOL_PROPERTY
Sum Probability
SciTegic.value.DoubleValue
82.80

@<SCITEGIC>MOL_PROPERTY
Delta G
SciTegic.value.DoubleValue
1.777

@<SCITEGIC>MOL_PROPERTY
G
SciTegic.value.DoubleValue
-15.221

@<SCITEGIC>MOL_PROPERTY
E
SciTegic.value.DoubleValue
-35.031

@<SCITEGIC>MOL_PROPERTY
-TS
SciTegic.value.DoubleValue
19.810

@<SCITEGIC>MOL_PROPERTY
U+W
SciTegic.value.DoubleValue
-52.916

@<SCITEGIC>MOL_PROPERTY
U
SciTegic.value.DoubleValue
7.600

@<SCITEGIC>MOL_PROPERTY
W
SciTegic.value.DoubleValue
-60.516

@<SCITEGIC>MOL_PROPERTY
W(PB)
SciTegic.value.DoubleValue
-62.800

@<SCITEGIC>MOL_PROPERTY
W(SA)
SciTegic.value.DoubleValue
2.284

@<SCITEGIC>MOL_PROPERTY
Valence
SciTegic.value.DoubleValue
8.094

@<SCITEGIC>MOL_PROPERTY
Coulomb
SciTegic.value.DoubleValue
-1.473

@<SCITEGIC>MOL_PROPERTY
VdW
SciTegic.value.DoubleValue
0.979

@<SCITEGIC>MOL_PROPERTY
VdW6
SciTegic.value.DoubleValue
-7.827

@<SCITEGIC>MOL_PROPERTY
VdW12
SciTegic.value.DoubleValue
8.806

@<SCITEGIC>MOL_PROPERTY
Bond
SciTegic.value.DoubleValue
0.173

@<SCITEGIC>MOL_PROPERTY
Angle
SciTegic.value.DoubleValue
2.687

@<SCITEGIC>MOL_PROPERTY
Pdih
SciTegic.value.DoubleValue
5.233

@<SCITEGIC>MOL_PROPERTY
Idih
SciTegic.value.DoubleValue
0.001

@<SCITEGIC>MOL_PROPERTY
Tether
SciTegic.value.DoubleValue
0.000

@<TRIPOS>MOLECULE
guest-s21_vm2.mol2 : vm2 ligand conformer 11
          22          21           1
SMALL
USER_CHARGES
 
@<TRIPOS>ATOM
       1    C1      19.825382   19.116825   26.207004 C.2        1 MOL1         0.6145
       2    O1      20.530997   20.106750   26.230583 O.co2      1 MOL1        -0.6735
       3    O2      19.408578   18.575170   27.211398 O.co2      1 MOL1        -0.6735
       4    C2      19.426683   18.500736   24.864990 C.3        1 MOL1        -0.1985
       5    H1      18.331181   18.481118   24.826790 H          1 MOL1         0.0740
       6    H2      19.766361   17.458353   24.869936 H          1 MOL1         0.0740
       7    C3      19.982169   19.227343   23.611241 C.3        1 MOL1        -0.1882
       8    H3      19.643307   20.272638   23.615732 H          1 MOL1         0.0742
       9    H4      21.079787   19.248789   23.658813 H          1 MOL1         0.0742
      10    C4      19.532170   18.540949   22.303236 C.3        1 MOL1        -0.1880
      11    H5      18.434596   18.520696   22.257947 H          1 MOL1         0.0742
      12    H6      19.871936   17.496112   22.301114 H          1 MOL1         0.0742
      13    C5      20.085885   19.265233   21.057395 C.3        1 MOL1        -0.1880
      14    H7      19.746422   20.310168   21.059105 H          1 MOL1         0.0742
      15    H8      21.183473   19.285706   21.102227 H          1 MOL1         0.0742
      16    C6      19.636534   18.579880   19.749926 C.3        1 MOL1        -0.1856
      17    H9      18.538982   18.559374   19.700567 H          1 MOL1         0.0742
      18    H10     19.976049   17.534812   19.743729 H          1 MOL1         0.0742
      19    C7      20.191602   19.306115   18.508226 C.3        1 MOL1        -0.2871
      20    H11     19.841639   20.346137   18.472333 H          1 MOL1         0.0754
      21    H12     19.862535   18.805865   17.588141 H          1 MOL1         0.0754
      22    H13     21.289460   19.313837   18.515782 H          1 MOL1         0.0754
@<TRIPOS>BOND
    1     1     2    1
    2     1     3    2
    3     1     4    1
    4     4     5    1
    5     4     6    1
    6     4     7    1
    7     7     8    1
    8     7     9    1
    9     7    10    1
   10    10    11    1
   11    10    12    1
   12    10    13    1
   13    13    14    1
   14    13    15    1
   15    13    16    1
   16    16    17    1
   17    16    18    1
   18    16    19    1
   19    19    20    1
   20    19    21    1
   21    19    22    1
@<TRIPOS>SUBSTRUCTURE
       1 MOL1            1 RESIDUE      1      MOL     
@<SCITEGIC>MOL_PROPERTY
VM2 Rank
SciTegic.value.IntegerValue
11

@<SCITEGIC>MOL_PROPERTY
Conf_Id
SciTegic.value.IntegerValue
0

@<SCITEGIC>MOL_PROPERTY
Probability
SciTegic.value.DoubleValue
1.57

@<SCITEGIC>MOL_PROPERTY
Sum Probability
SciTegic.value.DoubleValue
84.36

@<SCITEGIC>MOL_PROPERTY
Delta G
SciTegic.value.DoubleValue
1.808

@<SCITEGIC>MOL_PROPERTY
G
SciTegic.value.DoubleValue
-15.190

@<SCITEGIC>MOL_PROPERTY
E
SciTegic.value.DoubleValue
-35.274

@<SCITEGIC>MOL_PROPERTY
-TS
SciTegic.value.DoubleValue
20.084

@<SCITEGIC>MOL_PROPERTY
U+W
SciTegic.value.DoubleValue
-53.159

@<SCITEGIC>MOL_PROPERTY
U
SciTegic.value.DoubleValue
6.763

@<SCITEGIC>MOL_PROPERTY
W
SciTegic.value.DoubleValue
-59.922

@<SCITEGIC>MOL_PROPERTY
W(PB)
SciTegic.value.DoubleValue
-62.256

@<SCITEGIC>MOL_PROPERTY
W(SA)
SciTegic.value.DoubleValue
2.334

@<SCITEGIC>MOL_PROPERTY
Valence
SciTegic.value.DoubleValue
7.600

@<SCITEGIC>MOL_PROPERTY
Coulomb
SciTegic.value.DoubleValue
-2.139

@<SCITEGIC>MOL_PROPERTY
VdW
SciTegic.value.DoubleValue
1.302

@<SCITEGIC>MOL_PROPERTY
VdW6
SciTegic.value.DoubleValue
-6.786

@<SCITEGIC>MOL_PROPERTY
VdW12
SciTegic.value.DoubleValue
8.088

@<SCITEGIC>MOL_PROPERTY
Bond
SciTegic.value.DoubleValue
0.134

@<SCITEGIC>MOL_PROPERTY
Angle
SciTegic.value.DoubleValue
2.720

@<SCITEGIC>MOL_PROPERTY
Pdih
SciTegic.value.DoubleValue
4.746

@<SCITEGIC>MOL_PROPERTY
Idih
SciTegic.value.DoubleValue
0.000

@<SCITEGIC>MOL_PROPERTY
Tether
SciTegic.value.DoubleValue
0.000

@<TRIPOS>MOLECULE
guest-s21_vm2.mol2 : vm2 ligand conformer 12
          22          21           1
SMALL
USER_CHARGES
 
@<TRIPOS>ATOM
       1    C1      19.728994   19.210531   25.988248 C.2        1 MOL1         0.6145
       2    O1      20.054911   20.327852   26.337393 O.co2      1 MOL1        -0.6735
       3    O2      19.720748   18.249146   26.731373 O.co2      1 MOL1        -0.6735
       4    C2      19.330101   18.998448   24.532160 C.3        1 MOL1        -0.1985
       5    H1      18.841047   19.915225   24.184584 H          1 MOL1         0.0740
       6    H2      18.582458   18.197036   24.497768 H          1 MOL1         0.0740
       7    C3      20.537319   18.643196   23.625499 C.3        1 MOL1        -0.1882
       8    H3      21.256711   19.473714   23.628999 H          1 MOL1         0.0742
       9    H4      21.059660   17.779224   24.059276 H          1 MOL1         0.0742
      10    C4      20.140820   18.300585   22.169433 C.3        1 MOL1        -0.1880
      11    H5      19.415517   17.475597   22.169995 H          1 MOL1         0.0742
      12    H6      21.034840   17.928851   21.652839 H          1 MOL1         0.0742
      13    C5      19.560591   19.506230   21.389836 C.3        1 MOL1        -0.1880
      14    H7      18.664638   19.876944   21.903566 H          1 MOL1         0.0742
      15    H8      20.285194   20.331851   21.391046 H          1 MOL1         0.0742
      16    C6      19.168778   19.164448   19.933203 C.3        1 MOL1        -0.1856
      17    H9      18.644260   20.026789   19.499043 H          1 MOL1         0.0742
      18    H10     18.452726   18.331066   19.927082 H          1 MOL1         0.0742
      19    C7      20.377737   18.818565   19.036855 C.3        1 MOL1        -0.2871
      20    H11     21.123584   19.623865   19.055030 H          1 MOL1         0.0754
      21    H12     20.056232   18.679571   17.996551 H          1 MOL1         0.0754
      22    H13     20.864745   17.890100   19.359656 H          1 MOL1         0.0754
@<TRIPOS>BOND
    1     1     2    1
    2     1     3    2
    3     1     4    1
    4     4     5    1
    5     4     6    1
    6     4     7    1
    7     7     8    1
    8     7     9    1
    9     7    10    1
   10    10    11    1
   11    10    12    1
   12    10    13    1
   13    13    14    1
   14    13    15    1
   15    13    16    1
   16    16    17    1
   17    16    18    1
   18    16    19    1
   19    19    20    1
   20    19    21    1
   21    19    22    1
@<TRIPOS>SUBSTRUCTURE
       1 MOL1            1 RESIDUE      1      MOL     
@<SCITEGIC>MOL_PROPERTY
VM2 Rank
SciTegic.value.IntegerValue
12

@<SCITEGIC>MOL_PROPERTY
Conf_Id
SciTegic.value.IntegerValue
535

@<SCITEGIC>MOL_PROPERTY
Probability
SciTegic.value.DoubleValue
1.56

@<SCITEGIC>MOL_PROPERTY
Sum Probability
SciTegic.value.DoubleValue
85.93

@<SCITEGIC>MOL_PROPERTY
Delta G
SciTegic.value.DoubleValue
1.809

@<SCITEGIC>MOL_PROPERTY
G
SciTegic.value.DoubleValue
-15.190

@<SCITEGIC>MOL_PROPERTY
E
SciTegic.value.DoubleValue
-34.925

@<SCITEGIC>MOL_PROPERTY
-TS
SciTegic.value.DoubleValue
19.735

@<SCITEGIC>MOL_PROPERTY
U+W
SciTegic.value.DoubleValue
-52.810

@<SCITEGIC>MOL_PROPERTY
U
SciTegic.value.DoubleValue
7.689

@<SCITEGIC>MOL_PROPERTY
W
SciTegic.value.DoubleValue
-60.499

@<SCITEGIC>MOL_PROPERTY
W(PB)
SciTegic.value.DoubleValue
-62.767

@<SCITEGIC>MOL_PROPERTY
W(SA)
SciTegic.value.DoubleValue
2.268

@<SCITEGIC>MOL_PROPERTY
Valence
SciTegic.value.DoubleValue
8.197

@<SCITEGIC>MOL_PROPERTY
Coulomb
SciTegic.value.DoubleValue
-1.561

@<SCITEGIC>MOL_PROPERTY
VdW
SciTegic.value.DoubleValue
1.053

@<SCITEGIC>MOL_PROPERTY
VdW6
SciTegic.value.DoubleValue
-7.737

@<SCITEGIC>MOL_PROPERTY
VdW12
SciTegic.value.DoubleValue
8.790

@<SCITEGIC>MOL_PROPERTY
Bond
SciTegic.value.DoubleValue
0.181

@<SCITEGIC>MOL_PROPERTY
Angle
SciTegic.value.DoubleValue
2.780

@<SCITEGIC>MOL_PROPERTY
Pdih
SciTegic.value.DoubleValue
5.235

@<SCITEGIC>MOL_PROPERTY
Idih
SciTegic.value.DoubleValue
0.001

@<SCITEGIC>MOL_PROPERTY
Tether
SciTegic.value.DoubleValue
0.000

@<TRIPOS>MOLECULE
guest-s21_vm2.mol2 : vm2 ligand conformer 13
          22          21           1
SMALL
USER_CHARGES
 
@<TRIPOS>ATOM
       1    C1      19.582492   19.113456   25.922903 C.2        1 MOL1         0.6145
       2    O1      19.592069   20.159899   26.540502 O.co2      1 MOL1        -0.6735
       3    O2      19.726124   18.024404   26.442394 O.co2      1 MOL1        -0.6735
       4    C2      19.403041   19.171914   24.410126 C.3        1 MOL1        -0.1985
       5    H1      18.765029   20.032487   24.176062 H          1 MOL1         0.0740
       6    H2      18.859621   18.271018   24.103577 H          1 MOL1         0.0740
       7    C3      20.750137   19.282398   23.649793 C.3        1 MOL1        -0.1882
       8    H3      21.307944   20.143668   24.042806 H          1 MOL1         0.0742
       9    H4      21.363038   18.394654   23.858457 H          1 MOL1         0.0742
      10    C4      20.582478   19.455192   22.121441 C.3        1 MOL1        -0.1880
      11    H5      21.572285   19.632048   21.679088 H          1 MOL1         0.0742
      12    H6      19.986332   20.355643   21.923481 H          1 MOL1         0.0742
      13    C5      19.934524   18.228587   21.434039 C.3        1 MOL1        -0.1880
      14    H7      20.471564   17.320786   21.740965 H          1 MOL1         0.0742
      15    H8      18.897833   18.109310   21.774927 H          1 MOL1         0.0742
      16    C6      19.952909   18.312892   19.890106 C.3        1 MOL1        -0.1856
      17    H9      19.577500   17.365043   19.480407 H          1 MOL1         0.0742
      18    H10     20.987976   18.415513   19.536020 H          1 MOL1         0.0742
      19    C7      19.096225   19.470257   19.332695 C.3        1 MOL1        -0.2871
      20    H11     19.501886   20.446249   19.627136 H          1 MOL1         0.0754
      21    H12     18.062103   19.403309   19.694955 H          1 MOL1         0.0754
      22    H13     19.073043   19.437073   18.235765 H          1 MOL1         0.0754
@<TRIPOS>BOND
    1     1     2    1
    2     1     3    2
    3     1     4    1
    4     4     5    1
    5     4     6    1
    6     4     7    1
    7     7     8    1
    8     7     9    1
    9     7    10    1
   10    10    11    1
   11    10    12    1
   12    10    13    1
   13    13    14    1
   14    13    15    1
   15    13    16    1
   16    16    17    1
   17    16    18    1
   18    16    19    1
   19    19    20    1
   20    19    21    1
   21    19    22    1
@<TRIPOS>SUBSTRUCTURE
       1 MOL1            1 RESIDUE      1      MOL     
@<SCITEGIC>MOL_PROPERTY
VM2 Rank
SciTegic.value.IntegerValue
13

@<SCITEGIC>MOL_PROPERTY
Conf_Id
SciTegic.value.IntegerValue
89

@<SCITEGIC>MOL_PROPERTY
Probability
SciTegic.value.DoubleValue
1.56

@<SCITEGIC>MOL_PROPERTY
Sum Probability
SciTegic.value.DoubleValue
87.49

@<SCITEGIC>MOL_PROPERTY
Delta G
SciTegic.value.DoubleValue
1.810

@<SCITEGIC>MOL_PROPERTY
G
SciTegic.value.DoubleValue
-15.188

@<SCITEGIC>MOL_PROPERTY
E
SciTegic.value.DoubleValue
-34.998

@<SCITEGIC>MOL_PROPERTY
-TS
SciTegic.value.DoubleValue
19.810

@<SCITEGIC>MOL_PROPERTY
U+W
SciTegic.value.DoubleValue
-52.883

@<SCITEGIC>MOL_PROPERTY
U
SciTegic.value.DoubleValue
7.600

@<SCITEGIC>MOL_PROPERTY
W
SciTegic.value.DoubleValue
-60.483

@<SCITEGIC>MOL_PROPERTY
W(PB)
SciTegic.value.DoubleValue
-62.769

@<SCITEGIC>MOL_PROPERTY
W(SA)
SciTegic.value.DoubleValue
2.286

@<SCITEGIC>MOL_PROPERTY
Valence
SciTegic.value.DoubleValue
8.094

@<SCITEGIC>MOL_PROPERTY
Coulomb
SciTegic.value.DoubleValue
-1.473

@<SCITEGIC>MOL_PROPERTY
VdW
SciTegic.value.DoubleValue
0.979

@<SCITEGIC>MOL_PROPERTY
VdW6
SciTegic.value.DoubleValue
-7.827

@<SCITEGIC>MOL_PROPERTY
VdW12
SciTegic.value.DoubleValue
8.806

@<SCITEGIC>MOL_PROPERTY
Bond
SciTegic.value.DoubleValue
0.173

@<SCITEGIC>MOL_PROPERTY
Angle
SciTegic.value.DoubleValue
2.687

@<SCITEGIC>MOL_PROPERTY
Pdih
SciTegic.value.DoubleValue
5.233

@<SCITEGIC>MOL_PROPERTY
Idih
SciTegic.value.DoubleValue
0.001

@<SCITEGIC>MOL_PROPERTY
Tether
SciTegic.value.DoubleValue
0.000

@<TRIPOS>MOLECULE
guest-s21_vm2.mol2 : vm2 ligand conformer 14
          22          21           1
SMALL
USER_CHARGES
 
@<TRIPOS>ATOM
       1    C1      19.738636   19.032014   25.995074 C.2        1 MOL1         0.6145
       2    O1      19.623898   20.040836   26.662664 O.co2      1 MOL1        -0.6735
       3    O2      20.181482   17.986196   26.427146 O.co2      1 MOL1        -0.6735
       4    C2      19.325253   19.088156   24.528703 C.3        1 MOL1        -0.1985
       5    H1      18.495841   19.799460   24.436307 H          1 MOL1         0.0740
       6    H2      18.939161   18.100220   24.254152 H          1 MOL1         0.0740
       7    C3      20.490964   19.501020   23.592608 C.3        1 MOL1        -0.1882
       8    H3      20.915448   20.446797   23.956980 H          1 MOL1         0.0742
       9    H4      21.295564   18.755487   23.656586 H          1 MOL1         0.0742
      10    C4      20.065955   19.686728   22.116260 C.3        1 MOL1        -0.1880
      11    H5      20.916948   20.111879   21.569100 H          1 MOL1         0.0742
      12    H6      19.256143   20.426547   22.056758 H          1 MOL1         0.0742
      13    C5      19.621978   18.369648   21.433469 C.3        1 MOL1        -0.1880
      14    H7      20.431155   17.629260   21.494785 H          1 MOL1         0.0742
      15    H8      18.768968   17.945078   21.977705 H          1 MOL1         0.0742
      16    C6      19.201704   18.554990   19.956606 C.3        1 MOL1        -0.1856
      17    H9      18.400187   19.303585   19.889774 H          1 MOL1         0.0742
      18    H10     18.774792   17.610591   19.591775 H          1 MOL1         0.0742
      19    C7      20.370130   18.959412   19.031471 C.3        1 MOL1        -0.2871
      20    H11     20.039836   18.983125   17.984925 H          1 MOL1         0.0754
      21    H12     21.198192   18.242773   19.108041 H          1 MOL1         0.0754
      22    H13     20.753102   19.956810   19.280378 H          1 MOL1         0.0754
@<TRIPOS>BOND
    1     1     2    1
    2     1     3    2
    3     1     4    1
    4     4     5    1
    5     4     6    1
    6     4     7    1
    7     7     8    1
    8     7     9    1
    9     7    10    1
   10    10    11    1
   11    10    12    1
   12    10    13    1
   13    13    14    1
   14    13    15    1
   15    13    16    1
   16    16    17    1
   17    16    18    1
   18    16    19    1
   19    19    20    1
   20    19    21    1
   21    19    22    1
@<TRIPOS>SUBSTRUCTURE
       1 MOL1            1 RESIDUE      1      MOL     
@<SCITEGIC>MOL_PROPERTY
VM2 Rank
SciTegic.value.IntegerValue
14

@<SCITEGIC>MOL_PROPERTY
Conf_Id
SciTegic.value.IntegerValue
125

@<SCITEGIC>MOL_PROPERTY
Probability
SciTegic.value.DoubleValue
1.49

@<SCITEGIC>MOL_PROPERTY
Sum Probability
SciTegic.value.DoubleValue
88.98

@<SCITEGIC>MOL_PROPERTY
Delta G
SciTegic.value.DoubleValue
1.836

@<SCITEGIC>MOL_PROPERTY
G
SciTegic.value.DoubleValue
-15.162

@<SCITEGIC>MOL_PROPERTY
E
SciTegic.value.DoubleValue
-34.896

@<SCITEGIC>MOL_PROPERTY
-TS
SciTegic.value.DoubleValue
19.735

@<SCITEGIC>MOL_PROPERTY
U+W
SciTegic.value.DoubleValue
-52.781

@<SCITEGIC>MOL_PROPERTY
U
SciTegic.value.DoubleValue
7.689

@<SCITEGIC>MOL_PROPERTY
W
SciTegic.value.DoubleValue
-60.471

@<SCITEGIC>MOL_PROPERTY
W(PB)
SciTegic.value.DoubleValue
-62.780

@<SCITEGIC>MOL_PROPERTY
W(SA)
SciTegic.value.DoubleValue
2.309

@<SCITEGIC>MOL_PROPERTY
Valence
SciTegic.value.DoubleValue
8.196

@<SCITEGIC>MOL_PROPERTY
Coulomb
SciTegic.value.DoubleValue
-1.561

@<SCITEGIC>MOL_PROPERTY
VdW
SciTegic.value.DoubleValue
1.054

@<SCITEGIC>MOL_PROPERTY
VdW6
SciTegic.value.DoubleValue
-7.737

@<SCITEGIC>MOL_PROPERTY
VdW12
SciTegic.value.DoubleValue
8.791

@<SCITEGIC>MOL_PROPERTY
Bond
SciTegic.value.DoubleValue
0.181

@<SCITEGIC>MOL_PROPERTY
Angle
SciTegic.value.DoubleValue
2.780

@<SCITEGIC>MOL_PROPERTY
Pdih
SciTegic.value.DoubleValue
5.235

@<SCITEGIC>MOL_PROPERTY
Idih
SciTegic.value.DoubleValue
0.001

@<SCITEGIC>MOL_PROPERTY
Tether
SciTegic.value.DoubleValue
0.000

@<TRIPOS>MOLECULE
guest-s21_vm2.mol2 : vm2 ligand conformer 15
          22          21           1
SMALL
USER_CHARGES
 
@<TRIPOS>ATOM
       1    C1      19.922136   18.759984   25.688247 C.2        1 MOL1         0.6145
       2    O1      19.501094   19.387498   26.639874 O.co2      1 MOL1        -0.6735
       3    O2      20.846464   17.974176   25.756438 O.co2      1 MOL1        -0.6735
       4    C2      19.268873   18.988011   24.329875 C.3        1 MOL1        -0.1985
       5    H1      18.211306   19.225617   24.495357 H          1 MOL1         0.0740
       6    H2      19.308232   18.041831   23.778188 H          1 MOL1         0.0740
       7    C3      19.951065   20.119617   23.518361 C.3        1 MOL1        -0.1882
       8    H3      19.976471   21.029172   24.134245 H          1 MOL1         0.0742
       9    H4      20.999288   19.853987   23.327538 H          1 MOL1         0.0742
      10    C4      19.231404   20.446866   22.185680 C.3        1 MOL1        -0.1880
      11    H5      19.759898   21.274698   21.693581 H          1 MOL1         0.0742
      12    H6      18.223311   20.821713   22.409287 H          1 MOL1         0.0742
      13    C5      19.112330   19.265900   21.189686 C.3        1 MOL1        -0.1880
      14    H7      18.490748   18.470906   21.621966 H          1 MOL1         0.0742
      15    H8      18.576203   19.619002   20.298255 H          1 MOL1         0.0742
      16    C6      20.476635   18.684053   20.756256 C.3        1 MOL1        -0.1856
      17    H9      20.995288   18.253860   21.623370 H          1 MOL1         0.0742
      18    H10     21.115446   19.488246   20.366032 H          1 MOL1         0.0742
      19    C7      20.309998   17.592895   19.679582 C.3        1 MOL1        -0.2871
      20    H11     19.697237   16.762560   20.054306 H          1 MOL1         0.0754
      21    H12     21.286832   17.187525   19.385493 H          1 MOL1         0.0754
      22    H13     19.826656   17.997737   18.780810 H          1 MOL1         0.0754
@<TRIPOS>BOND
    1     1     2    1
    2     1     3    2
    3     1     4    1
    4     4     5    1
    5     4     6    1
    6     4     7    1
    7     7     8    1
    8     7     9    1
    9     7    10    1
   10    10    11    1
   11    10    12    1
   12    10    13    1
   13    13    14    1
   14    13    15    1
   15    13    16    1
   16    16    17    1
   17    16    18    1
   18    16    19    1
   19    19    20    1
   20    19    21    1
   21    19    22    1
@<TRIPOS>SUBSTRUCTURE
       1 MOL1            1 RESIDUE      1      MOL     
@<SCITEGIC>MOL_PROPERTY
VM2 Rank
SciTegic.value.IntegerValue
15

@<SCITEGIC>MOL_PROPERTY
Conf_Id
SciTegic.value.IntegerValue
553

@<SCITEGIC>MOL_PROPERTY
Probability
SciTegic.value.DoubleValue
1.32

@<SCITEGIC>MOL_PROPERTY
Sum Probability
SciTegic.value.DoubleValue
90.30

@<SCITEGIC>MOL_PROPERTY
Delta G
SciTegic.value.DoubleValue
1.912

@<SCITEGIC>MOL_PROPERTY
G
SciTegic.value.DoubleValue
-15.086

@<SCITEGIC>MOL_PROPERTY
E
SciTegic.value.DoubleValue
-35.091

@<SCITEGIC>MOL_PROPERTY
-TS
SciTegic.value.DoubleValue
20.005

@<SCITEGIC>MOL_PROPERTY
U+W
SciTegic.value.DoubleValue
-52.976

@<SCITEGIC>MOL_PROPERTY
U
SciTegic.value.DoubleValue
8.061

@<SCITEGIC>MOL_PROPERTY
W
SciTegic.value.DoubleValue
-61.037

@<SCITEGIC>MOL_PROPERTY
W(PB)
SciTegic.value.DoubleValue
-63.311

@<SCITEGIC>MOL_PROPERTY
W(SA)
SciTegic.value.DoubleValue
2.273

@<SCITEGIC>MOL_PROPERTY
Valence
SciTegic.value.DoubleValue
8.062

@<SCITEGIC>MOL_PROPERTY
Coulomb
SciTegic.value.DoubleValue
-0.784

@<SCITEGIC>MOL_PROPERTY
VdW
SciTegic.value.DoubleValue
0.783

@<SCITEGIC>MOL_PROPERTY
VdW6
SciTegic.value.DoubleValue
-8.229

@<SCITEGIC>MOL_PROPERTY
VdW12
SciTegic.value.DoubleValue
9.011

@<SCITEGIC>MOL_PROPERTY
Bond
SciTegic.value.DoubleValue
0.183

@<SCITEGIC>MOL_PROPERTY
Angle
SciTegic.value.DoubleValue
2.910

@<SCITEGIC>MOL_PROPERTY
Pdih
SciTegic.value.DoubleValue
4.970

@<SCITEGIC>MOL_PROPERTY
Idih
SciTegic.value.DoubleValue
0.001

@<SCITEGIC>MOL_PROPERTY
Tether
SciTegic.value.DoubleValue
0.000

@<TRIPOS>MOLECULE
guest-s21_vm2.mol2 : vm2 ligand conformer 16
          22          21           1
SMALL
USER_CHARGES
 
@<TRIPOS>ATOM
       1    C1      19.999829   18.945668   25.852245 C.2        1 MOL1         0.6145
       2    O1      20.042844   19.972378   26.500747 O.co2      1 MOL1        -0.6735
       3    O2      20.675978   17.966233   26.097221 O.co2      1 MOL1        -0.6735
       4    C2      19.058657   18.889825   24.654161 C.3        1 MOL1        -0.1985
       5    H1      18.179089   19.503365   24.883250 H          1 MOL1         0.0740
       6    H2      18.712221   17.855543   24.540649 H          1 MOL1         0.0740
       7    C3      19.723970   19.376457   23.343170 C.3        1 MOL1        -0.1882
       8    H3      20.073496   20.409748   23.474705 H          1 MOL1         0.0742
       9    H4      20.611070   18.760193   23.145499 H          1 MOL1         0.0742
      10    C4      18.750377   19.303425   22.144284 C.3        1 MOL1        -0.1880
      11    H5      17.837166   19.861558   22.391805 H          1 MOL1         0.0742
      12    H6      18.437009   18.263600   21.983213 H          1 MOL1         0.0742
      13    C5      19.337937   19.887530   20.834972 C.3        1 MOL1        -0.1880
      14    H7      18.567215   19.844356   20.053425 H          1 MOL1         0.0742
      15    H8      19.555213   20.953502   20.987345 H          1 MOL1         0.0742
      16    C6      20.617574   19.188057   20.313472 C.3        1 MOL1        -0.1856
      17    H9      21.436491   19.308662   21.034888 H          1 MOL1         0.0742
      18    H10     20.944570   19.696725   19.396208 H          1 MOL1         0.0742
      19    C7      20.412835   17.689427   20.003729 C.3        1 MOL1        -0.2871
      20    H11     21.317650   17.263490   19.551320 H          1 MOL1         0.0754
      21    H12     19.581855   17.543208   19.301526 H          1 MOL1         0.0754
      22    H13     20.197792   17.119653   20.916530 H          1 MOL1         0.0754
@<TRIPOS>BOND
    1     1     2    1
    2     1     3    2
    3     1     4    1
    4     4     5    1
    5     4     6    1
    6     4     7    1
    7     7     8    1
    8     7     9    1
    9     7    10    1
   10    10    11    1
   11    10    12    1
   12    10    13    1
   13    13    14    1
   14    13    15    1
   15    13    16    1
   16    16    17    1
   17    16    18    1
   18    16    19    1
   19    19    20    1
   20    19    21    1
   21    19    22    1
@<TRIPOS>SUBSTRUCTURE
       1 MOL1            1 RESIDUE      1      MOL     
@<SCITEGIC>MOL_PROPERTY
VM2 Rank
SciTegic.value.IntegerValue
16

@<SCITEGIC>MOL_PROPERTY
Conf_Id
SciTegic.value.IntegerValue
190

@<SCITEGIC>MOL_PROPERTY
Probability
SciTegic.value.DoubleValue
1.18

@<SCITEGIC>MOL_PROPERTY
Sum Probability
SciTegic.value.DoubleValue
91.48

@<SCITEGIC>MOL_PROPERTY
Delta G
SciTegic.value.DoubleValue
1.977

@<SCITEGIC>MOL_PROPERTY
G
SciTegic.value.DoubleValue
-15.021

@<SCITEGIC>MOL_PROPERTY
E
SciTegic.value.DoubleValue
-34.995

@<SCITEGIC>MOL_PROPERTY
-TS
SciTegic.value.DoubleValue
19.974

@<SCITEGIC>MOL_PROPERTY
U+W
SciTegic.value.DoubleValue
-52.880

@<SCITEGIC>MOL_PROPERTY
U
SciTegic.value.DoubleValue
8.104

@<SCITEGIC>MOL_PROPERTY
W
SciTegic.value.DoubleValue
-60.984

@<SCITEGIC>MOL_PROPERTY
W(PB)
SciTegic.value.DoubleValue
-63.231

@<SCITEGIC>MOL_PROPERTY
W(SA)
SciTegic.value.DoubleValue
2.248

@<SCITEGIC>MOL_PROPERTY
Valence
SciTegic.value.DoubleValue
8.053

@<SCITEGIC>MOL_PROPERTY
Coulomb
SciTegic.value.DoubleValue
-0.790

@<SCITEGIC>MOL_PROPERTY
VdW
SciTegic.value.DoubleValue
0.841

@<SCITEGIC>MOL_PROPERTY
VdW6
SciTegic.value.DoubleValue
-8.065

@<SCITEGIC>MOL_PROPERTY
VdW12
SciTegic.value.DoubleValue
8.906

@<SCITEGIC>MOL_PROPERTY
Bond
SciTegic.value.DoubleValue
0.172

@<SCITEGIC>MOL_PROPERTY
Angle
SciTegic.value.DoubleValue
2.892

@<SCITEGIC>MOL_PROPERTY
Pdih
SciTegic.value.DoubleValue
4.988

@<SCITEGIC>MOL_PROPERTY
Idih
SciTegic.value.DoubleValue
0.000

@<SCITEGIC>MOL_PROPERTY
Tether
SciTegic.value.DoubleValue
0.000

@<TRIPOS>MOLECULE
guest-s21_vm2.mol2 : vm2 ligand conformer 17
          22          21           1
SMALL
USER_CHARGES
 
@<TRIPOS>ATOM
       1    C1      19.980023   19.313329   25.838114 C.2        1 MOL1         0.6145
       2    O1      20.545481   20.375811   26.005059 O.co2      1 MOL1        -0.6735
       3    O2      20.131000   18.349574   26.562628 O.co2      1 MOL1        -0.6735
       4    C2      19.043188   19.175965   24.643208 C.3        1 MOL1        -0.1985
       5    H1      18.587950   20.155269   24.452513 H          1 MOL1         0.0740
       6    H2      18.233811   18.490652   24.922146 H          1 MOL1         0.0740
       7    C3      19.762319   18.665063   23.370425 C.3        1 MOL1        -0.1882
       8    H3      20.578828   19.356226   23.122618 H          1 MOL1         0.0742
       9    H4      20.220361   17.688402   23.578972 H          1 MOL1         0.0742
      10    C4      18.791424   18.541319   22.173517 C.3        1 MOL1        -0.1880
      11    H5      18.368869   19.526121   21.934789 H          1 MOL1         0.0742
      12    H6      17.942425   17.908896   22.466733 H          1 MOL1         0.0742
      13    C5      19.443665   17.925394   20.910221 C.3        1 MOL1        -0.1880
      14    H7      19.773456   16.903662   21.142649 H          1 MOL1         0.0742
      15    H8      18.675988   17.825806   20.130833 H          1 MOL1         0.0742
      16    C6      20.642987   18.716282   20.331591 C.3        1 MOL1        -0.1856
      17    H9      21.026432   18.177128   19.454478 H          1 MOL1         0.0742
      18    H10     21.467149   18.739645   21.056728 H          1 MOL1         0.0742
      19    C7      20.279911   20.156263   19.909237 C.3        1 MOL1        -0.2871
      20    H11     21.135645   20.641038   19.421899 H          1 MOL1         0.0754
      21    H12     20.001255   20.767667   20.776778 H          1 MOL1         0.0754
      22    H13     19.440916   20.158467   19.201370 H          1 MOL1         0.0754
@<TRIPOS>BOND
    1     1     2    1
    2     1     3    2
    3     1     4    1
    4     4     5    1
    5     4     6    1
    6     4     7    1
    7     7     8    1
    8     7     9    1
    9     7    10    1
   10    10    11    1
   11    10    12    1
   12    10    13    1
   13    13    14    1
   14    13    15    1
   15    13    16    1
   16    16    17    1
   17    16    18    1
   18    16    19    1
   19    19    20    1
   20    19    21    1
   21    19    22    1
@<TRIPOS>SUBSTRUCTURE
       1 MOL1            1 RESIDUE      1      MOL     
@<SCITEGIC>MOL_PROPERTY
VM2 Rank
SciTegic.value.IntegerValue
17

@<SCITEGIC>MOL_PROPERTY
Conf_Id
SciTegic.value.IntegerValue
181

@<SCITEGIC>MOL_PROPERTY
Probability
SciTegic.value.DoubleValue
1.13

@<SCITEGIC>MOL_PROPERTY
Sum Probability
SciTegic.value.DoubleValue
92.61

@<SCITEGIC>MOL_PROPERTY
Delta G
SciTegic.value.DoubleValue
2.002

@<SCITEGIC>MOL_PROPERTY
G
SciTegic.value.DoubleValue
-14.997

@<SCITEGIC>MOL_PROPERTY
E
SciTegic.value.DoubleValue
-34.971

@<SCITEGIC>MOL_PROPERTY
-TS
SciTegic.value.DoubleValue
19.974

@<SCITEGIC>MOL_PROPERTY
U+W
SciTegic.value.DoubleValue
-52.855

@<SCITEGIC>MOL_PROPERTY
U
SciTegic.value.DoubleValue
8.104

@<SCITEGIC>MOL_PROPERTY
W
SciTegic.value.DoubleValue
-60.959

@<SCITEGIC>MOL_PROPERTY
W(PB)
SciTegic.value.DoubleValue
-63.217

@<SCITEGIC>MOL_PROPERTY
W(SA)
SciTegic.value.DoubleValue
2.258

@<SCITEGIC>MOL_PROPERTY
Valence
SciTegic.value.DoubleValue
8.053

@<SCITEGIC>MOL_PROPERTY
Coulomb
SciTegic.value.DoubleValue
-0.790

@<SCITEGIC>MOL_PROPERTY
VdW
SciTegic.value.DoubleValue
0.841

@<SCITEGIC>MOL_PROPERTY
VdW6
SciTegic.value.DoubleValue
-8.065

@<SCITEGIC>MOL_PROPERTY
VdW12
SciTegic.value.DoubleValue
8.906

@<SCITEGIC>MOL_PROPERTY
Bond
SciTegic.value.DoubleValue
0.172

@<SCITEGIC>MOL_PROPERTY
Angle
SciTegic.value.DoubleValue
2.891

@<SCITEGIC>MOL_PROPERTY
Pdih
SciTegic.value.DoubleValue
4.988

@<SCITEGIC>MOL_PROPERTY
Idih
SciTegic.value.DoubleValue
0.000

@<SCITEGIC>MOL_PROPERTY
Tether
SciTegic.value.DoubleValue
0.000

@<TRIPOS>MOLECULE
guest-s21_vm2.mol2 : vm2 ligand conformer 18
          22          21           1
SMALL
USER_CHARGES
 
@<TRIPOS>ATOM
       1    C1      19.597655   19.273384   25.679175 C.2        1 MOL1         0.6145
       2    O1      19.419591   20.466844   25.823608 O.co2      1 MOL1        -0.6735
       3    O2      18.809996   18.426149   26.051551 O.co2      1 MOL1        -0.6735
       4    C2      20.891899   18.814980   25.012923 C.3        1 MOL1        -0.1985
       5    H1      21.067239   17.764387   25.274361 H          1 MOL1         0.0740
       6    H2      21.711713   19.393000   25.455458 H          1 MOL1         0.0740
       7    C3      20.904642   18.993830   23.472524 C.3        1 MOL1        -0.1882
       8    H3      20.708122   20.047773   23.235423 H          1 MOL1         0.0742
       9    H4      21.910372   18.765064   23.095112 H          1 MOL1         0.0742
      10    C4      19.873460   18.084318   22.762584 C.3        1 MOL1        -0.1880
      11    H5      18.856901   18.352707   23.081771 H          1 MOL1         0.0742
      12    H6      20.033709   17.045693   23.082612 H          1 MOL1         0.0742
      13    C5      19.960935   18.141844   21.219026 C.3        1 MOL1        -0.1880
      14    H7      20.974418   17.866236   20.896911 H          1 MOL1         0.0742
      15    H8      19.285557   17.381384   20.803750 H          1 MOL1         0.0742
      16    C6      19.584481   19.521002   20.632195 C.3        1 MOL1        -0.1856
      17    H9      20.295580   20.284488   20.973935 H          1 MOL1         0.0742
      18    H10     18.592339   19.820551   20.997150 H          1 MOL1         0.0742
      19    C7      19.577342   19.496649   19.090414 C.3        1 MOL1        -0.2871
      20    H11     19.311461   20.483297   18.689301 H          1 MOL1         0.0754
      21    H12     18.847296   18.769233   18.711932 H          1 MOL1         0.0754
      22    H13     20.566292   19.226253   18.697684 H          1 MOL1         0.0754
@<TRIPOS>BOND
    1     1     2    1
    2     1     3    2
    3     1     4    1
    4     4     5    1
    5     4     6    1
    6     4     7    1
    7     7     8    1
    8     7     9    1
    9     7    10    1
   10    10    11    1
   11    10    12    1
   12    10    13    1
   13    13    14    1
   14    13    15    1
   15    13    16    1
   16    16    17    1
   17    16    18    1
   18    16    19    1
   19    19    20    1
   20    19    21    1
   21    19    22    1
@<TRIPOS>SUBSTRUCTURE
       1 MOL1            1 RESIDUE      1      MOL     
@<SCITEGIC>MOL_PROPERTY
VM2 Rank
SciTegic.value.IntegerValue
18

@<SCITEGIC>MOL_PROPERTY
Conf_Id
SciTegic.value.IntegerValue
332

@<SCITEGIC>MOL_PROPERTY
Probability
SciTegic.value.DoubleValue
0.73

@<SCITEGIC>MOL_PROPERTY
Sum Probability
SciTegic.value.DoubleValue
93.34

@<SCITEGIC>MOL_PROPERTY
Delta G
SciTegic.value.DoubleValue
2.267

@<SCITEGIC>MOL_PROPERTY
G
SciTegic.value.DoubleValue
-14.731

@<SCITEGIC>MOL_PROPERTY
E
SciTegic.value.DoubleValue
-34.712

@<SCITEGIC>MOL_PROPERTY
-TS
SciTegic.value.DoubleValue
19.980

@<SCITEGIC>MOL_PROPERTY
U+W
SciTegic.value.DoubleValue
-52.596

@<SCITEGIC>MOL_PROPERTY
U
SciTegic.value.DoubleValue
8.925

@<SCITEGIC>MOL_PROPERTY
W
SciTegic.value.DoubleValue
-61.521

@<SCITEGIC>MOL_PROPERTY
W(PB)
SciTegic.value.DoubleValue
-63.790

@<SCITEGIC>MOL_PROPERTY
W(SA)
SciTegic.value.DoubleValue
2.269

@<SCITEGIC>MOL_PROPERTY
Valence
SciTegic.value.DoubleValue
7.882

@<SCITEGIC>MOL_PROPERTY
Coulomb
SciTegic.value.DoubleValue
0.348

@<SCITEGIC>MOL_PROPERTY
VdW
SciTegic.value.DoubleValue
0.695

@<SCITEGIC>MOL_PROPERTY
VdW6
SciTegic.value.DoubleValue
-8.049

@<SCITEGIC>MOL_PROPERTY
VdW12
SciTegic.value.DoubleValue
8.743

@<SCITEGIC>MOL_PROPERTY
Bond
SciTegic.value.DoubleValue
0.156

@<SCITEGIC>MOL_PROPERTY
Angle
SciTegic.value.DoubleValue
2.660

@<SCITEGIC>MOL_PROPERTY
Pdih
SciTegic.value.DoubleValue
5.065

@<SCITEGIC>MOL_PROPERTY
Idih
SciTegic.value.DoubleValue
0.001

@<SCITEGIC>MOL_PROPERTY
Tether
SciTegic.value.DoubleValue
0.000

@<TRIPOS>MOLECULE
guest-s21_vm2.mol2 : vm2 ligand conformer 19
          22          21           1
SMALL
USER_CHARGES
 
@<TRIPOS>ATOM
       1    C1      20.008238   19.301224   25.672685 C.2        1 MOL1         0.6145
       2    O1      20.593449   20.363761   25.599639 O.co2      1 MOL1        -0.6735
       3    O2      20.410277   18.355475   26.321439 O.co2      1 MOL1        -0.6735
       4    C2      18.685313   19.150980   24.926708 C.3        1 MOL1        -0.1985
       5    H1      18.302617   20.150607   24.687556 H          1 MOL1         0.0740
       6    H2      17.968537   18.694014   25.619111 H          1 MOL1         0.0740
       7    C3      18.781104   18.292129   23.638957 C.3        1 MOL1        -0.1882
       8    H3      19.191048   17.304074   23.890521 H          1 MOL1         0.0742
       9    H4      17.769085   18.124088   23.246402 H          1 MOL1         0.0742
      10    C4      19.647415   18.955896   22.544932 C.3        1 MOL1        -0.1880
      11    H5      20.667762   19.108328   22.922778 H          1 MOL1         0.0742
      12    H6      19.239603   19.949172   22.316686 H          1 MOL1         0.0742
      13    C5      19.698104   18.098446   21.259371 C.3        1 MOL1        -0.1880
      14    H7      20.041756   17.087516   21.517907 H          1 MOL1         0.0742
      15    H8      18.685585   17.987323   20.847873 H          1 MOL1         0.0742
      16    C6      20.637134   18.673382   20.173572 C.3        1 MOL1        -0.1856
      17    H9      20.707577   17.950123   19.349469 H          1 MOL1         0.0742
      18    H10     21.652346   18.780577   20.580008 H          1 MOL1         0.0742
      19    C7      20.158966   20.027708   19.606696 C.3        1 MOL1        -0.2871
      20    H11     20.807570   20.348795   18.781396 H          1 MOL1         0.0754
      21    H12     20.182724   20.813216   20.372324 H          1 MOL1         0.0754
      22    H13     19.133798   19.952493   19.221357 H          1 MOL1         0.0754
@<TRIPOS>BOND
    1     1     2    1
    2     1     3    2
    3     1     4    1
    4     4     5    1
    5     4     6    1
    6     4     7    1
    7     7     8    1
    8     7     9    1
    9     7    10    1
   10    10    11    1
   11    10    12    1
   12    10    13    1
   13    13    14    1
   14    13    15    1
   15    13    16    1
   16    16    17    1
   17    16    18    1
   18    16    19    1
   19    19    20    1
   20    19    21    1
   21    19    22    1
@<TRIPOS>SUBSTRUCTURE
       1 MOL1            1 RESIDUE      1      MOL     
@<SCITEGIC>MOL_PROPERTY
VM2 Rank
SciTegic.value.IntegerValue
19

@<SCITEGIC>MOL_PROPERTY
Conf_Id
SciTegic.value.IntegerValue
524

@<SCITEGIC>MOL_PROPERTY
Probability
SciTegic.value.DoubleValue
0.61

@<SCITEGIC>MOL_PROPERTY
Sum Probability
SciTegic.value.DoubleValue
93.95

@<SCITEGIC>MOL_PROPERTY
Delta G
SciTegic.value.DoubleValue
2.367

@<SCITEGIC>MOL_PROPERTY
G
SciTegic.value.DoubleValue
-14.631

@<SCITEGIC>MOL_PROPERTY
E
SciTegic.value.DoubleValue
-34.616

@<SCITEGIC>MOL_PROPERTY
-TS
SciTegic.value.DoubleValue
19.986

@<SCITEGIC>MOL_PROPERTY
U+W
SciTegic.value.DoubleValue
-52.501

@<SCITEGIC>MOL_PROPERTY
U
SciTegic.value.DoubleValue
9.110

@<SCITEGIC>MOL_PROPERTY
W
SciTegic.value.DoubleValue
-61.612

@<SCITEGIC>MOL_PROPERTY
W(PB)
SciTegic.value.DoubleValue
-63.897

@<SCITEGIC>MOL_PROPERTY
W(SA)
SciTegic.value.DoubleValue
2.285

@<SCITEGIC>MOL_PROPERTY
Valence
SciTegic.value.DoubleValue
7.861

@<SCITEGIC>MOL_PROPERTY
Coulomb
SciTegic.value.DoubleValue
0.530

@<SCITEGIC>MOL_PROPERTY
VdW
SciTegic.value.DoubleValue
0.720

@<SCITEGIC>MOL_PROPERTY
VdW6
SciTegic.value.DoubleValue
-7.989

@<SCITEGIC>MOL_PROPERTY
VdW12
SciTegic.value.DoubleValue
8.709

@<SCITEGIC>MOL_PROPERTY
Bond
SciTegic.value.DoubleValue
0.152

@<SCITEGIC>MOL_PROPERTY
Angle
SciTegic.value.DoubleValue
2.653

@<SCITEGIC>MOL_PROPERTY
Pdih
SciTegic.value.DoubleValue
5.055

@<SCITEGIC>MOL_PROPERTY
Idih
SciTegic.value.DoubleValue
0.001

@<SCITEGIC>MOL_PROPERTY
Tether
SciTegic.value.DoubleValue
0.000

@<TRIPOS>MOLECULE
guest-s21_vm2.mol2 : vm2 ligand conformer 20
          22          21           1
SMALL
USER_CHARGES
 
@<TRIPOS>ATOM
       1    C1      20.125197   19.269627   25.595485 C.2        1 MOL1         0.6145
       2    O1      20.551322   20.405316   25.521867 O.co2      1 MOL1        -0.6735
       3    O2      20.738804   18.352967   26.105558 O.co2      1 MOL1        -0.6735
       4    C2      18.734267   18.981129   25.037457 C.3        1 MOL1        -0.1985
       5    H1      18.194567   19.930296   24.934015 H          1 MOL1         0.0740
       6    H2      18.196149   18.390206   25.787957 H          1 MOL1         0.0740
       7    C3      18.741593   18.219469   23.686542 C.3        1 MOL1        -0.1882
       8    H3      19.310740   17.286037   23.797936 H          1 MOL1         0.0742
       9    H4      17.711665   17.933643   23.433509 H          1 MOL1         0.0742
      10    C4      19.335700   19.059649   22.533641 C.3        1 MOL1        -0.1880
      11    H5      20.368996   19.335904   22.781344 H          1 MOL1         0.0742
      12    H6      18.769953   19.995819   22.432618 H          1 MOL1         0.0742
      13    C5      19.306143   18.290096   21.192942 C.3        1 MOL1        -0.1880
      14    H7      19.913584   17.378506   21.276243 H          1 MOL1         0.0742
      15    H8      18.277395   17.961331   20.991810 H          1 MOL1         0.0742
      16    C6      19.796551   19.130194   19.990812 C.3        1 MOL1        -0.1856
      17    H9      19.188025   20.040701   19.901549 H          1 MOL1         0.0742
      18    H10     19.632293   18.555597   19.068820 H          1 MOL1         0.0742
      19    C7      21.290423   19.510554   20.079697 C.3        1 MOL1        -0.2871
      20    H11     21.483177   20.182266   20.925585 H          1 MOL1         0.0754
      21    H12     21.609945   20.027529   19.165622 H          1 MOL1         0.0754
      22    H13     21.916909   18.617072   20.199359 H          1 MOL1         0.0754
@<TRIPOS>BOND
    1     1     2    1
    2     1     3    2
    3     1     4    1
    4     4     5    1
    5     4     6    1
    6     4     7    1
    7     7     8    1
    8     7     9    1
    9     7    10    1
   10    10    11    1
   11    10    12    1
   12    10    13    1
   13    13    14    1
   14    13    15    1
   15    13    16    1
   16    16    17    1
   17    16    18    1
   18    16    19    1
   19    19    20    1
   20    19    21    1
   21    19    22    1
@<TRIPOS>SUBSTRUCTURE
       1 MOL1            1 RESIDUE      1      MOL     
@<SCITEGIC>MOL_PROPERTY
VM2 Rank
SciTegic.value.IntegerValue
20

@<SCITEGIC>MOL_PROPERTY
Conf_Id
SciTegic.value.IntegerValue
521

@<SCITEGIC>MOL_PROPERTY
Probability
SciTegic.value.DoubleValue
0.59

@<SCITEGIC>MOL_PROPERTY
Sum Probability
SciTegic.value.DoubleValue
94.54

@<SCITEGIC>MOL_PROPERTY
Delta G
SciTegic.value.DoubleValue
2.388

@<SCITEGIC>MOL_PROPERTY
G
SciTegic.value.DoubleValue
-14.610

@<SCITEGIC>MOL_PROPERTY
E
SciTegic.value.DoubleValue
-34.607

@<SCITEGIC>MOL_PROPERTY
-TS
SciTegic.value.DoubleValue
19.997

@<SCITEGIC>MOL_PROPERTY
U+W
SciTegic.value.DoubleValue
-52.492

@<SCITEGIC>MOL_PROPERTY
U
SciTegic.value.DoubleValue
9.376

@<SCITEGIC>MOL_PROPERTY
W
SciTegic.value.DoubleValue
-61.868

@<SCITEGIC>MOL_PROPERTY
W(PB)
SciTegic.value.DoubleValue
-64.156

@<SCITEGIC>MOL_PROPERTY
W(SA)
SciTegic.value.DoubleValue
2.288

@<SCITEGIC>MOL_PROPERTY
Valence
SciTegic.value.DoubleValue
7.861

@<SCITEGIC>MOL_PROPERTY
Coulomb
SciTegic.value.DoubleValue
0.810

@<SCITEGIC>MOL_PROPERTY
VdW
SciTegic.value.DoubleValue
0.706

@<SCITEGIC>MOL_PROPERTY
VdW6
SciTegic.value.DoubleValue
-8.019

@<SCITEGIC>MOL_PROPERTY
VdW12
SciTegic.value.DoubleValue
8.725

@<SCITEGIC>MOL_PROPERTY
Bond
SciTegic.value.DoubleValue
0.153

@<SCITEGIC>MOL_PROPERTY
Angle
SciTegic.value.DoubleValue
2.651

@<SCITEGIC>MOL_PROPERTY
Pdih
SciTegic.value.DoubleValue
5.056

@<SCITEGIC>MOL_PROPERTY
Idih
SciTegic.value.DoubleValue
0.001

@<SCITEGIC>MOL_PROPERTY
Tether
SciTegic.value.DoubleValue
0.000

@<TRIPOS>MOLECULE
guest-s21_vm2.mol2 : vm2 ligand conformer 21
          22          21           1
SMALL
USER_CHARGES
 
@<TRIPOS>ATOM
       1    C1      19.616159   18.931975   25.692262 C.2        1 MOL1         0.6145
       2    O1      18.740214   19.715272   26.002171 O.co2      1 MOL1        -0.6735
       3    O2      19.567214   17.740793   25.928060 O.co2      1 MOL1        -0.6735
       4    C2      20.856154   19.475081   24.987602 C.3        1 MOL1        -0.1985
       5    H1      21.731694   19.024375   25.469610 H          1 MOL1         0.0740
       6    H2      20.916047   20.555341   25.167297 H          1 MOL1         0.0740
       7    C3      20.894504   19.181517   23.465325 C.3        1 MOL1        -0.1882
       8    H3      21.871225   19.487986   23.067382 H          1 MOL1         0.0742
       9    H4      20.813854   18.097510   23.310228 H          1 MOL1         0.0742
      10    C4      19.774137   19.917546   22.692279 C.3        1 MOL1        -0.1880
      11    H5      19.820067   20.988790   22.931370 H          1 MOL1         0.0742
      12    H6      18.791167   19.566210   23.035261 H          1 MOL1         0.0742
      13    C5      19.873663   19.752064   21.157275 C.3        1 MOL1        -0.1880
      14    H7      19.121888   20.401259   20.687946 H          1 MOL1         0.0742
      15    H8      20.852807   20.110006   20.810839 H          1 MOL1         0.0742
      16    C6      19.650643   18.299571   20.679059 C.3        1 MOL1        -0.1856
      17    H9      18.695110   17.923476   21.069923 H          1 MOL1         0.0742
      18    H10     20.438543   17.645611   21.075175 H          1 MOL1         0.0742
      19    C7      19.647313   18.205181   19.139966 C.3        1 MOL1        -0.2871
      20    H11     19.491124   17.167867   18.816481 H          1 MOL1         0.0754
      21    H12     20.602929   18.549927   18.723649 H          1 MOL1         0.0754
      22    H13     18.844610   18.818523   18.710048 H          1 MOL1         0.0754
@<TRIPOS>BOND
    1     1     2    1
    2     1     3    2
    3     1     4    1
    4     4     5    1
    5     4     6    1
    6     4     7    1
    7     7     8    1
    8     7     9    1
    9     7    10    1
   10    10    11    1
   11    10    12    1
   12    10    13    1
   13    13    14    1
   14    13    15    1
   15    13    16    1
   16    16    17    1
   17    16    18    1
   18    16    19    1
   19    19    20    1
   20    19    21    1
   21    19    22    1
@<TRIPOS>SUBSTRUCTURE
       1 MOL1            1 RESIDUE      1      MOL     
@<SCITEGIC>MOL_PROPERTY
VM2 Rank
SciTegic.value.IntegerValue
21

@<SCITEGIC>MOL_PROPERTY
Conf_Id
SciTegic.value.IntegerValue
116

@<SCITEGIC>MOL_PROPERTY
Probability
SciTegic.value.DoubleValue
0.59

@<SCITEGIC>MOL_PROPERTY
Sum Probability
SciTegic.value.DoubleValue
95.13

@<SCITEGIC>MOL_PROPERTY
Delta G
SciTegic.value.DoubleValue
2.388

@<SCITEGIC>MOL_PROPERTY
G
SciTegic.value.DoubleValue
-14.610

@<SCITEGIC>MOL_PROPERTY
E
SciTegic.value.DoubleValue
-34.590

@<SCITEGIC>MOL_PROPERTY
-TS
SciTegic.value.DoubleValue
19.980

@<SCITEGIC>MOL_PROPERTY
U+W
SciTegic.value.DoubleValue
-52.475

@<SCITEGIC>MOL_PROPERTY
U
SciTegic.value.DoubleValue
8.925

@<SCITEGIC>MOL_PROPERTY
W
SciTegic.value.DoubleValue
-61.400

@<SCITEGIC>MOL_PROPERTY
W(PB)
SciTegic.value.DoubleValue
-63.682

@<SCITEGIC>MOL_PROPERTY
W(SA)
SciTegic.value.DoubleValue
2.282

@<SCITEGIC>MOL_PROPERTY
Valence
SciTegic.value.DoubleValue
7.881

@<SCITEGIC>MOL_PROPERTY
Coulomb
SciTegic.value.DoubleValue
0.348

@<SCITEGIC>MOL_PROPERTY
VdW
SciTegic.value.DoubleValue
0.695

@<SCITEGIC>MOL_PROPERTY
VdW6
SciTegic.value.DoubleValue
-8.049

@<SCITEGIC>MOL_PROPERTY
VdW12
SciTegic.value.DoubleValue
8.743

@<SCITEGIC>MOL_PROPERTY
Bond
SciTegic.value.DoubleValue
0.156

@<SCITEGIC>MOL_PROPERTY
Angle
SciTegic.value.DoubleValue
2.660

@<SCITEGIC>MOL_PROPERTY
Pdih
SciTegic.value.DoubleValue
5.065

@<SCITEGIC>MOL_PROPERTY
Idih
SciTegic.value.DoubleValue
0.001

@<SCITEGIC>MOL_PROPERTY
Tether
SciTegic.value.DoubleValue
0.000

@<TRIPOS>MOLECULE
guest-s21_vm2.mol2 : vm2 ligand conformer 22
          22          21           1
SMALL
USER_CHARGES
 
@<TRIPOS>ATOM
       1    C1      20.027435   18.948170   25.686195 C.2        1 MOL1         0.6145
       2    O1      20.322380   19.978610   26.259047 O.co2      1 MOL1        -0.6735
       3    O2      20.724207   17.952547   25.692159 O.co2      1 MOL1        -0.6735
       4    C2      18.699081   18.897258   24.936483 C.3        1 MOL1        -0.1985
       5    H1      17.934333   19.325722   25.594955 H          1 MOL1         0.0740
       6    H2      18.427536   17.846822   24.776012 H          1 MOL1         0.0740
       7    C3      18.706827   19.660516   23.586490 C.3        1 MOL1        -0.1882
       8    H3      17.684203   19.687727   23.186465 H          1 MOL1         0.0742
       9    H4      19.006556   20.703400   23.760128 H          1 MOL1         0.0742
      10    C4      19.644308   19.012634   22.542767 C.3        1 MOL1        -0.1880
      11    H5      19.347238   17.966558   22.392826 H          1 MOL1         0.0742
      12    H6      20.673602   19.000765   22.926857 H          1 MOL1         0.0742
      13    C5      19.607222   19.769746   21.195225 C.3        1 MOL1        -0.1880
      14    H7      18.590332   19.738863   20.780673 H          1 MOL1         0.0742
      15    H8      19.838382   20.828716   21.374298 H          1 MOL1         0.0742
      16    C6      20.607432   19.218520   20.152621 C.3        1 MOL1        -0.1856
      17    H9      21.626609   19.253319   20.561768 H          1 MOL1         0.0742
      18    H10     20.602495   19.879983   19.275321 H          1 MOL1         0.0742
      19    C7      20.281107   17.780999   19.693015 C.3        1 MOL1        -0.2871
      20    H11     20.386683   17.063565   20.516371 H          1 MOL1         0.0754
      21    H12     20.964051   17.469878   18.891956 H          1 MOL1         0.0754
      22    H13     19.255411   17.715025   19.307388 H          1 MOL1         0.0754
@<TRIPOS>BOND
    1     1     2    1
    2     1     3    2
    3     1     4    1
    4     4     5    1
    5     4     6    1
    6     4     7    1
    7     7     8    1
    8     7     9    1
    9     7    10    1
   10    10    11    1
   11    10    12    1
   12    10    13    1
   13    13    14    1
   14    13    15    1
   15    13    16    1
   16    16    17    1
   17    16    18    1
   18    16    19    1
   19    19    20    1
   20    19    21    1
   21    19    22    1
@<TRIPOS>SUBSTRUCTURE
       1 MOL1            1 RESIDUE      1      MOL     
@<SCITEGIC>MOL_PROPERTY
VM2 Rank
SciTegic.value.IntegerValue
22

@<SCITEGIC>MOL_PROPERTY
Conf_Id
SciTegic.value.IntegerValue
88

@<SCITEGIC>MOL_PROPERTY
Probability
SciTegic.value.DoubleValue
0.59

@<SCITEGIC>MOL_PROPERTY
Sum Probability
SciTegic.value.DoubleValue
95.72

@<SCITEGIC>MOL_PROPERTY
Delta G
SciTegic.value.DoubleValue
2.391

@<SCITEGIC>MOL_PROPERTY
G
SciTegic.value.DoubleValue
-14.607

@<SCITEGIC>MOL_PROPERTY
E
SciTegic.value.DoubleValue
-34.592

@<SCITEGIC>MOL_PROPERTY
-TS
SciTegic.value.DoubleValue
19.986

@<SCITEGIC>MOL_PROPERTY
U+W
SciTegic.value.DoubleValue
-52.477

@<SCITEGIC>MOL_PROPERTY
U
SciTegic.value.DoubleValue
9.110

@<SCITEGIC>MOL_PROPERTY
W
SciTegic.value.DoubleValue
-61.588

@<SCITEGIC>MOL_PROPERTY
W(PB)
SciTegic.value.DoubleValue
-63.876

@<SCITEGIC>MOL_PROPERTY
W(SA)
SciTegic.value.DoubleValue
2.289

@<SCITEGIC>MOL_PROPERTY
Valence
SciTegic.value.DoubleValue
7.861

@<SCITEGIC>MOL_PROPERTY
Coulomb
SciTegic.value.DoubleValue
0.530

@<SCITEGIC>MOL_PROPERTY
VdW
SciTegic.value.DoubleValue
0.720

@<SCITEGIC>MOL_PROPERTY
VdW6
SciTegic.value.DoubleValue
-7.989

@<SCITEGIC>MOL_PROPERTY
VdW12
SciTegic.value.DoubleValue
8.708

@<SCITEGIC>MOL_PROPERTY
Bond
SciTegic.value.DoubleValue
0.152

@<SCITEGIC>MOL_PROPERTY
Angle
SciTegic.value.DoubleValue
2.653

@<SCITEGIC>MOL_PROPERTY
Pdih
SciTegic.value.DoubleValue
5.055

@<SCITEGIC>MOL_PROPERTY
Idih
SciTegic.value.DoubleValue
0.001

@<SCITEGIC>MOL_PROPERTY
Tether
SciTegic.value.DoubleValue
0.000

@<TRIPOS>MOLECULE
guest-s21_vm2.mol2 : vm2 ligand conformer 23
          22          21           1
SMALL
USER_CHARGES
 
@<TRIPOS>ATOM
       1    C1      19.455223   19.024328   25.591986 C.2        1 MOL1         0.6145
       2    O1      18.397387   19.616978   25.511090 O.co2      1 MOL1        -0.6735
       3    O2      19.573811   17.926556   26.099714 O.co2      1 MOL1        -0.6735
       4    C2      20.708690   19.703722   25.047415 C.3        1 MOL1        -0.1985
       5    H1      21.494399   19.597246   25.804604 H          1 MOL1         0.0740
       6    H2      20.509085   20.777373   24.945787 H          1 MOL1         0.0740
       7    C3      21.206819   19.121827   23.698928 C.3        1 MOL1        -0.1882
       8    H3      22.180066   19.569323   23.456004 H          1 MOL1         0.0742
       9    H4      21.373853   18.041185   23.808220 H          1 MOL1         0.0742
      10    C4      20.220949   19.383700   22.538097 C.3        1 MOL1        -0.1880
      11    H5      20.049444   20.464202   22.439133 H          1 MOL1         0.0742
      12    H6      19.251364   18.926730   22.775697 H          1 MOL1         0.0742
      13    C5      20.752240   18.819549   21.200180 C.3        1 MOL1        -0.1880
      14    H7      21.751805   19.233397   21.009227 H          1 MOL1         0.0742
      15    H8      20.876273   17.730971   21.281013 H          1 MOL1         0.0742
      16    C6      19.845973   19.148341   19.991064 C.3        1 MOL1        -0.1856
      17    H9      20.350521   18.818598   19.072416 H          1 MOL1         0.0742
      18    H10     19.723560   20.236814   19.904241 H          1 MOL1         0.0742
      19    C7      18.458908   18.473998   20.065527 C.3        1 MOL1        -0.2871
      20    H11     18.556345   17.386834   20.182553 H          1 MOL1         0.0754
      21    H12     17.889217   18.665427   19.146996 H          1 MOL1         0.0754
      22    H13     17.870561   18.859763   20.907495 H          1 MOL1         0.0754
@<TRIPOS>BOND
    1     1     2    1
    2     1     3    2
    3     1     4    1
    4     4     5    1
    5     4     6    1
    6     4     7    1
    7     7     8    1
    8     7     9    1
    9     7    10    1
   10    10    11    1
   11    10    12    1
   12    10    13    1
   13    13    14    1
   14    13    15    1
   15    13    16    1
   16    16    17    1
   17    16    18    1
   18    16    19    1
   19    19    20    1
   20    19    21    1
   21    19    22    1
@<TRIPOS>SUBSTRUCTURE
       1 MOL1            1 RESIDUE      1      MOL     
@<SCITEGIC>MOL_PROPERTY
VM2 Rank
SciTegic.value.IntegerValue
23

@<SCITEGIC>MOL_PROPERTY
Conf_Id
SciTegic.value.IntegerValue
172

@<SCITEGIC>MOL_PROPERTY
Probability
SciTegic.value.DoubleValue
0.58

@<SCITEGIC>MOL_PROPERTY
Sum Probability
SciTegic.value.DoubleValue
96.30

@<SCITEGIC>MOL_PROPERTY
Delta G
SciTegic.value.DoubleValue
2.398

@<SCITEGIC>MOL_PROPERTY
G
SciTegic.value.DoubleValue
-14.600

@<SCITEGIC>MOL_PROPERTY
E
SciTegic.value.DoubleValue
-34.597

@<SCITEGIC>MOL_PROPERTY
-TS
SciTegic.value.DoubleValue
19.997

@<SCITEGIC>MOL_PROPERTY
U+W
SciTegic.value.DoubleValue
-52.482

@<SCITEGIC>MOL_PROPERTY
U
SciTegic.value.DoubleValue
9.376

@<SCITEGIC>MOL_PROPERTY
W
SciTegic.value.DoubleValue
-61.858

@<SCITEGIC>MOL_PROPERTY
W(PB)
SciTegic.value.DoubleValue
-64.146

@<SCITEGIC>MOL_PROPERTY
W(SA)
SciTegic.value.DoubleValue
2.288

@<SCITEGIC>MOL_PROPERTY
Valence
SciTegic.value.DoubleValue
7.861

@<SCITEGIC>MOL_PROPERTY
Coulomb
SciTegic.value.DoubleValue
0.809

@<SCITEGIC>MOL_PROPERTY
VdW
SciTegic.value.DoubleValue
0.706

@<SCITEGIC>MOL_PROPERTY
VdW6
SciTegic.value.DoubleValue
-8.019

@<SCITEGIC>MOL_PROPERTY
VdW12
SciTegic.value.DoubleValue
8.725

@<SCITEGIC>MOL_PROPERTY
Bond
SciTegic.value.DoubleValue
0.153

@<SCITEGIC>MOL_PROPERTY
Angle
SciTegic.value.DoubleValue
2.651

@<SCITEGIC>MOL_PROPERTY
Pdih
SciTegic.value.DoubleValue
5.056

@<SCITEGIC>MOL_PROPERTY
Idih
SciTegic.value.DoubleValue
0.001

@<SCITEGIC>MOL_PROPERTY
Tether
SciTegic.value.DoubleValue
0.000

@<TRIPOS>MOLECULE
guest-s21_vm2.mol2 : vm2 ligand conformer 24
          22          21           1
SMALL
USER_CHARGES
 
@<TRIPOS>ATOM
       1    C1      19.755315   19.082635   25.839982 C.2        1 MOL1         0.6145
       2    O1      18.822003   19.802273   26.136483 O.co2      1 MOL1        -0.6735
       3    O2      19.925789   17.974947   26.309972 O.co2      1 MOL1        -0.6735
       4    C2      20.781270   19.604318   24.837700 C.3        1 MOL1        -0.1985
       5    H1      21.775807   19.393125   25.247972 H          1 MOL1         0.0740
       6    H2      20.688362   20.695425   24.776530 H          1 MOL1         0.0740
       7    C3      20.660807   18.976796   23.424436 C.3        1 MOL1        -0.1882
       8    H3      21.526195   19.293762   22.828785 H          1 MOL1         0.0742
       9    H4      20.715251   17.882400   23.506498 H          1 MOL1         0.0742
      10    C4      19.353668   19.384580   22.703115 C.3        1 MOL1        -0.1880
      11    H5      19.320826   20.476189   22.584316 H          1 MOL1         0.0742
      12    H6      18.495163   19.116529   23.334073 H          1 MOL1         0.0742
      13    C5      19.173250   18.707105   21.323880 C.3        1 MOL1        -0.1880
      14    H7      19.206402   17.615502   21.443134 H          1 MOL1         0.0742
      15    H8      18.169625   18.947741   20.947403 H          1 MOL1         0.0742
      16    C6      20.220149   19.149305   20.276561 C.3        1 MOL1        -0.1856
      17    H9      21.226063   18.846181   20.595107 H          1 MOL1         0.0742
      18    H10     20.224998   20.245145   20.197145 H          1 MOL1         0.0742
      19    C7      19.927748   18.537041   18.891870 C.3        1 MOL1        -0.2871
      20    H11     19.943637   17.440167   18.936586 H          1 MOL1         0.0754
      21    H12     20.681028   18.857448   18.160453 H          1 MOL1         0.0754
      22    H13     18.942512   18.851093   18.523036 H          1 MOL1         0.0754
@<TRIPOS>BOND
    1     1     2    1
    2     1     3    2
    3     1     4    1
    4     4     5    1
    5     4     6    1
    6     4     7    1
    7     7     8    1
    8     7     9    1
    9     7    10    1
   10    10    11    1
   11    10    12    1
   12    10    13    1
   13    13    14    1
   14    13    15    1
   15    13    16    1
   16    16    17    1
   17    16    18    1
   18    16    19    1
   19    19    20    1
   20    19    21    1
   21    19    22    1
@<TRIPOS>SUBSTRUCTURE
       1 MOL1            1 RESIDUE      1      MOL     
@<SCITEGIC>MOL_PROPERTY
VM2 Rank
SciTegic.value.IntegerValue
24

@<SCITEGIC>MOL_PROPERTY
Conf_Id
SciTegic.value.IntegerValue
510

@<SCITEGIC>MOL_PROPERTY
Probability
SciTegic.value.DoubleValue
0.58

@<SCITEGIC>MOL_PROPERTY
Sum Probability
SciTegic.value.DoubleValue
96.88

@<SCITEGIC>MOL_PROPERTY
Delta G
SciTegic.value.DoubleValue
2.401

@<SCITEGIC>MOL_PROPERTY
G
SciTegic.value.DoubleValue
-14.597

@<SCITEGIC>MOL_PROPERTY
E
SciTegic.value.DoubleValue
-34.585

@<SCITEGIC>MOL_PROPERTY
-TS
SciTegic.value.DoubleValue
19.988

@<SCITEGIC>MOL_PROPERTY
U+W
SciTegic.value.DoubleValue
-52.470

@<SCITEGIC>MOL_PROPERTY
U
SciTegic.value.DoubleValue
8.586

@<SCITEGIC>MOL_PROPERTY
W
SciTegic.value.DoubleValue
-61.056

@<SCITEGIC>MOL_PROPERTY
W(PB)
SciTegic.value.DoubleValue
-63.353

@<SCITEGIC>MOL_PROPERTY
W(SA)
SciTegic.value.DoubleValue
2.296

@<SCITEGIC>MOL_PROPERTY
Valence
SciTegic.value.DoubleValue
7.933

@<SCITEGIC>MOL_PROPERTY
Coulomb
SciTegic.value.DoubleValue
-0.125

@<SCITEGIC>MOL_PROPERTY
VdW
SciTegic.value.DoubleValue
0.778

@<SCITEGIC>MOL_PROPERTY
VdW6
SciTegic.value.DoubleValue
-7.981

@<SCITEGIC>MOL_PROPERTY
VdW12
SciTegic.value.DoubleValue
8.759

@<SCITEGIC>MOL_PROPERTY
Bond
SciTegic.value.DoubleValue
0.160

@<SCITEGIC>MOL_PROPERTY
Angle
SciTegic.value.DoubleValue
2.698

@<SCITEGIC>MOL_PROPERTY
Pdih
SciTegic.value.DoubleValue
5.074

@<SCITEGIC>MOL_PROPERTY
Idih
SciTegic.value.DoubleValue
0.000

@<SCITEGIC>MOL_PROPERTY
Tether
SciTegic.value.DoubleValue
0.000

@<TRIPOS>MOLECULE
guest-s21_vm2.mol2 : vm2 ligand conformer 25
          22          21           1
SMALL
USER_CHARGES
 
@<TRIPOS>ATOM
       1    C1      19.839785   19.115107   25.840698 C.2        1 MOL1         0.6145
       2    O1      20.046618   20.272942   26.146477 O.co2      1 MOL1        -0.6735
       3    O2      20.448797   18.175846   26.313791 O.co2      1 MOL1        -0.6735
       4    C2      18.742721   18.820876   24.821294 C.3        1 MOL1        -0.1985
       5    H1      18.081849   19.693699   24.755581 H          1 MOL1         0.0740
       6    H2      18.139956   17.995776   25.218676 H          1 MOL1         0.0740
       7    C3      19.272249   18.443216   23.413251 C.3        1 MOL1        -0.1882
       8    H3      19.963591   17.593597   23.500412 H          1 MOL1         0.0742
       9    H4      18.425780   18.102284   22.803807 H          1 MOL1         0.0742
      10    C4      19.979821   19.625352   22.708193 C.3        1 MOL1        -0.1880
      11    H5      20.787877   19.997856   23.352614 H          1 MOL1         0.0742
      12    H6      19.274795   20.458602   22.583959 H          1 MOL1         0.0742
      13    C5      20.586920   19.250557   21.335318 C.3        1 MOL1        -0.1880
      14    H7      21.176089   20.103505   20.971636 H          1 MOL1         0.0742
      15    H8      21.291828   18.417209   21.460029 H          1 MOL1         0.0742
      16    C6      19.528233   18.883233   20.271044 C.3        1 MOL1        -0.1856
      17    H9      18.791722   19.694065   20.185606 H          1 MOL1         0.0742
      18    H10     18.980032   17.982670   20.577118 H          1 MOL1         0.0742
      19    C7      20.174854   18.631872   18.893933 C.3        1 MOL1        -0.2871
      20    H11     20.701089   19.526962   18.537213 H          1 MOL1         0.0754
      21    H12     19.411278   18.369099   18.150316 H          1 MOL1         0.0754
      22    H13     20.897150   17.806567   18.944391 H          1 MOL1         0.0754
@<TRIPOS>BOND
    1     1     2    1
    2     1     3    2
    3     1     4    1
    4     4     5    1
    5     4     6    1
    6     4     7    1
    7     7     8    1
    8     7     9    1
    9     7    10    1
   10    10    11    1
   11    10    12    1
   12    10    13    1
   13    13    14    1
   14    13    15    1
   15    13    16    1
   16    16    17    1
   17    16    18    1
   18    16    19    1
   19    19    20    1
   20    19    21    1
   21    19    22    1
@<TRIPOS>SUBSTRUCTURE
       1 MOL1            1 RESIDUE      1      MOL     
@<SCITEGIC>MOL_PROPERTY
VM2 Rank
SciTegic.value.IntegerValue
25

@<SCITEGIC>MOL_PROPERTY
Conf_Id
SciTegic.value.IntegerValue
404

@<SCITEGIC>MOL_PROPERTY
Probability
SciTegic.value.DoubleValue
0.53

@<SCITEGIC>MOL_PROPERTY
Sum Probability
SciTegic.value.DoubleValue
97.42

@<SCITEGIC>MOL_PROPERTY
Delta G
SciTegic.value.DoubleValue
2.449

@<SCITEGIC>MOL_PROPERTY
G
SciTegic.value.DoubleValue
-14.549

@<SCITEGIC>MOL_PROPERTY
E
SciTegic.value.DoubleValue
-34.537

@<SCITEGIC>MOL_PROPERTY
-TS
SciTegic.value.DoubleValue
19.989

@<SCITEGIC>MOL_PROPERTY
U+W
SciTegic.value.DoubleValue
-52.422

@<SCITEGIC>MOL_PROPERTY
U
SciTegic.value.DoubleValue
8.587

@<SCITEGIC>MOL_PROPERTY
W
SciTegic.value.DoubleValue
-61.009

@<SCITEGIC>MOL_PROPERTY
W(PB)
SciTegic.value.DoubleValue
-63.305

@<SCITEGIC>MOL_PROPERTY
W(SA)
SciTegic.value.DoubleValue
2.296

@<SCITEGIC>MOL_PROPERTY
Valence
SciTegic.value.DoubleValue
7.933

@<SCITEGIC>MOL_PROPERTY
Coulomb
SciTegic.value.DoubleValue
-0.124

@<SCITEGIC>MOL_PROPERTY
VdW
SciTegic.value.DoubleValue
0.778

@<SCITEGIC>MOL_PROPERTY
VdW6
SciTegic.value.DoubleValue
-7.981

@<SCITEGIC>MOL_PROPERTY
VdW12
SciTegic.value.DoubleValue
8.759

@<SCITEGIC>MOL_PROPERTY
Bond
SciTegic.value.DoubleValue
0.160

@<SCITEGIC>MOL_PROPERTY
Angle
SciTegic.value.DoubleValue
2.698

@<SCITEGIC>MOL_PROPERTY
Pdih
SciTegic.value.DoubleValue
5.074

@<SCITEGIC>MOL_PROPERTY
Idih
SciTegic.value.DoubleValue
0.001

@<SCITEGIC>MOL_PROPERTY
Tether
SciTegic.value.DoubleValue
0.000

@<TRIPOS>MOLECULE
guest-s21_vm2.mol2 : vm2 ligand conformer 26
          22          21           1
SMALL
USER_CHARGES
 
@<TRIPOS>ATOM
       1    C1      19.975223   19.420266   25.449010 C.2        1 MOL1         0.6145
       2    O1      20.405979   20.498809   25.091400 O.co2      1 MOL1        -0.6735
       3    O2      19.159914   19.284163   26.340103 O.co2      1 MOL1        -0.6735
       4    C2      20.506973   18.164837   24.763211 C.3        1 MOL1        -0.1985
       5    H1      20.826665   17.473784   25.551855 H          1 MOL1         0.0740
       6    H2      21.408340   18.428083   24.198185 H          1 MOL1         0.0740
       7    C3      19.472677   17.455059   23.847181 C.3        1 MOL1        -0.1882
       8    H3      19.917393   16.533140   23.448868 H          1 MOL1         0.0742
       9    H4      18.615369   17.143236   24.459666 H          1 MOL1         0.0742
      10    C4      18.956609   18.321128   22.671914 C.3        1 MOL1        -0.1880
      11    H5      18.468147   19.224238   23.063141 H          1 MOL1         0.0742
      12    H6      18.179972   17.755990   22.138763 H          1 MOL1         0.0742
      13    C5      20.064066   18.723195   21.671017 C.3        1 MOL1        -0.1880
      14    H7      20.801685   19.365321   22.170473 H          1 MOL1         0.0742
      15    H8      20.596127   17.824806   21.329706 H          1 MOL1         0.0742
      16    C6      19.486261   19.474048   20.452928 C.3        1 MOL1        -0.1856
      17    H9      18.954165   20.373713   20.792058 H          1 MOL1         0.0742
      18    H10     18.748735   18.840037   19.941610 H          1 MOL1         0.0742
      19    C7      20.592299   19.877494   19.457235 C.3        1 MOL1        -0.2871
      20    H11     20.164084   20.410199   18.598224 H          1 MOL1         0.0754
      21    H12     21.121395   18.993198   19.078509 H          1 MOL1         0.0754
      22    H13     21.327497   20.538889   19.934173 H          1 MOL1         0.0754
@<TRIPOS>BOND
    1     1     2    1
    2     1     3    2
    3     1     4    1
    4     4     5    1
    5     4     6    1
    6     4     7    1
    7     7     8    1
    8     7     9    1
    9     7    10    1
   10    10    11    1
   11    10    12    1
   12    10    13    1
   13    13    14    1
   14    13    15    1
   15    13    16    1
   16    16    17    1
   17    16    18    1
   18    16    19    1
   19    19    20    1
   20    19    21    1
   21    19    22    1
@<TRIPOS>SUBSTRUCTURE
       1 MOL1            1 RESIDUE      1      MOL     
@<SCITEGIC>MOL_PROPERTY
VM2 Rank
SciTegic.value.IntegerValue
26

@<SCITEGIC>MOL_PROPERTY
Conf_Id
SciTegic.value.IntegerValue
185

@<SCITEGIC>MOL_PROPERTY
Probability
SciTegic.value.DoubleValue
0.41

@<SCITEGIC>MOL_PROPERTY
Sum Probability
SciTegic.value.DoubleValue
97.82

@<SCITEGIC>MOL_PROPERTY
Delta G
SciTegic.value.DoubleValue
2.612

@<SCITEGIC>MOL_PROPERTY
G
SciTegic.value.DoubleValue
-14.386

@<SCITEGIC>MOL_PROPERTY
E
SciTegic.value.DoubleValue
-34.414

@<SCITEGIC>MOL_PROPERTY
-TS
SciTegic.value.DoubleValue
20.027

@<SCITEGIC>MOL_PROPERTY
U+W
SciTegic.value.DoubleValue
-52.299

@<SCITEGIC>MOL_PROPERTY
U
SciTegic.value.DoubleValue
9.623

@<SCITEGIC>MOL_PROPERTY
W
SciTegic.value.DoubleValue
-61.922

@<SCITEGIC>MOL_PROPERTY
W(PB)
SciTegic.value.DoubleValue
-64.197

@<SCITEGIC>MOL_PROPERTY
W(SA)
SciTegic.value.DoubleValue
2.275

@<SCITEGIC>MOL_PROPERTY
Valence
SciTegic.value.DoubleValue
7.870

@<SCITEGIC>MOL_PROPERTY
Coulomb
SciTegic.value.DoubleValue
1.264

@<SCITEGIC>MOL_PROPERTY
VdW
SciTegic.value.DoubleValue
0.489

@<SCITEGIC>MOL_PROPERTY
VdW6
SciTegic.value.DoubleValue
-8.389

@<SCITEGIC>MOL_PROPERTY
VdW12
SciTegic.value.DoubleValue
8.878

@<SCITEGIC>MOL_PROPERTY
Bond
SciTegic.value.DoubleValue
0.170

@<SCITEGIC>MOL_PROPERTY
Angle
SciTegic.value.DoubleValue
2.768

@<SCITEGIC>MOL_PROPERTY
Pdih
SciTegic.value.DoubleValue
4.931

@<SCITEGIC>MOL_PROPERTY
Idih
SciTegic.value.DoubleValue
0.001

@<SCITEGIC>MOL_PROPERTY
Tether
SciTegic.value.DoubleValue
0.000

@<TRIPOS>MOLECULE
guest-s21_vm2.mol2 : vm2 ligand conformer 27
          22          21           1
SMALL
USER_CHARGES
 
@<TRIPOS>ATOM
       1    C1      20.096689   19.334268   25.452462 C.2        1 MOL1         0.6145
       2    O1      20.984669   20.088804   25.107704 O.co2      1 MOL1        -0.6735
       3    O2      20.204666   18.543861   26.369466 O.co2      1 MOL1        -0.6735
       4    C2      18.762809   19.400646   24.713858 C.3        1 MOL1        -0.1985
       5    H1      18.734099   20.322854   24.122484 H          1 MOL1         0.0740
       6    H2      17.975723   19.493798   25.471179 H          1 MOL1         0.0740
       7    C3      18.470225   18.165318   23.818859 C.3        1 MOL1        -0.1882
       8    H3      18.436776   17.269797   24.454681 H          1 MOL1         0.0742
       9    H4      17.468783   18.268015   23.379627 H          1 MOL1         0.0742
      10    C4      19.501863   17.934774   22.687388 C.3        1 MOL1        -0.1880
      11    H5      19.245970   17.000670   22.168964 H          1 MOL1         0.0742
      12    H6      20.500299   17.784337   23.120695 H          1 MOL1         0.0742
      13    C5      19.552332   19.085790   21.656596 C.3        1 MOL1        -0.1880
      14    H7      18.542041   19.280265   21.271659 H          1 MOL1         0.0742
      15    H8      19.895033   20.007741   22.144884 H          1 MOL1         0.0742
      16    C6      20.497336   18.757632   20.481583 C.3        1 MOL1        -0.1856
      17    H9      20.162695   17.838150   19.981653 H          1 MOL1         0.0742
      18    H10     21.508918   18.563476   20.864384 H          1 MOL1         0.0742
      19    C7      20.549410   19.907907   19.456085 C.3        1 MOL1        -0.2871
      20    H11     19.554808   20.103268   19.034237 H          1 MOL1         0.0754
      21    H12     21.225730   19.657990   18.628331 H          1 MOL1         0.0754
      22    H13     20.911921   20.833370   19.922492 H          1 MOL1         0.0754
@<TRIPOS>BOND
    1     1     2    1
    2     1     3    2
    3     1     4    1
    4     4     5    1
    5     4     6    1
    6     4     7    1
    7     7     8    1
    8     7     9    1
    9     7    10    1
   10    10    11    1
   11    10    12    1
   12    10    13    1
   13    13    14    1
   14    13    15    1
   15    13    16    1
   16    16    17    1
   17    16    18    1
   18    16    19    1
   19    19    20    1
   20    19    21    1
   21    19    22    1
@<TRIPOS>SUBSTRUCTURE
       1 MOL1            1 RESIDUE      1      MOL     
@<SCITEGIC>MOL_PROPERTY
VM2 Rank
SciTegic.value.IntegerValue
27

@<SCITEGIC>MOL_PROPERTY
Conf_Id
SciTegic.value.IntegerValue
480

@<SCITEGIC>MOL_PROPERTY
Probability
SciTegic.value.DoubleValue
0.40

@<SCITEGIC>MOL_PROPERTY
Sum Probability
SciTegic.value.DoubleValue
98.22

@<SCITEGIC>MOL_PROPERTY
Delta G
SciTegic.value.DoubleValue
2.623

@<SCITEGIC>MOL_PROPERTY
G
SciTegic.value.DoubleValue
-14.375

@<SCITEGIC>MOL_PROPERTY
E
SciTegic.value.DoubleValue
-34.402

@<SCITEGIC>MOL_PROPERTY
-TS
SciTegic.value.DoubleValue
20.027

@<SCITEGIC>MOL_PROPERTY
U+W
SciTegic.value.DoubleValue
-52.287

@<SCITEGIC>MOL_PROPERTY
U
SciTegic.value.DoubleValue
9.624

@<SCITEGIC>MOL_PROPERTY
W
SciTegic.value.DoubleValue
-61.911

@<SCITEGIC>MOL_PROPERTY
W(PB)
SciTegic.value.DoubleValue
-64.185

@<SCITEGIC>MOL_PROPERTY
W(SA)
SciTegic.value.DoubleValue
2.274

@<SCITEGIC>MOL_PROPERTY
Valence
SciTegic.value.DoubleValue
7.870

@<SCITEGIC>MOL_PROPERTY
Coulomb
SciTegic.value.DoubleValue
1.265

@<SCITEGIC>MOL_PROPERTY
VdW
SciTegic.value.DoubleValue
0.489

@<SCITEGIC>MOL_PROPERTY
VdW6
SciTegic.value.DoubleValue
-8.389

@<SCITEGIC>MOL_PROPERTY
VdW12
SciTegic.value.DoubleValue
8.878

@<SCITEGIC>MOL_PROPERTY
Bond
SciTegic.value.DoubleValue
0.170

@<SCITEGIC>MOL_PROPERTY
Angle
SciTegic.value.DoubleValue
2.768

@<SCITEGIC>MOL_PROPERTY
Pdih
SciTegic.value.DoubleValue
4.931

@<SCITEGIC>MOL_PROPERTY
Idih
SciTegic.value.DoubleValue
0.001

@<SCITEGIC>MOL_PROPERTY
Tether
SciTegic.value.DoubleValue
0.000

@<TRIPOS>MOLECULE
guest-s21_vm2.mol2 : vm2 ligand conformer 28
          22          21           1
SMALL
USER_CHARGES
 
@<TRIPOS>ATOM
       1    C1      19.940906   18.867199   25.681251 C.2        1 MOL1         0.6145
       2    O1      19.859624   19.708214   26.554627 O.co2      1 MOL1        -0.6735
       3    O2      20.577502   17.838458   25.795326 O.co2      1 MOL1        -0.6735
       4    C2      19.220196   19.126388   24.363171 C.3        1 MOL1        -0.1985
       5    H1      18.311326   19.700674   24.578535 H          1 MOL1         0.0740
       6    H2      18.905456   18.157650   23.958798 H          1 MOL1         0.0740
       7    C3      20.101069   19.884186   23.336401 C.3        1 MOL1        -0.1882
       8    H3      20.467233   20.810109   23.800822 H          1 MOL1         0.0742
       9    H4      20.993157   19.286846   23.105771 H          1 MOL1         0.0742
      10    C4      19.352359   20.249441   22.030093 C.3        1 MOL1        -0.1880
      11    H5      20.026800   20.826340   21.383726 H          1 MOL1         0.0742
      12    H6      18.523359   20.927344   22.274539 H          1 MOL1         0.0742
      13    C5      18.787119   19.043864   21.233691 C.3        1 MOL1        -0.1880
      14    H7      17.992570   18.562197   21.818449 H          1 MOL1         0.0742
      15    H8      18.298557   19.422593   20.325717 H          1 MOL1         0.0742
      16    C6      19.830806   17.974009   20.828649 C.3        1 MOL1        -0.1856
      17    H9      19.313381   17.163255   20.297746 H          1 MOL1         0.0742
      18    H10     20.271693   17.517406   21.724827 H          1 MOL1         0.0742
      19    C7      20.950419   18.527241   19.920789 C.3        1 MOL1        -0.2871
      20    H11     20.530564   19.003486   19.025319 H          1 MOL1         0.0754
      21    H12     21.615331   17.717491   19.593769 H          1 MOL1         0.0754
      22    H13     21.563022   19.267893   20.450042 H          1 MOL1         0.0754
@<TRIPOS>BOND
    1     1     2    1
    2     1     3    2
    3     1     4    1
    4     4     5    1
    5     4     6    1
    6     4     7    1
    7     7     8    1
    8     7     9    1
    9     7    10    1
   10    10    11    1
   11    10    12    1
   12    10    13    1
   13    13    14    1
   14    13    15    1
   15    13    16    1
   16    16    17    1
   17    16    18    1
   18    16    19    1
   19    19    20    1
   20    19    21    1
   21    19    22    1
@<TRIPOS>SUBSTRUCTURE
       1 MOL1            1 RESIDUE      1      MOL     
@<SCITEGIC>MOL_PROPERTY
VM2 Rank
SciTegic.value.IntegerValue
28

@<SCITEGIC>MOL_PROPERTY
Conf_Id
SciTegic.value.IntegerValue
71

@<SCITEGIC>MOL_PROPERTY
Probability
SciTegic.value.DoubleValue
0.26

@<SCITEGIC>MOL_PROPERTY
Sum Probability
SciTegic.value.DoubleValue
98.48

@<SCITEGIC>MOL_PROPERTY
Delta G
SciTegic.value.DoubleValue
2.889

@<SCITEGIC>MOL_PROPERTY
G
SciTegic.value.DoubleValue
-14.109

@<SCITEGIC>MOL_PROPERTY
E
SciTegic.value.DoubleValue
-34.425

@<SCITEGIC>MOL_PROPERTY
-TS
SciTegic.value.DoubleValue
20.316

@<SCITEGIC>MOL_PROPERTY
U+W
SciTegic.value.DoubleValue
-52.310

@<SCITEGIC>MOL_PROPERTY
U
SciTegic.value.DoubleValue
8.874

@<SCITEGIC>MOL_PROPERTY
W
SciTegic.value.DoubleValue
-61.184

@<SCITEGIC>MOL_PROPERTY
W(PB)
SciTegic.value.DoubleValue
-63.414

@<SCITEGIC>MOL_PROPERTY
W(SA)
SciTegic.value.DoubleValue
2.230

@<SCITEGIC>MOL_PROPERTY
Valence
SciTegic.value.DoubleValue
8.479

@<SCITEGIC>MOL_PROPERTY
Coulomb
SciTegic.value.DoubleValue
-0.357

@<SCITEGIC>MOL_PROPERTY
VdW
SciTegic.value.DoubleValue
0.753

@<SCITEGIC>MOL_PROPERTY
VdW6
SciTegic.value.DoubleValue
-9.080

@<SCITEGIC>MOL_PROPERTY
VdW12
SciTegic.value.DoubleValue
9.833

@<SCITEGIC>MOL_PROPERTY
Bond
SciTegic.value.DoubleValue
0.221

@<SCITEGIC>MOL_PROPERTY
Angle
SciTegic.value.DoubleValue
3.208

@<SCITEGIC>MOL_PROPERTY
Pdih
SciTegic.value.DoubleValue
5.050

@<SCITEGIC>MOL_PROPERTY
Idih
SciTegic.value.DoubleValue
0.000

@<SCITEGIC>MOL_PROPERTY
Tether
SciTegic.value.DoubleValue
0.000

@<TRIPOS>MOLECULE
guest-s21_vm2.mol2 : vm2 ligand conformer 29
          22          21           1
SMALL
USER_CHARGES
 
@<TRIPOS>ATOM
       1    C1      19.913777   19.371741   25.661794 C.2        1 MOL1         0.6145
       2    O1      20.435296   20.468797   25.694367 O.co2      1 MOL1        -0.6735
       3    O2      19.920270   18.595890   26.597055 O.co2      1 MOL1        -0.6735
       4    C2      19.230346   18.936659   24.370454 C.3        1 MOL1        -0.1985
       5    H1      18.815048   19.832239   23.894536 H          1 MOL1         0.0740
       6    H2      18.387526   18.286284   24.632938 H          1 MOL1         0.0740
       7    C3      20.191600   18.201517   23.400916 C.3        1 MOL1        -0.1882
       8    H3      21.015429   18.871711   23.121681 H          1 MOL1         0.0742
       9    H4      20.653042   17.358375   23.933156 H          1 MOL1         0.0742
      10    C4      19.491738   17.659431   22.129400 C.3        1 MOL1        -0.1880
      11    H5      18.739189   16.917217   22.428291 H          1 MOL1         0.0742
      12    H6      20.226789   17.110505   21.526199 H          1 MOL1         0.0742
      13    C5      18.803802   18.733125   21.245602 C.3        1 MOL1        -0.1880
      14    H7      18.362493   18.236009   20.371150 H          1 MOL1         0.0742
      15    H8      17.959731   19.169995   21.795094 H          1 MOL1         0.0742
      16    C6      19.728408   19.874718   20.755908 C.3        1 MOL1        -0.1856
      17    H9      20.113947   20.443063   21.612848 H          1 MOL1         0.0742
      18    H10     19.129257   20.582373   20.166713 H          1 MOL1         0.0742
      19    C7      20.904764   19.377122   19.888504 C.3        1 MOL1        -0.2871
      20    H11     21.480346   20.226198   19.497966 H          1 MOL1         0.0754
      21    H12     20.542243   18.791603   19.033694 H          1 MOL1         0.0754
      22    H13     21.591039   18.749062   20.470334 H          1 MOL1         0.0754
@<TRIPOS>BOND
    1     1     2    1
    2     1     3    2
    3     1     4    1
    4     4     5    1
    5     4     6    1
    6     4     7    1
    7     7     8    1
    8     7     9    1
    9     7    10    1
   10    10    11    1
   11    10    12    1
   12    10    13    1
   13    13    14    1
   14    13    15    1
   15    13    16    1
   16    16    17    1
   17    16    18    1
   18    16    19    1
   19    19    20    1
   20    19    21    1
   21    19    22    1
@<TRIPOS>SUBSTRUCTURE
       1 MOL1            1 RESIDUE      1      MOL     
@<SCITEGIC>MOL_PROPERTY
VM2 Rank
SciTegic.value.IntegerValue
29

@<SCITEGIC>MOL_PROPERTY
Conf_Id
SciTegic.value.IntegerValue
449

@<SCITEGIC>MOL_PROPERTY
Probability
SciTegic.value.DoubleValue
0.24

@<SCITEGIC>MOL_PROPERTY
Sum Probability
SciTegic.value.DoubleValue
98.72

@<SCITEGIC>MOL_PROPERTY
Delta G
SciTegic.value.DoubleValue
2.932

@<SCITEGIC>MOL_PROPERTY
G
SciTegic.value.DoubleValue
-14.066

@<SCITEGIC>MOL_PROPERTY
E
SciTegic.value.DoubleValue
-34.382

@<SCITEGIC>MOL_PROPERTY
-TS
SciTegic.value.DoubleValue
20.316

@<SCITEGIC>MOL_PROPERTY
U+W
SciTegic.value.DoubleValue
-52.267

@<SCITEGIC>MOL_PROPERTY
U
SciTegic.value.DoubleValue
8.874

@<SCITEGIC>MOL_PROPERTY
W
SciTegic.value.DoubleValue
-61.141

@<SCITEGIC>MOL_PROPERTY
W(PB)
SciTegic.value.DoubleValue
-63.378

@<SCITEGIC>MOL_PROPERTY
W(SA)
SciTegic.value.DoubleValue
2.237

@<SCITEGIC>MOL_PROPERTY
Valence
SciTegic.value.DoubleValue
8.479

@<SCITEGIC>MOL_PROPERTY
Coulomb
SciTegic.value.DoubleValue
-0.357

@<SCITEGIC>MOL_PROPERTY
VdW
SciTegic.value.DoubleValue
0.753

@<SCITEGIC>MOL_PROPERTY
VdW6
SciTegic.value.DoubleValue
-9.081

@<SCITEGIC>MOL_PROPERTY
VdW12
SciTegic.value.DoubleValue
9.833

@<SCITEGIC>MOL_PROPERTY
Bond
SciTegic.value.DoubleValue
0.221

@<SCITEGIC>MOL_PROPERTY
Angle
SciTegic.value.DoubleValue
3.208

@<SCITEGIC>MOL_PROPERTY
Pdih
SciTegic.value.DoubleValue
5.050

@<SCITEGIC>MOL_PROPERTY
Idih
SciTegic.value.DoubleValue
0.000

@<SCITEGIC>MOL_PROPERTY
Tether
SciTegic.value.DoubleValue
0.000

@<TRIPOS>MOLECULE
guest-s21_vm2.mol2 : vm2 ligand conformer 30
          22          21           1
SMALL
USER_CHARGES
 
@<TRIPOS>ATOM
       1    C1      19.758894   19.200235   25.723265 C.2        1 MOL1         0.6145
       2    O1      20.189853   20.309235   25.970874 O.co2      1 MOL1        -0.6735
       3    O2      20.084747   18.200939   26.333364 O.co2      1 MOL1        -0.6735
       4    C2      18.736269   19.055496   24.599619 C.3        1 MOL1        -0.1985
       5    H1      18.302739   20.041056   24.390836 H          1 MOL1         0.0740
       6    H2      17.922930   18.424525   24.976883 H          1 MOL1         0.0740
       7    C3      19.309594   18.436837   23.298066 C.3        1 MOL1        -0.1882
       8    H3      19.775647   17.468957   23.528832 H          1 MOL1         0.0742
       9    H4      18.476217   18.233366   22.613535 H          1 MOL1         0.0742
      10    C4      20.337048   19.361870   22.602883 C.3        1 MOL1        -0.1880
      11    H5      21.137122   19.609965   23.313586 H          1 MOL1         0.0742
      12    H6      19.860090   20.315107   22.340152 H          1 MOL1         0.0742
      13    C5      20.986442   18.730059   21.345855 C.3        1 MOL1        -0.1880
      14    H7      21.738195   19.426918   20.950988 H          1 MOL1         0.0742
      15    H8      21.537622   17.828484   21.645981 H          1 MOL1         0.0742
      16    C6      20.004565   18.358004   20.207288 C.3        1 MOL1        -0.1856
      17    H9      19.307525   17.580378   20.546289 H          1 MOL1         0.0742
      18    H10     20.578312   17.911787   19.383429 H          1 MOL1         0.0742
      19    C7      19.212588   19.566326   19.662786 C.3        1 MOL1        -0.2871
      20    H11     18.535279   19.974413   20.423543 H          1 MOL1         0.0754
      21    H12     18.602948   19.268878   18.799857 H          1 MOL1         0.0754
      22    H13     19.890458   20.366727   19.338986 H          1 MOL1         0.0754
@<TRIPOS>BOND
    1     1     2    1
    2     1     3    2
    3     1     4    1
    4     4     5    1
    5     4     6    1
    6     4     7    1
    7     7     8    1
    8     7     9    1
    9     7    10    1
   10    10    11    1
   11    10    12    1
   12    10    13    1
   13    13    14    1
   14    13    15    1
   15    13    16    1
   16    16    17    1
   17    16    18    1
   18    16    19    1
   19    19    20    1
   20    19    21    1
   21    19    22    1
@<TRIPOS>SUBSTRUCTURE
       1 MOL1            1 RESIDUE      1      MOL     
@<SCITEGIC>MOL_PROPERTY
VM2 Rank
SciTegic.value.IntegerValue
30

@<SCITEGIC>MOL_PROPERTY
Conf_Id
SciTegic.value.IntegerValue
52

@<SCITEGIC>MOL_PROPERTY
Probability
SciTegic.value.DoubleValue
0.11

@<SCITEGIC>MOL_PROPERTY
Sum Probability
SciTegic.value.DoubleValue
98.83

@<SCITEGIC>MOL_PROPERTY
Delta G
SciTegic.value.DoubleValue
3.402

@<SCITEGIC>MOL_PROPERTY
G
SciTegic.value.DoubleValue
-13.596

@<SCITEGIC>MOL_PROPERTY
E
SciTegic.value.DoubleValue
-33.890

@<SCITEGIC>MOL_PROPERTY
-TS
SciTegic.value.DoubleValue
20.293

@<SCITEGIC>MOL_PROPERTY
U+W
SciTegic.value.DoubleValue
-51.774

@<SCITEGIC>MOL_PROPERTY
U
SciTegic.value.DoubleValue
9.546

@<SCITEGIC>MOL_PROPERTY
W
SciTegic.value.DoubleValue
-61.321

@<SCITEGIC>MOL_PROPERTY
W(PB)
SciTegic.value.DoubleValue
-63.553

@<SCITEGIC>MOL_PROPERTY
W(SA)
SciTegic.value.DoubleValue
2.233

@<SCITEGIC>MOL_PROPERTY
Valence
SciTegic.value.DoubleValue
8.350

@<SCITEGIC>MOL_PROPERTY
Coulomb
SciTegic.value.DoubleValue
0.448

@<SCITEGIC>MOL_PROPERTY
VdW
SciTegic.value.DoubleValue
0.749

@<SCITEGIC>MOL_PROPERTY
VdW6
SciTegic.value.DoubleValue
-8.872

@<SCITEGIC>MOL_PROPERTY
VdW12
SciTegic.value.DoubleValue
9.620

@<SCITEGIC>MOL_PROPERTY
Bond
SciTegic.value.DoubleValue
0.198

@<SCITEGIC>MOL_PROPERTY
Angle
SciTegic.value.DoubleValue
3.089

@<SCITEGIC>MOL_PROPERTY
Pdih
SciTegic.value.DoubleValue
5.062

@<SCITEGIC>MOL_PROPERTY
Idih
SciTegic.value.DoubleValue
0.001

@<SCITEGIC>MOL_PROPERTY
Tether
SciTegic.value.DoubleValue
0.000

@<TRIPOS>MOLECULE
guest-s21_vm2.mol2 : vm2 ligand conformer 31
          22          21           1
SMALL
USER_CHARGES
 
@<TRIPOS>ATOM
       1    C1      20.147166   19.203733   25.460436 C.2        1 MOL1         0.6145
       2    O1      20.729948   20.266692   25.546584 O.co2      1 MOL1        -0.6735
       3    O2      20.616356   18.147329   25.835715 O.co2      1 MOL1        -0.6735
       4    C2      18.738218   19.201624   24.873704 C.3        1 MOL1        -0.1985
       5    H1      18.192676   20.037963   25.326376 H          1 MOL1         0.0740
       6    H2      18.228978   18.282776   25.188641 H          1 MOL1         0.0740
       7    C3      18.699792   19.333800   23.329116 C.3        1 MOL1        -0.1882
       8    H3      17.657456   19.457702   23.006163 H          1 MOL1         0.0742
       9    H4      19.234589   20.247422   23.037183 H          1 MOL1         0.0742
      10    C4      19.313703   18.106489   22.614417 C.3        1 MOL1        -0.1880
      11    H5      18.820585   17.196220   22.981634 H          1 MOL1         0.0742
      12    H6      20.372939   18.006906   22.886160 H          1 MOL1         0.0742
      13    C5      19.168399   18.153097   21.072537 C.3        1 MOL1        -0.1880
      14    H7      19.585301   17.227905   20.651982 H          1 MOL1         0.0742
      15    H8      18.100474   18.148488   20.815300 H          1 MOL1         0.0742
      16    C6      19.842347   19.364086   20.381108 C.3        1 MOL1        -0.1856
      17    H9      19.366011   20.298751   20.705322 H          1 MOL1         0.0742
      18    H10     19.664517   19.292553   19.299317 H          1 MOL1         0.0742
      19    C7      21.364071   19.442150   20.630383 C.3        1 MOL1        -0.2871
      20    H11     21.858994   18.507561   20.336202 H          1 MOL1         0.0754
      21    H12     21.585025   19.631415   21.688695 H          1 MOL1         0.0754
      22    H13     21.807779   20.259038   20.046817 H          1 MOL1         0.0754
@<TRIPOS>BOND
    1     1     2    1
    2     1     3    2
    3     1     4    1
    4     4     5    1
    5     4     6    1
    6     4     7    1
    7     7     8    1
    8     7     9    1
    9     7    10    1
   10    10    11    1
   11    10    12    1
   12    10    13    1
   13    13    14    1
   14    13    15    1
   15    13    16    1
   16    16    17    1
   17    16    18    1
   18    16    19    1
   19    19    20    1
   20    19    21    1
   21    19    22    1
@<TRIPOS>SUBSTRUCTURE
       1 MOL1            1 RESIDUE      1      MOL     
@<SCITEGIC>MOL_PROPERTY
VM2 Rank
SciTegic.value.IntegerValue
31

@<SCITEGIC>MOL_PROPERTY
Conf_Id
SciTegic.value.IntegerValue
275

@<SCITEGIC>MOL_PROPERTY
Probability
SciTegic.value.DoubleValue
0.08

@<SCITEGIC>MOL_PROPERTY
Sum Probability
SciTegic.value.DoubleValue
98.91

@<SCITEGIC>MOL_PROPERTY
Delta G
SciTegic.value.DoubleValue
3.577

@<SCITEGIC>MOL_PROPERTY
G
SciTegic.value.DoubleValue
-13.421

@<SCITEGIC>MOL_PROPERTY
E
SciTegic.value.DoubleValue
-33.724

@<SCITEGIC>MOL_PROPERTY
-TS
SciTegic.value.DoubleValue
20.303

@<SCITEGIC>MOL_PROPERTY
U+W
SciTegic.value.DoubleValue
-51.609

@<SCITEGIC>MOL_PROPERTY
U
SciTegic.value.DoubleValue
10.394

@<SCITEGIC>MOL_PROPERTY
W
SciTegic.value.DoubleValue
-62.003

@<SCITEGIC>MOL_PROPERTY
W(PB)
SciTegic.value.DoubleValue
-64.205

@<SCITEGIC>MOL_PROPERTY
W(SA)
SciTegic.value.DoubleValue
2.203

@<SCITEGIC>MOL_PROPERTY
Valence
SciTegic.value.DoubleValue
8.284

@<SCITEGIC>MOL_PROPERTY
Coulomb
SciTegic.value.DoubleValue
1.521

@<SCITEGIC>MOL_PROPERTY
VdW
SciTegic.value.DoubleValue
0.589

@<SCITEGIC>MOL_PROPERTY
VdW6
SciTegic.value.DoubleValue
-9.071

@<SCITEGIC>MOL_PROPERTY
VdW12
SciTegic.value.DoubleValue
9.660

@<SCITEGIC>MOL_PROPERTY
Bond
SciTegic.value.DoubleValue
0.194

@<SCITEGIC>MOL_PROPERTY
Angle
SciTegic.value.DoubleValue
3.031

@<SCITEGIC>MOL_PROPERTY
Pdih
SciTegic.value.DoubleValue
5.059

@<SCITEGIC>MOL_PROPERTY
Idih
SciTegic.value.DoubleValue
0.001

@<SCITEGIC>MOL_PROPERTY
Tether
SciTegic.value.DoubleValue
0.000

@<TRIPOS>MOLECULE
guest-s21_vm2.mol2 : vm2 ligand conformer 32
          22          21           1
SMALL
USER_CHARGES
 
@<TRIPOS>ATOM
       1    C1      19.688707   19.424277   25.445925 C.2        1 MOL1         0.6145
       2    O1      20.151174   20.545104   25.528449 O.co2      1 MOL1        -0.6735
       3    O2      18.552591   19.140089   25.770642 O.co2      1 MOL1        -0.6735
       4    C2      20.594757   18.308542   24.932505 C.3        1 MOL1        -0.1985
       5    H1      20.178432   17.344998   25.250386 H          1 MOL1         0.0740
       6    H2      21.564179   18.416107   25.433145 H          1 MOL1         0.0740
       7    C3      20.801239   18.322883   23.395671 C.3        1 MOL1        -0.1882
       8    H3      21.196541   19.303621   23.099310 H          1 MOL1         0.0742
       9    H4      21.563639   17.578430   23.129865 H          1 MOL1         0.0742
      10    C4      19.497426   18.018289   22.620257 C.3        1 MOL1        -0.1880
      11    H5      18.746187   18.789954   22.834534 H          1 MOL1         0.0742
      12    H6      19.074819   17.074139   22.989835 H          1 MOL1         0.0742
      13    C5      19.703556   17.895571   21.089528 C.3        1 MOL1        -0.1880
      14    H7      20.378138   17.052465   20.887617 H          1 MOL1         0.0742
      15    H8      18.743196   17.633028   20.625380 H          1 MOL1         0.0742
      16    C6      20.264994   19.160595   20.394351 C.3        1 MOL1        -0.1856
      17    H9      20.375535   18.950148   19.321734 H          1 MOL1         0.0742
      18    H10     21.274685   19.380291   20.765657 H          1 MOL1         0.0742
      19    C7      19.365556   20.403652   20.566671 C.3        1 MOL1        -0.2871
      20    H11     19.757076   21.245546   19.981301 H          1 MOL1         0.0754
      21    H12     19.321315   20.720703   21.616522 H          1 MOL1         0.0754
      22    H13     18.342798   20.199245   20.224425 H          1 MOL1         0.0754
@<TRIPOS>BOND
    1     1     2    1
    2     1     3    2
    3     1     4    1
    4     4     5    1
    5     4     6    1
    6     4     7    1
    7     7     8    1
    8     7     9    1
    9     7    10    1
   10    10    11    1
   11    10    12    1
   12    10    13    1
   13    13    14    1
   14    13    15    1
   15    13    16    1
   16    16    17    1
   17    16    18    1
   18    16    19    1
   19    19    20    1
   20    19    21    1
   21    19    22    1
@<TRIPOS>SUBSTRUCTURE
       1 MOL1            1 RESIDUE      1      MOL     
@<SCITEGIC>MOL_PROPERTY
VM2 Rank
SciTegic.value.IntegerValue
32

@<SCITEGIC>MOL_PROPERTY
Conf_Id
SciTegic.value.IntegerValue
316

@<SCITEGIC>MOL_PROPERTY
Probability
SciTegic.value.DoubleValue
0.08

@<SCITEGIC>MOL_PROPERTY
Sum Probability
SciTegic.value.DoubleValue
98.99

@<SCITEGIC>MOL_PROPERTY
Delta G
SciTegic.value.DoubleValue
3.583

@<SCITEGIC>MOL_PROPERTY
G
SciTegic.value.DoubleValue
-13.415

@<SCITEGIC>MOL_PROPERTY
E
SciTegic.value.DoubleValue
-33.718

@<SCITEGIC>MOL_PROPERTY
-TS
SciTegic.value.DoubleValue
20.302

@<SCITEGIC>MOL_PROPERTY
U+W
SciTegic.value.DoubleValue
-51.603

@<SCITEGIC>MOL_PROPERTY
U
SciTegic.value.DoubleValue
10.393

@<SCITEGIC>MOL_PROPERTY
W
SciTegic.value.DoubleValue
-61.996

@<SCITEGIC>MOL_PROPERTY
W(PB)
SciTegic.value.DoubleValue
-64.210

@<SCITEGIC>MOL_PROPERTY
W(SA)
SciTegic.value.DoubleValue
2.214

@<SCITEGIC>MOL_PROPERTY
Valence
SciTegic.value.DoubleValue
8.285

@<SCITEGIC>MOL_PROPERTY
Coulomb
SciTegic.value.DoubleValue
1.520

@<SCITEGIC>MOL_PROPERTY
VdW
SciTegic.value.DoubleValue
0.589

@<SCITEGIC>MOL_PROPERTY
VdW6
SciTegic.value.DoubleValue
-9.071

@<SCITEGIC>MOL_PROPERTY
VdW12
SciTegic.value.DoubleValue
9.660

@<SCITEGIC>MOL_PROPERTY
Bond
SciTegic.value.DoubleValue
0.194

@<SCITEGIC>MOL_PROPERTY
Angle
SciTegic.value.DoubleValue
3.031

@<SCITEGIC>MOL_PROPERTY
Pdih
SciTegic.value.DoubleValue
5.059

@<SCITEGIC>MOL_PROPERTY
Idih
SciTegic.value.DoubleValue
0.001

@<SCITEGIC>MOL_PROPERTY
Tether
SciTegic.value.DoubleValue
0.000

@<TRIPOS>MOLECULE
guest-s21_vm2.mol2 : vm2 ligand conformer 33
          22          21           1
SMALL
USER_CHARGES
 
@<TRIPOS>ATOM
       1    C1      19.908058   18.805669   25.449785 C.2        1 MOL1         0.6145
       2    O1      19.749617   19.564347   26.386106 O.co2      1 MOL1        -0.6735
       3    O2      20.854068   18.049231   25.351064 O.co2      1 MOL1        -0.6735
       4    C2      18.844822   18.783077   24.355173 C.3        1 MOL1        -0.1985
       5    H1      17.871130   18.680863   24.848183 H          1 MOL1         0.0740
       6    H2      18.982571   17.879832   23.749776 H          1 MOL1         0.0740
       7    C3      18.834624   20.048273   23.454420 C.3        1 MOL1        -0.1882
       8    H3      17.998021   19.981876   22.746970 H          1 MOL1         0.0742
       9    H4      18.628152   20.925643   24.082718 H          1 MOL1         0.0742
      10    C4      20.155223   20.293697   22.679658 C.3        1 MOL1        -0.1880
      11    H5      20.960639   20.492227   23.400050 H          1 MOL1         0.0742
      12    H6      20.049914   21.211312   22.085117 H          1 MOL1         0.0742
      13    C5      20.599514   19.139645   21.746413 C.3        1 MOL1        -0.1880
      14    H7      21.548436   19.425031   21.272423 H          1 MOL1         0.0742
      15    H8      20.816071   18.241292   22.339881 H          1 MOL1         0.0742
      16    C6      19.569143   18.804582   20.644630 C.3        1 MOL1        -0.1856
      17    H9      19.320993   19.714102   20.080488 H          1 MOL1         0.0742
      18    H10     18.636725   18.443404   21.098167 H          1 MOL1         0.0742
      19    C7      20.104932   17.730479   19.676752 C.3        1 MOL1        -0.2871
      20    H11     19.360569   17.500839   18.903324 H          1 MOL1         0.0754
      21    H12     20.335667   16.800279   20.212354 H          1 MOL1         0.0754
      22    H13     21.019484   18.073730   19.175684 H          1 MOL1         0.0754
@<TRIPOS>BOND
    1     1     2    1
    2     1     3    2
    3     1     4    1
    4     4     5    1
    5     4     6    1
    6     4     7    1
    7     7     8    1
    8     7     9    1
    9     7    10    1
   10    10    11    1
   11    10    12    1
   12    10    13    1
   13    13    14    1
   14    13    15    1
   15    13    16    1
   16    16    17    1
   17    16    18    1
   18    16    19    1
   19    19    20    1
   20    19    21    1
   21    19    22    1
@<TRIPOS>SUBSTRUCTURE
       1 MOL1            1 RESIDUE      1      MOL     
@<SCITEGIC>MOL_PROPERTY
VM2 Rank
SciTegic.value.IntegerValue
33

@<SCITEGIC>MOL_PROPERTY
Conf_Id
SciTegic.value.IntegerValue
292

@<SCITEGIC>MOL_PROPERTY
Probability
SciTegic.value.DoubleValue
0.08

@<SCITEGIC>MOL_PROPERTY
Sum Probability
SciTegic.value.DoubleValue
99.06

@<SCITEGIC>MOL_PROPERTY
Delta G
SciTegic.value.DoubleValue
3.588

@<SCITEGIC>MOL_PROPERTY
G
SciTegic.value.DoubleValue
-13.410

@<SCITEGIC>MOL_PROPERTY
E
SciTegic.value.DoubleValue
-33.815

@<SCITEGIC>MOL_PROPERTY
-TS
SciTegic.value.DoubleValue
20.405

@<SCITEGIC>MOL_PROPERTY
U+W
SciTegic.value.DoubleValue
-51.700

@<SCITEGIC>MOL_PROPERTY
U
SciTegic.value.DoubleValue
10.054

@<SCITEGIC>MOL_PROPERTY
W
SciTegic.value.DoubleValue
-61.754

@<SCITEGIC>MOL_PROPERTY
W(PB)
SciTegic.value.DoubleValue
-63.978

@<SCITEGIC>MOL_PROPERTY
W(SA)
SciTegic.value.DoubleValue
2.224

@<SCITEGIC>MOL_PROPERTY
Valence
SciTegic.value.DoubleValue
8.321

@<SCITEGIC>MOL_PROPERTY
Coulomb
SciTegic.value.DoubleValue
1.289

@<SCITEGIC>MOL_PROPERTY
VdW
SciTegic.value.DoubleValue
0.445

@<SCITEGIC>MOL_PROPERTY
VdW6
SciTegic.value.DoubleValue
-9.398

@<SCITEGIC>MOL_PROPERTY
VdW12
SciTegic.value.DoubleValue
9.842

@<SCITEGIC>MOL_PROPERTY
Bond
SciTegic.value.DoubleValue
0.210

@<SCITEGIC>MOL_PROPERTY
Angle
SciTegic.value.DoubleValue
3.153

@<SCITEGIC>MOL_PROPERTY
Pdih
SciTegic.value.DoubleValue
4.957

@<SCITEGIC>MOL_PROPERTY
Idih
SciTegic.value.DoubleValue
0.001

@<SCITEGIC>MOL_PROPERTY
Tether
SciTegic.value.DoubleValue
0.000

@<TRIPOS>MOLECULE
guest-s21_vm2.mol2 : vm2 ligand conformer 34
          22          21           1
SMALL
USER_CHARGES
 
@<TRIPOS>ATOM
       1    C1      20.020730   18.947821   25.517494 C.2        1 MOL1         0.6145
       2    O1      20.376894   19.872332   26.221578 O.co2      1 MOL1        -0.6735
       3    O2      20.645127   17.911669   25.402245 O.co2      1 MOL1        -0.6735
       4    C2      18.702218   19.086256   24.761504 C.3        1 MOL1        -0.1985
       5    H1      17.945296   19.411726   25.484596 H          1 MOL1         0.0740
       6    H2      18.390711   18.094933   24.413730 H          1 MOL1         0.0740
       7    C3      18.749486   20.094146   23.580373 C.3        1 MOL1        -0.1882
       8    H3      17.749399   20.172553   23.133150 H          1 MOL1         0.0742
       9    H4      18.986722   21.090263   23.978865 H          1 MOL1         0.0742
      10    C4      19.776138   19.744381   22.474759 C.3        1 MOL1        -0.1880
      11    H5      20.785256   19.698491   22.906616 H          1 MOL1         0.0742
      12    H6      19.786889   20.568347   21.750219 H          1 MOL1         0.0742
      13    C5      19.464234   18.416613   21.741827 C.3        1 MOL1        -0.1880
      14    H7      19.479288   17.591256   22.465356 H          1 MOL1         0.0742
      15    H8      18.448399   18.450936   21.325420 H          1 MOL1         0.0742
      16    C6      20.473669   18.083373   20.618440 C.3        1 MOL1        -0.1856
      17    H9      20.267988   17.068372   20.251502 H          1 MOL1         0.0742
      18    H10     21.492491   18.063621   21.029524 H          1 MOL1         0.0742
      19    C7      20.411505   19.062409   19.425778 C.3        1 MOL1        -0.2871
      20    H11     20.728722   20.071334   19.716974 H          1 MOL1         0.0754
      21    H12     19.393011   19.124281   19.020881 H          1 MOL1         0.0754
      22    H13     21.075714   18.726317   18.619077 H          1 MOL1         0.0754
@<TRIPOS>BOND
    1     1     2    1
    2     1     3    2
    3     1     4    1
    4     4     5    1
    5     4     6    1
    6     4     7    1
    7     7     8    1
    8     7     9    1
    9     7    10    1
   10    10    11    1
   11    10    12    1
   12    10    13    1
   13    13    14    1
   14    13    15    1
   15    13    16    1
   16    16    17    1
   17    16    18    1
   18    16    19    1
   19    19    20    1
   20    19    21    1
   21    19    22    1
@<TRIPOS>SUBSTRUCTURE
       1 MOL1            1 RESIDUE      1      MOL     
@<SCITEGIC>MOL_PROPERTY
VM2 Rank
SciTegic.value.IntegerValue
34

@<SCITEGIC>MOL_PROPERTY
Conf_Id
SciTegic.value.IntegerValue
455

@<SCITEGIC>MOL_PROPERTY
Probability
SciTegic.value.DoubleValue
0.08

@<SCITEGIC>MOL_PROPERTY
Sum Probability
SciTegic.value.DoubleValue
99.14

@<SCITEGIC>MOL_PROPERTY
Delta G
SciTegic.value.DoubleValue
3.608

@<SCITEGIC>MOL_PROPERTY
G
SciTegic.value.DoubleValue
-13.390

@<SCITEGIC>MOL_PROPERTY
E
SciTegic.value.DoubleValue
-33.472

@<SCITEGIC>MOL_PROPERTY
-TS
SciTegic.value.DoubleValue
20.083

@<SCITEGIC>MOL_PROPERTY
U+W
SciTegic.value.DoubleValue
-51.357

@<SCITEGIC>MOL_PROPERTY
U
SciTegic.value.DoubleValue
10.427

@<SCITEGIC>MOL_PROPERTY
W
SciTegic.value.DoubleValue
-61.784

@<SCITEGIC>MOL_PROPERTY
W(PB)
SciTegic.value.DoubleValue
-64.013

@<SCITEGIC>MOL_PROPERTY
W(SA)
SciTegic.value.DoubleValue
2.228

@<SCITEGIC>MOL_PROPERTY
Valence
SciTegic.value.DoubleValue
8.446

@<SCITEGIC>MOL_PROPERTY
Coulomb
SciTegic.value.DoubleValue
1.305

@<SCITEGIC>MOL_PROPERTY
VdW
SciTegic.value.DoubleValue
0.676

@<SCITEGIC>MOL_PROPERTY
VdW6
SciTegic.value.DoubleValue
-8.928

@<SCITEGIC>MOL_PROPERTY
VdW12
SciTegic.value.DoubleValue
9.604

@<SCITEGIC>MOL_PROPERTY
Bond
SciTegic.value.DoubleValue
0.209

@<SCITEGIC>MOL_PROPERTY
Angle
SciTegic.value.DoubleValue
3.066

@<SCITEGIC>MOL_PROPERTY
Pdih
SciTegic.value.DoubleValue
5.170

@<SCITEGIC>MOL_PROPERTY
Idih
SciTegic.value.DoubleValue
0.001

@<SCITEGIC>MOL_PROPERTY
Tether
SciTegic.value.DoubleValue
0.000

@<TRIPOS>MOLECULE
guest-s21_vm2.mol2 : vm2 ligand conformer 35
          22          21           1
SMALL
USER_CHARGES
 
@<TRIPOS>ATOM
       1    C1      19.672989   18.880392   25.513917 C.2        1 MOL1         0.6145
       2    O1      18.984093   19.602327   26.207846 O.co2      1 MOL1        -0.6735
       3    O2      19.483536   17.686316   25.391206 O.co2      1 MOL1        -0.6735
       4    C2      20.858143   19.504176   24.782161 C.3        1 MOL1        -0.1985
       5    H1      21.523890   18.702300   24.443805 H          1 MOL1         0.0740
       6    H2      21.425028   20.086242   25.518073 H          1 MOL1         0.0740
       7    C3      20.459763   20.425709   23.596743 C.3        1 MOL1        -0.1882
       8    H3      19.860384   21.259741   23.987206 H          1 MOL1         0.0742
       9    H4      21.366304   20.873509   23.167802 H          1 MOL1         0.0742
      10    C4      19.658605   19.721812   22.473620 C.3        1 MOL1        -0.1880
      11    H5      19.354357   20.484727   21.746030 H          1 MOL1         0.0742
      12    H6      18.731813   19.300915   22.886931 H          1 MOL1         0.0742
      13    C5      20.457206   18.609142   21.751368 C.3        1 MOL1        -0.1880
      14    H7      21.394131   19.021820   21.353423 H          1 MOL1         0.0742
      15    H8      20.738294   17.835426   22.477514 H          1 MOL1         0.0742
      16    C6      19.665990   17.926826   20.611005 C.3        1 MOL1        -0.1856
      17    H9      18.720978   17.526526   21.003549 H          1 MOL1         0.0742
      18    H10     20.242573   17.063391   20.251551 H          1 MOL1         0.0742
      19    C7      19.379675   18.862300   19.416131 C.3        1 MOL1        -0.2871
      20    H11     20.308539   19.301459   19.029545 H          1 MOL1         0.0754
      21    H12     18.703368   19.678744   19.697873 H          1 MOL1         0.0754
      22    H13     18.903827   18.305215   18.598744 H          1 MOL1         0.0754
@<TRIPOS>BOND
    1     1     2    1
    2     1     3    2
    3     1     4    1
    4     4     5    1
    5     4     6    1
    6     4     7    1
    7     7     8    1
    8     7     9    1
    9     7    10    1
   10    10    11    1
   11    10    12    1
   12    10    13    1
   13    13    14    1
   14    13    15    1
   15    13    16    1
   16    16    17    1
   17    16    18    1
   18    16    19    1
   19    19    20    1
   20    19    21    1
   21    19    22    1
@<TRIPOS>SUBSTRUCTURE
       1 MOL1            1 RESIDUE      1      MOL     
@<SCITEGIC>MOL_PROPERTY
VM2 Rank
SciTegic.value.IntegerValue
35

@<SCITEGIC>MOL_PROPERTY
Conf_Id
SciTegic.value.IntegerValue
247

@<SCITEGIC>MOL_PROPERTY
Probability
SciTegic.value.DoubleValue
0.08

@<SCITEGIC>MOL_PROPERTY
Sum Probability
SciTegic.value.DoubleValue
99.22

@<SCITEGIC>MOL_PROPERTY
Delta G
SciTegic.value.DoubleValue
3.611

@<SCITEGIC>MOL_PROPERTY
G
SciTegic.value.DoubleValue
-13.387

@<SCITEGIC>MOL_PROPERTY
E
SciTegic.value.DoubleValue
-33.469

@<SCITEGIC>MOL_PROPERTY
-TS
SciTegic.value.DoubleValue
20.083

@<SCITEGIC>MOL_PROPERTY
U+W
SciTegic.value.DoubleValue
-51.354

@<SCITEGIC>MOL_PROPERTY
U
SciTegic.value.DoubleValue
10.427

@<SCITEGIC>MOL_PROPERTY
W
SciTegic.value.DoubleValue
-61.781

@<SCITEGIC>MOL_PROPERTY
W(PB)
SciTegic.value.DoubleValue
-64.012

@<SCITEGIC>MOL_PROPERTY
W(SA)
SciTegic.value.DoubleValue
2.231

@<SCITEGIC>MOL_PROPERTY
Valence
SciTegic.value.DoubleValue
8.446

@<SCITEGIC>MOL_PROPERTY
Coulomb
SciTegic.value.DoubleValue
1.305

@<SCITEGIC>MOL_PROPERTY
VdW
SciTegic.value.DoubleValue
0.676

@<SCITEGIC>MOL_PROPERTY
VdW6
SciTegic.value.DoubleValue
-8.928

@<SCITEGIC>MOL_PROPERTY
VdW12
SciTegic.value.DoubleValue
9.604

@<SCITEGIC>MOL_PROPERTY
Bond
SciTegic.value.DoubleValue
0.209

@<SCITEGIC>MOL_PROPERTY
Angle
SciTegic.value.DoubleValue
3.066

@<SCITEGIC>MOL_PROPERTY
Pdih
SciTegic.value.DoubleValue
5.170

@<SCITEGIC>MOL_PROPERTY
Idih
SciTegic.value.DoubleValue
0.001

@<SCITEGIC>MOL_PROPERTY
Tether
SciTegic.value.DoubleValue
0.000

@<TRIPOS>MOLECULE
guest-s21_vm2.mol2 : vm2 ligand conformer 36
          22          21           1
SMALL
USER_CHARGES
 
@<TRIPOS>ATOM
       1    C1      20.142835   19.012246   25.441346 C.2        1 MOL1         0.6145
       2    O1      19.449605   19.300534   26.397229 O.co2      1 MOL1        -0.6735
       3    O2      20.768308   17.973944   25.354211 O.co2      1 MOL1        -0.6735
       4    C2      20.255655   20.023833   24.304192 C.3        1 MOL1        -0.1985
       5    H1      21.108728   19.749626   23.672997 H          1 MOL1         0.0740
       6    H2      20.500585   20.993400   24.753117 H          1 MOL1         0.0740
       7    C3      18.966391   20.164052   23.449611 C.3        1 MOL1        -0.1882
       8    H3      18.148605   20.503820   24.099958 H          1 MOL1         0.0742
       9    H4      19.109561   20.959311   22.706737 H          1 MOL1         0.0742
      10    C4      18.524084   18.858954   22.738590 C.3        1 MOL1        -0.1880
      11    H5      17.603763   19.059748   22.173545 H          1 MOL1         0.0742
      12    H6      18.254551   18.111990   23.497845 H          1 MOL1         0.0742
      13    C5      19.573458   18.237140   21.783424 C.3        1 MOL1        -0.1880
      14    H7      20.460517   17.928471   22.352624 H          1 MOL1         0.0742
      15    H8      19.150928   17.316338   21.358977 H          1 MOL1         0.0742
      16    C6      19.991342   19.175910   20.629327 C.3        1 MOL1        -0.1856
      17    H9      20.486171   20.069836   21.031309 H          1 MOL1         0.0742
      18    H10     19.098414   19.518481   20.088603 H          1 MOL1         0.0742
      19    C7      20.948322   18.472386   19.646069 C.3        1 MOL1        -0.2871
      20    H11     20.471564   17.592196   19.195221 H          1 MOL1         0.0754
      21    H12     21.862774   18.143357   20.156852 H          1 MOL1         0.0754
      22    H13     21.238858   19.152997   18.835292 H          1 MOL1         0.0754
@<TRIPOS>BOND
    1     1     2    1
    2     1     3    2
    3     1     4    1
    4     4     5    1
    5     4     6    1
    6     4     7    1
    7     7     8    1
    8     7     9    1
    9     7    10    1
   10    10    11    1
   11    10    12    1
   12    10    13    1
   13    13    14    1
   14    13    15    1
   15    13    16    1
   16    16    17    1
   17    16    18    1
   18    16    19    1
   19    19    20    1
   20    19    21    1
   21    19    22    1
@<TRIPOS>SUBSTRUCTURE
       1 MOL1            1 RESIDUE      1      MOL     
@<SCITEGIC>MOL_PROPERTY
VM2 Rank
SciTegic.value.IntegerValue
36

@<SCITEGIC>MOL_PROPERTY
Conf_Id
SciTegic.value.IntegerValue
304

@<SCITEGIC>MOL_PROPERTY
Probability
SciTegic.value.DoubleValue
0.08

@<SCITEGIC>MOL_PROPERTY
Sum Probability
SciTegic.value.DoubleValue
99.29

@<SCITEGIC>MOL_PROPERTY
Delta G
SciTegic.value.DoubleValue
3.616

@<SCITEGIC>MOL_PROPERTY
G
SciTegic.value.DoubleValue
-13.382

@<SCITEGIC>MOL_PROPERTY
E
SciTegic.value.DoubleValue
-33.787

@<SCITEGIC>MOL_PROPERTY
-TS
SciTegic.value.DoubleValue
20.405

@<SCITEGIC>MOL_PROPERTY
U+W
SciTegic.value.DoubleValue
-51.672

@<SCITEGIC>MOL_PROPERTY
U
SciTegic.value.DoubleValue
10.053

@<SCITEGIC>MOL_PROPERTY
W
SciTegic.value.DoubleValue
-61.726

@<SCITEGIC>MOL_PROPERTY
W(PB)
SciTegic.value.DoubleValue
-63.943

@<SCITEGIC>MOL_PROPERTY
W(SA)
SciTegic.value.DoubleValue
2.217

@<SCITEGIC>MOL_PROPERTY
Valence
SciTegic.value.DoubleValue
8.321

@<SCITEGIC>MOL_PROPERTY
Coulomb
SciTegic.value.DoubleValue
1.288

@<SCITEGIC>MOL_PROPERTY
VdW
SciTegic.value.DoubleValue
0.445

@<SCITEGIC>MOL_PROPERTY
VdW6
SciTegic.value.DoubleValue
-9.397

@<SCITEGIC>MOL_PROPERTY
VdW12
SciTegic.value.DoubleValue
9.842

@<SCITEGIC>MOL_PROPERTY
Bond
SciTegic.value.DoubleValue
0.210

@<SCITEGIC>MOL_PROPERTY
Angle
SciTegic.value.DoubleValue
3.152

@<SCITEGIC>MOL_PROPERTY
Pdih
SciTegic.value.DoubleValue
4.957

@<SCITEGIC>MOL_PROPERTY
Idih
SciTegic.value.DoubleValue
0.001

@<SCITEGIC>MOL_PROPERTY
Tether
SciTegic.value.DoubleValue
0.000

@<TRIPOS>MOLECULE
guest-s21_vm2.mol2 : vm2 ligand conformer 37
          22          21           1
SMALL
USER_CHARGES
 
@<TRIPOS>ATOM
       1    C1      19.561241   19.455174   25.632727 C.2        1 MOL1         0.6145
       2    O1      20.202175   20.441155   25.938691 O.co2      1 MOL1        -0.6735
       3    O2      18.972494   18.759555   26.436516 O.co2      1 MOL1        -0.6735
       4    C2      19.511658   19.055618   24.162388 C.3        1 MOL1        -0.1985
       5    H1      19.536135   19.975945   23.568142 H          1 MOL1         0.0740
       6    H2      18.548879   18.565723   23.974396 H          1 MOL1         0.0740
       7    C3      20.677990   18.120332   23.754890 C.3        1 MOL1        -0.1882
       8    H3      21.629590   18.656431   23.874510 H          1 MOL1         0.0742
       9    H4      20.711822   17.274331   24.455290 H          1 MOL1         0.0742
      10    C4      20.574628   17.561002   22.313663 C.3        1 MOL1        -0.1880
      11    H5      19.673725   16.940300   22.213385 H          1 MOL1         0.0742
      12    H6      21.423773   16.880742   22.161526 H          1 MOL1         0.0742
      13    C5      20.612914   18.637080   21.199077 C.3        1 MOL1        -0.1880
      14    H7      21.176957   19.515435   21.541586 H          1 MOL1         0.0742
      15    H8      21.169384   18.231655   20.342943 H          1 MOL1         0.0742
      16    C6      19.209612   19.057277   20.704168 C.3        1 MOL1        -0.1856
      17    H9      18.606149   19.442226   21.534837 H          1 MOL1         0.0742
      18    H10     18.679915   18.178200   20.311943 H          1 MOL1         0.0742
      19    C7      19.297289   20.131805   19.601881 C.3        1 MOL1        -0.2871
      20    H11     19.794422   21.036762   19.975070 H          1 MOL1         0.0754
      21    H12     18.294370   20.414158   19.256248 H          1 MOL1         0.0754
      22    H13     19.862511   19.762021   18.736367 H          1 MOL1         0.0754
@<TRIPOS>BOND
    1     1     2    1
    2     1     3    2
    3     1     4    1
    4     4     5    1
    5     4     6    1
    6     4     7    1
    7     7     8    1
    8     7     9    1
    9     7    10    1
   10    10    11    1
   11    10    12    1
   12    10    13    1
   13    13    14    1
   14    13    15    1
   15    13    16    1
   16    16    17    1
   17    16    18    1
   18    16    19    1
   19    19    20    1
   20    19    21    1
   21    19    22    1
@<TRIPOS>SUBSTRUCTURE
       1 MOL1            1 RESIDUE      1      MOL     
@<SCITEGIC>MOL_PROPERTY
VM2 Rank
SciTegic.value.IntegerValue
37

@<SCITEGIC>MOL_PROPERTY
Conf_Id
SciTegic.value.IntegerValue
6

@<SCITEGIC>MOL_PROPERTY
Probability
SciTegic.value.DoubleValue
0.06

@<SCITEGIC>MOL_PROPERTY
Sum Probability
SciTegic.value.DoubleValue
99.35

@<SCITEGIC>MOL_PROPERTY
Delta G
SciTegic.value.DoubleValue
3.781

@<SCITEGIC>MOL_PROPERTY
G
SciTegic.value.DoubleValue
-13.217

@<SCITEGIC>MOL_PROPERTY
E
SciTegic.value.DoubleValue
-33.157

@<SCITEGIC>MOL_PROPERTY
-TS
SciTegic.value.DoubleValue
19.940

@<SCITEGIC>MOL_PROPERTY
U+W
SciTegic.value.DoubleValue
-51.042

@<SCITEGIC>MOL_PROPERTY
U
SciTegic.value.DoubleValue
10.045

@<SCITEGIC>MOL_PROPERTY
W
SciTegic.value.DoubleValue
-61.086

@<SCITEGIC>MOL_PROPERTY
W(PB)
SciTegic.value.DoubleValue
-63.356

@<SCITEGIC>MOL_PROPERTY
W(SA)
SciTegic.value.DoubleValue
2.270

@<SCITEGIC>MOL_PROPERTY
Valence
SciTegic.value.DoubleValue
10.100

@<SCITEGIC>MOL_PROPERTY
Coulomb
SciTegic.value.DoubleValue
-0.883

@<SCITEGIC>MOL_PROPERTY
VdW
SciTegic.value.DoubleValue
0.828

@<SCITEGIC>MOL_PROPERTY
VdW6
SciTegic.value.DoubleValue
-8.177

@<SCITEGIC>MOL_PROPERTY
VdW12
SciTegic.value.DoubleValue
9.004

@<SCITEGIC>MOL_PROPERTY
Bond
SciTegic.value.DoubleValue
0.182

@<SCITEGIC>MOL_PROPERTY
Angle
SciTegic.value.DoubleValue
2.988

@<SCITEGIC>MOL_PROPERTY
Pdih
SciTegic.value.DoubleValue
6.930

@<SCITEGIC>MOL_PROPERTY
Idih
SciTegic.value.DoubleValue
0.001

@<SCITEGIC>MOL_PROPERTY
Tether
SciTegic.value.DoubleValue
0.000

@<TRIPOS>MOLECULE
guest-s21_vm2.mol2 : vm2 ligand conformer 38
          22          21           1
SMALL
USER_CHARGES
 
@<TRIPOS>ATOM
       1    C1      20.053332   18.786873   25.343620 C.2        1 MOL1         0.6145
       2    O1      19.166440   18.478695   26.115547 O.co2      1 MOL1        -0.6735
       3    O2      20.981352   18.055447   25.059900 O.co2      1 MOL1        -0.6735
       4    C2      20.016188   20.182027   24.725758 C.3        1 MOL1        -0.1985
       5    H1      20.991253   20.390821   24.270983 H          1 MOL1         0.0740
       6    H2      19.897045   20.898406   25.546884 H          1 MOL1         0.0740
       7    C3      18.874583   20.389944   23.693180 C.3        1 MOL1        -0.1882
       8    H3      17.910277   20.239686   24.198004 H          1 MOL1         0.0742
       9    H4      18.883532   21.433862   23.351915 H          1 MOL1         0.0742
      10    C4      18.945887   19.450856   22.464149 C.3        1 MOL1        -0.1880
      11    H5      18.064063   19.632305   21.834907 H          1 MOL1         0.0742
      12    H6      18.879156   18.407379   22.799525 H          1 MOL1         0.0742
      13    C5      20.223882   19.650242   21.613736 C.3        1 MOL1        -0.1880
      14    H7      20.349853   20.720114   21.399252 H          1 MOL1         0.0742
      15    H8      21.106801   19.338175   22.187508 H          1 MOL1         0.0742
      16    C6      20.193041   18.879043   20.273721 C.3        1 MOL1        -0.1856
      17    H9      21.082875   19.151094   19.689497 H          1 MOL1         0.0742
      18    H10     19.323784   19.197211   19.681806 H          1 MOL1         0.0742
      19    C7      20.165295   17.345873   20.454390 C.3        1 MOL1        -0.2871
      20    H11     21.008854   17.008238   21.070690 H          1 MOL1         0.0754
      21    H12     20.233556   16.842550   19.481343 H          1 MOL1         0.0754
      22    H13     19.235512   17.016752   20.935055 H          1 MOL1         0.0754
@<TRIPOS>BOND
    1     1     2    1
    2     1     3    2
    3     1     4    1
    4     4     5    1
    5     4     6    1
    6     4     7    1
    7     7     8    1
    8     7     9    1
    9     7    10    1
   10    10    11    1
   11    10    12    1
   12    10    13    1
   13    13    14    1
   14    13    15    1
   15    13    16    1
   16    16    17    1
   17    16    18    1
   18    16    19    1
   19    19    20    1
   20    19    21    1
   21    19    22    1
@<TRIPOS>SUBSTRUCTURE
       1 MOL1            1 RESIDUE      1      MOL     
@<SCITEGIC>MOL_PROPERTY
VM2 Rank
SciTegic.value.IntegerValue
38

@<SCITEGIC>MOL_PROPERTY
Conf_Id
SciTegic.value.IntegerValue
92

@<SCITEGIC>MOL_PROPERTY
Probability
SciTegic.value.DoubleValue
0.06

@<SCITEGIC>MOL_PROPERTY
Sum Probability
SciTegic.value.DoubleValue
99.41

@<SCITEGIC>MOL_PROPERTY
Delta G
SciTegic.value.DoubleValue
3.789

@<SCITEGIC>MOL_PROPERTY
G
SciTegic.value.DoubleValue
-13.209

@<SCITEGIC>MOL_PROPERTY
E
SciTegic.value.DoubleValue
-33.371

@<SCITEGIC>MOL_PROPERTY
-TS
SciTegic.value.DoubleValue
20.162

@<SCITEGIC>MOL_PROPERTY
U+W
SciTegic.value.DoubleValue
-51.256

@<SCITEGIC>MOL_PROPERTY
U
SciTegic.value.DoubleValue
10.893

@<SCITEGIC>MOL_PROPERTY
W
SciTegic.value.DoubleValue
-62.149

@<SCITEGIC>MOL_PROPERTY
W(PB)
SciTegic.value.DoubleValue
-64.367

@<SCITEGIC>MOL_PROPERTY
W(SA)
SciTegic.value.DoubleValue
2.218

@<SCITEGIC>MOL_PROPERTY
Valence
SciTegic.value.DoubleValue
8.348

@<SCITEGIC>MOL_PROPERTY
Coulomb
SciTegic.value.DoubleValue
2.011

@<SCITEGIC>MOL_PROPERTY
VdW
SciTegic.value.DoubleValue
0.534

@<SCITEGIC>MOL_PROPERTY
VdW6
SciTegic.value.DoubleValue
-9.124

@<SCITEGIC>MOL_PROPERTY
VdW12
SciTegic.value.DoubleValue
9.658

@<SCITEGIC>MOL_PROPERTY
Bond
SciTegic.value.DoubleValue
0.201

@<SCITEGIC>MOL_PROPERTY
Angle
SciTegic.value.DoubleValue
2.939

@<SCITEGIC>MOL_PROPERTY
Pdih
SciTegic.value.DoubleValue
5.207

@<SCITEGIC>MOL_PROPERTY
Idih
SciTegic.value.DoubleValue
0.002

@<SCITEGIC>MOL_PROPERTY
Tether
SciTegic.value.DoubleValue
0.000

@<TRIPOS>MOLECULE
guest-s21_vm2.mol2 : vm2 ligand conformer 39
          22          21           1
SMALL
USER_CHARGES
 
@<TRIPOS>ATOM
       1    C1      20.273249   18.962451   25.235984 C.2        1 MOL1         0.6145
       2    O1      20.759219   20.045275   25.498325 O.co2      1 MOL1        -0.6735
       3    O2      20.914886   17.930926   25.199730 O.co2      1 MOL1        -0.6735
       4    C2      18.764861   18.880349   25.009097 C.3        1 MOL1        -0.1985
       5    H1      18.294628   19.180534   25.952655 H          1 MOL1         0.0740
       6    H2      18.486290   17.833306   24.838975 H          1 MOL1         0.0740
       7    C3      18.216157   19.776493   23.863265 C.3        1 MOL1        -0.1882
       8    H3      17.140182   19.919936   24.030974 H          1 MOL1         0.0742
       9    H4      18.666874   20.777006   23.921569 H          1 MOL1         0.0742
      10    C4      18.397822   19.194238   22.439578 C.3        1 MOL1        -0.1880
      11    H5      17.840853   19.829198   21.737022 H          1 MOL1         0.0742
      12    H6      17.938025   18.197962   22.386180 H          1 MOL1         0.0742
      13    C5      19.869576   19.112672   21.975035 C.3        1 MOL1        -0.1880
      14    H7      20.358384   20.085096   22.125049 H          1 MOL1         0.0742
      15    H8      20.413768   18.381691   22.586250 H          1 MOL1         0.0742
      16    C6      19.977470   18.703100   20.490935 C.3        1 MOL1        -0.1856
      17    H9      19.443940   19.431610   19.864857 H          1 MOL1         0.0742
      18    H10     19.487484   17.731380   20.338981 H          1 MOL1         0.0742
      19    C7      21.446760   18.613498   20.032051 C.3        1 MOL1        -0.2871
      20    H11     21.505332   18.320388   18.975793 H          1 MOL1         0.0754
      21    H12     21.997274   17.868858   20.621921 H          1 MOL1         0.0754
      22    H13     21.952668   19.581404   20.144225 H          1 MOL1         0.0754
@<TRIPOS>BOND
    1     1     2    1
    2     1     3    2
    3     1     4    1
    4     4     5    1
    5     4     6    1
    6     4     7    1
    7     7     8    1
    8     7     9    1
    9     7    10    1
   10    10    11    1
   11    10    12    1
   12    10    13    1
   13    13    14    1
   14    13    15    1
   15    13    16    1
   16    16    17    1
   17    16    18    1
   18    16    19    1
   19    19    20    1
   20    19    21    1
   21    19    22    1
@<TRIPOS>SUBSTRUCTURE
       1 MOL1            1 RESIDUE      1      MOL     
@<SCITEGIC>MOL_PROPERTY
VM2 Rank
SciTegic.value.IntegerValue
39

@<SCITEGIC>MOL_PROPERTY
Conf_Id
SciTegic.value.IntegerValue
64

@<SCITEGIC>MOL_PROPERTY
Probability
SciTegic.value.DoubleValue
0.06

@<SCITEGIC>MOL_PROPERTY
Sum Probability
SciTegic.value.DoubleValue
99.46

@<SCITEGIC>MOL_PROPERTY
Delta G
SciTegic.value.DoubleValue
3.798

@<SCITEGIC>MOL_PROPERTY
G
SciTegic.value.DoubleValue
-13.200

@<SCITEGIC>MOL_PROPERTY
E
SciTegic.value.DoubleValue
-33.389

@<SCITEGIC>MOL_PROPERTY
-TS
SciTegic.value.DoubleValue
20.189

@<SCITEGIC>MOL_PROPERTY
U+W
SciTegic.value.DoubleValue
-51.274

@<SCITEGIC>MOL_PROPERTY
U
SciTegic.value.DoubleValue
11.237

@<SCITEGIC>MOL_PROPERTY
W
SciTegic.value.DoubleValue
-62.511

@<SCITEGIC>MOL_PROPERTY
W(PB)
SciTegic.value.DoubleValue
-64.778

@<SCITEGIC>MOL_PROPERTY
W(SA)
SciTegic.value.DoubleValue
2.267

@<SCITEGIC>MOL_PROPERTY
Valence
SciTegic.value.DoubleValue
9.029

@<SCITEGIC>MOL_PROPERTY
Coulomb
SciTegic.value.DoubleValue
1.667

@<SCITEGIC>MOL_PROPERTY
VdW
SciTegic.value.DoubleValue
0.540

@<SCITEGIC>MOL_PROPERTY
VdW6
SciTegic.value.DoubleValue
-8.825

@<SCITEGIC>MOL_PROPERTY
VdW12
SciTegic.value.DoubleValue
9.364

@<SCITEGIC>MOL_PROPERTY
Bond
SciTegic.value.DoubleValue
0.186

@<SCITEGIC>MOL_PROPERTY
Angle
SciTegic.value.DoubleValue
3.195

@<SCITEGIC>MOL_PROPERTY
Pdih
SciTegic.value.DoubleValue
5.641

@<SCITEGIC>MOL_PROPERTY
Idih
SciTegic.value.DoubleValue
0.007

@<SCITEGIC>MOL_PROPERTY
Tether
SciTegic.value.DoubleValue
0.000

@<TRIPOS>MOLECULE
guest-s21_vm2.mol2 : vm2 ligand conformer 40
          22          21           1
SMALL
USER_CHARGES
 
@<TRIPOS>ATOM
       1    C1      19.599659   18.744333   25.659983 C.2        1 MOL1         0.6145
       2    O1      18.936294   19.432013   26.410734 O.co2      1 MOL1        -0.6735
       3    O2      20.341593   17.859214   26.037693 O.co2      1 MOL1        -0.6735
       4    C2      19.513429   19.022772   24.163642 C.3        1 MOL1        -0.1985
       5    H1      18.504303   19.390412   23.942765 H          1 MOL1         0.0740
       6    H2      19.639258   18.067747   23.641316 H          1 MOL1         0.0740
       7    C3      20.574005   20.044278   23.681103 C.3        1 MOL1        -0.1882
       8    H3      20.513682   20.940022   24.314683 H          1 MOL1         0.0742
       9    H4      21.577272   19.624424   23.837414 H          1 MOL1         0.0742
      10    C4      20.417023   20.477489   22.201794 C.3        1 MOL1        -0.1880
      11    H5      21.188659   21.231550   21.994632 H          1 MOL1         0.0742
      12    H6      19.454981   20.988159   22.058103 H          1 MOL1         0.0742
      13    C5      20.575483   19.329781   21.172540 C.3        1 MOL1        -0.1880
      14    H7      21.088699   19.726098   20.285671 H          1 MOL1         0.0742
      15    H8      21.229279   18.545935   21.578866 H          1 MOL1         0.0742
      16    C6      19.227590   18.724517   20.716915 C.3        1 MOL1        -0.1856
      17    H9      18.608059   19.508974   20.260841 H          1 MOL1         0.0742
      18    H10     18.665575   18.341488   21.577029 H          1 MOL1         0.0742
      19    C7      19.434924   17.584603   19.699595 C.3        1 MOL1        -0.2871
      20    H11     19.960598   17.945857   18.806009 H          1 MOL1         0.0754
      21    H12     18.469646   17.170364   19.380728 H          1 MOL1         0.0754
      22    H13     20.025042   16.769585   20.138760 H          1 MOL1         0.0754
@<TRIPOS>BOND
    1     1     2    1
    2     1     3    2
    3     1     4    1
    4     4     5    1
    5     4     6    1
    6     4     7    1
    7     7     8    1
    8     7     9    1
    9     7    10    1
   10    10    11    1
   11    10    12    1
   12    10    13    1
   13    13    14    1
   14    13    15    1
   15    13    16    1
   16    16    17    1
   17    16    18    1
   18    16    19    1
   19    19    20    1
   20    19    21    1
   21    19    22    1
@<TRIPOS>SUBSTRUCTURE
       1 MOL1            1 RESIDUE      1      MOL     
@<SCITEGIC>MOL_PROPERTY
VM2 Rank
SciTegic.value.IntegerValue
40

@<SCITEGIC>MOL_PROPERTY
Conf_Id
SciTegic.value.IntegerValue
537

@<SCITEGIC>MOL_PROPERTY
Probability
SciTegic.value.DoubleValue
0.05

@<SCITEGIC>MOL_PROPERTY
Sum Probability
SciTegic.value.DoubleValue
99.52

@<SCITEGIC>MOL_PROPERTY
Delta G
SciTegic.value.DoubleValue
3.828

@<SCITEGIC>MOL_PROPERTY
G
SciTegic.value.DoubleValue
-13.170

@<SCITEGIC>MOL_PROPERTY
E
SciTegic.value.DoubleValue
-33.110

@<SCITEGIC>MOL_PROPERTY
-TS
SciTegic.value.DoubleValue
19.940

@<SCITEGIC>MOL_PROPERTY
U+W
SciTegic.value.DoubleValue
-50.994

@<SCITEGIC>MOL_PROPERTY
U
SciTegic.value.DoubleValue
10.045

@<SCITEGIC>MOL_PROPERTY
W
SciTegic.value.DoubleValue
-61.039

@<SCITEGIC>MOL_PROPERTY
W(PB)
SciTegic.value.DoubleValue
-63.312

@<SCITEGIC>MOL_PROPERTY
W(SA)
SciTegic.value.DoubleValue
2.273

@<SCITEGIC>MOL_PROPERTY
Valence
SciTegic.value.DoubleValue
10.100

@<SCITEGIC>MOL_PROPERTY
Coulomb
SciTegic.value.DoubleValue
-0.883

@<SCITEGIC>MOL_PROPERTY
VdW
SciTegic.value.DoubleValue
0.828

@<SCITEGIC>MOL_PROPERTY
VdW6
SciTegic.value.DoubleValue
-8.177

@<SCITEGIC>MOL_PROPERTY
VdW12
SciTegic.value.DoubleValue
9.005

@<SCITEGIC>MOL_PROPERTY
Bond
SciTegic.value.DoubleValue
0.182

@<SCITEGIC>MOL_PROPERTY
Angle
SciTegic.value.DoubleValue
2.988

@<SCITEGIC>MOL_PROPERTY
Pdih
SciTegic.value.DoubleValue
6.930

@<SCITEGIC>MOL_PROPERTY
Idih
SciTegic.value.DoubleValue
0.001

@<SCITEGIC>MOL_PROPERTY
Tether
SciTegic.value.DoubleValue
0.000

@<TRIPOS>MOLECULE
guest-s21_vm2.mol2 : vm2 ligand conformer 41
          22          21           1
SMALL
USER_CHARGES
 
@<TRIPOS>ATOM
       1    C1      20.199001   18.945040   25.335997 C.2        1 MOL1         0.6145
       2    O1      20.469294   19.893554   26.046410 O.co2      1 MOL1        -0.6735
       3    O2      20.990666   18.065540   25.059508 O.co2      1 MOL1        -0.6735
       4    C2      18.777331   18.836736   24.791275 C.3        1 MOL1        -0.1985
       5    H1      18.094122   18.940613   25.642203 H          1 MOL1         0.0740
       6    H2      18.628801   17.825413   24.395887 H          1 MOL1         0.0740
       7    C3      18.425156   19.901877   23.716955 C.3        1 MOL1        -0.1882
       8    H3      17.370321   19.790624   23.431906 H          1 MOL1         0.0742
       9    H4      18.518742   20.900398   24.165852 H          1 MOL1         0.0742
      10    C4      19.306280   19.842150   22.445128 C.3        1 MOL1        -0.1880
      11    H5      20.355571   20.010576   22.721528 H          1 MOL1         0.0742
      12    H6      19.021647   20.672078   21.784306 H          1 MOL1         0.0742
      13    C5      19.173232   18.509243   21.669313 C.3        1 MOL1        -0.1880
      14    H7      19.585328   17.685878   22.267973 H          1 MOL1         0.0742
      15    H8      18.108467   18.286041   21.517800 H          1 MOL1         0.0742
      16    C6      19.873299   18.531801   20.290638 C.3        1 MOL1        -0.1856
      17    H9      19.455323   19.340063   19.674836 H          1 MOL1         0.0742
      18    H10     19.648523   17.593332   19.765390 H          1 MOL1         0.0742
      19    C7      21.405742   18.693060   20.388776 C.3        1 MOL1        -0.2871
      20    H11     21.678964   19.670467   20.805769 H          1 MOL1         0.0754
      21    H12     21.865249   18.614600   19.395040 H          1 MOL1         0.0754
      22    H13     21.842129   17.913252   21.026648 H          1 MOL1         0.0754
@<TRIPOS>BOND
    1     1     2    1
    2     1     3    2
    3     1     4    1
    4     4     5    1
    5     4     6    1
    6     4     7    1
    7     7     8    1
    8     7     9    1
    9     7    10    1
   10    10    11    1
   11    10    12    1
   12    10    13    1
   13    13    14    1
   14    13    15    1
   15    13    16    1
   16    16    17    1
   17    16    18    1
   18    16    19    1
   19    19    20    1
   20    19    21    1
   21    19    22    1
@<TRIPOS>SUBSTRUCTURE
       1 MOL1            1 RESIDUE      1      MOL     
@<SCITEGIC>MOL_PROPERTY
VM2 Rank
SciTegic.value.IntegerValue
41

@<SCITEGIC>MOL_PROPERTY
Conf_Id
SciTegic.value.IntegerValue
468

@<SCITEGIC>MOL_PROPERTY
Probability
SciTegic.value.DoubleValue
0.05

@<SCITEGIC>MOL_PROPERTY
Sum Probability
SciTegic.value.DoubleValue
99.57

@<SCITEGIC>MOL_PROPERTY
Delta G
SciTegic.value.DoubleValue
3.830

@<SCITEGIC>MOL_PROPERTY
G
SciTegic.value.DoubleValue
-13.168

@<SCITEGIC>MOL_PROPERTY
E
SciTegic.value.DoubleValue
-33.331

@<SCITEGIC>MOL_PROPERTY
-TS
SciTegic.value.DoubleValue
20.163

@<SCITEGIC>MOL_PROPERTY
U+W
SciTegic.value.DoubleValue
-51.215

@<SCITEGIC>MOL_PROPERTY
U
SciTegic.value.DoubleValue
10.893

@<SCITEGIC>MOL_PROPERTY
W
SciTegic.value.DoubleValue
-62.109

@<SCITEGIC>MOL_PROPERTY
W(PB)
SciTegic.value.DoubleValue
-64.322

@<SCITEGIC>MOL_PROPERTY
W(SA)
SciTegic.value.DoubleValue
2.214

@<SCITEGIC>MOL_PROPERTY
Valence
SciTegic.value.DoubleValue
8.348

@<SCITEGIC>MOL_PROPERTY
Coulomb
SciTegic.value.DoubleValue
2.011

@<SCITEGIC>MOL_PROPERTY
VdW
SciTegic.value.DoubleValue
0.534

@<SCITEGIC>MOL_PROPERTY
VdW6
SciTegic.value.DoubleValue
-9.124

@<SCITEGIC>MOL_PROPERTY
VdW12
SciTegic.value.DoubleValue
9.658

@<SCITEGIC>MOL_PROPERTY
Bond
SciTegic.value.DoubleValue
0.201

@<SCITEGIC>MOL_PROPERTY
Angle
SciTegic.value.DoubleValue
2.939

@<SCITEGIC>MOL_PROPERTY
Pdih
SciTegic.value.DoubleValue
5.206

@<SCITEGIC>MOL_PROPERTY
Idih
SciTegic.value.DoubleValue
0.002

@<SCITEGIC>MOL_PROPERTY
Tether
SciTegic.value.DoubleValue
0.000

@<TRIPOS>MOLECULE
guest-s21_vm2.mol2 : vm2 ligand conformer 42
          22          21           1
SMALL
USER_CHARGES
 
@<TRIPOS>ATOM
       1    C1      20.256136   19.279070   25.223828 C.2        1 MOL1         0.6145
       2    O1      20.783026   20.367953   25.106445 O.co2      1 MOL1        -0.6735
       3    O2      20.854871   18.278076   25.565909 O.co2      1 MOL1        -0.6735
       4    C2      18.748622   19.180721   24.997593 C.3        1 MOL1        -0.1985
       5    H1      18.359626   20.175620   24.749193 H          1 MOL1         0.0740
       6    H2      18.309575   18.904566   25.963257 H          1 MOL1         0.0740
       7    C3      18.304310   18.145858   23.925806 C.3        1 MOL1        -0.1882
       8    H3      18.859862   17.207064   24.058475 H          1 MOL1         0.0742
       9    H4      17.249346   17.900655   24.108419 H          1 MOL1         0.0742
      10    C4      18.428116   18.633869   22.461078 C.3        1 MOL1        -0.1880
      11    H5      17.864009   19.567883   22.333682 H          1 MOL1         0.0742
      12    H6      17.945595   17.890890   21.811363 H          1 MOL1         0.0742
      13    C5      19.884442   18.837612   21.985567 C.3        1 MOL1        -0.1880
      14    H7      20.344331   19.667379   22.536974 H          1 MOL1         0.0742
      15    H8      20.474408   17.937711   22.207302 H          1 MOL1         0.0742
      16    C6      19.953737   19.141994   20.474112 C.3        1 MOL1        -0.1856
      17    H9      19.362703   20.040935   20.250507 H          1 MOL1         0.0742
      18    H10     19.504237   18.314702   19.907639 H          1 MOL1         0.0742
      19    C7      21.406739   19.353846   20.003664 C.3        1 MOL1        -0.2871
      20    H11     21.871535   20.196189   20.532741 H          1 MOL1         0.0754
      21    H12     21.437796   19.570125   18.927893 H          1 MOL1         0.0754
      22    H13     22.013352   18.457362   20.187255 H          1 MOL1         0.0754
@<TRIPOS>BOND
    1     1     2    1
    2     1     3    2
    3     1     4    1
    4     4     5    1
    5     4     6    1
    6     4     7    1
    7     7     8    1
    8     7     9    1
    9     7    10    1
   10    10    11    1
   11    10    12    1
   12    10    13    1
   13    13    14    1
   14    13    15    1
   15    13    16    1
   16    16    17    1
   17    16    18    1
   18    16    19    1
   19    19    20    1
   20    19    21    1
   21    19    22    1
@<TRIPOS>SUBSTRUCTURE
       1 MOL1            1 RESIDUE      1      MOL     
@<SCITEGIC>MOL_PROPERTY
VM2 Rank
SciTegic.value.IntegerValue
42

@<SCITEGIC>MOL_PROPERTY
Conf_Id
SciTegic.value.IntegerValue
268

@<SCITEGIC>MOL_PROPERTY
Probability
SciTegic.value.DoubleValue
0.05

@<SCITEGIC>MOL_PROPERTY
Sum Probability
SciTegic.value.DoubleValue
99.62

@<SCITEGIC>MOL_PROPERTY
Delta G
SciTegic.value.DoubleValue
3.841

@<SCITEGIC>MOL_PROPERTY
G
SciTegic.value.DoubleValue
-13.157

@<SCITEGIC>MOL_PROPERTY
E
SciTegic.value.DoubleValue
-33.345

@<SCITEGIC>MOL_PROPERTY
-TS
SciTegic.value.DoubleValue
20.188

@<SCITEGIC>MOL_PROPERTY
U+W
SciTegic.value.DoubleValue
-51.230

@<SCITEGIC>MOL_PROPERTY
U
SciTegic.value.DoubleValue
11.237

@<SCITEGIC>MOL_PROPERTY
W
SciTegic.value.DoubleValue
-62.466

@<SCITEGIC>MOL_PROPERTY
W(PB)
SciTegic.value.DoubleValue
-64.732

@<SCITEGIC>MOL_PROPERTY
W(SA)
SciTegic.value.DoubleValue
2.265

@<SCITEGIC>MOL_PROPERTY
Valence
SciTegic.value.DoubleValue
9.029

@<SCITEGIC>MOL_PROPERTY
Coulomb
SciTegic.value.DoubleValue
1.667

@<SCITEGIC>MOL_PROPERTY
VdW
SciTegic.value.DoubleValue
0.540

@<SCITEGIC>MOL_PROPERTY
VdW6
SciTegic.value.DoubleValue
-8.824

@<SCITEGIC>MOL_PROPERTY
VdW12
SciTegic.value.DoubleValue
9.364

@<SCITEGIC>MOL_PROPERTY
Bond
SciTegic.value.DoubleValue
0.186

@<SCITEGIC>MOL_PROPERTY
Angle
SciTegic.value.DoubleValue
3.195

@<SCITEGIC>MOL_PROPERTY
Pdih
SciTegic.value.DoubleValue
5.641

@<SCITEGIC>MOL_PROPERTY
Idih
SciTegic.value.DoubleValue
0.007

@<SCITEGIC>MOL_PROPERTY
Tether
SciTegic.value.DoubleValue
0.000

@<TRIPOS>MOLECULE
guest-s21_vm2.mol2 : vm2 ligand conformer 43
          22          21           1
SMALL
USER_CHARGES
 
@<TRIPOS>ATOM
       1    C1      20.241016   19.074298   25.652467 C.2        1 MOL1         0.6145
       2    O1      19.669477   19.500388   26.636549 O.co2      1 MOL1        -0.6735
       3    O2      21.046846   18.165386   25.683084 O.co2      1 MOL1        -0.6735
       4    C2      19.913772   19.701545   24.302190 C.3        1 MOL1        -0.1985
       5    H1      20.816587   19.658945   23.685014 H          1 MOL1         0.0740
       6    H2      19.690201   20.762241   24.467403 H          1 MOL1         0.0740
       7    C3      18.718540   19.010919   23.593570 C.3        1 MOL1        -0.1882
       8    H3      18.911854   17.934498   23.487139 H          1 MOL1         0.0742
       9    H4      17.840448   19.100077   24.248125 H          1 MOL1         0.0742
      10    C4      18.376014   19.633517   22.216273 C.3        1 MOL1        -0.1880
      11    H5      18.650085   20.697255   22.200242 H          1 MOL1         0.0742
      12    H6      17.285053   19.604795   22.090080 H          1 MOL1         0.0742
      13    C5      19.004155   18.904099   21.002250 C.3        1 MOL1        -0.1880
      14    H7      18.644333   17.866508   20.973865 H          1 MOL1         0.0742
      15    H8      18.635199   19.382748   20.084833 H          1 MOL1         0.0742
      16    C6      20.548175   18.910968   20.984427 C.3        1 MOL1        -0.1856
      17    H9      20.933038   18.324546   21.829131 H          1 MOL1         0.0742
      18    H10     20.917160   19.938708   21.105285 H          1 MOL1         0.0742
      19    C7      21.102006   18.317878   19.673190 C.3        1 MOL1        -0.2871
      20    H11     20.767643   17.280697   19.539719 H          1 MOL1         0.0754
      21    H12     22.199712   18.321908   19.680484 H          1 MOL1         0.0754
      22    H13     20.767004   18.900846   18.805297 H          1 MOL1         0.0754
@<TRIPOS>BOND
    1     1     2    1
    2     1     3    2
    3     1     4    1
    4     4     5    1
    5     4     6    1
    6     4     7    1
    7     7     8    1
    8     7     9    1
    9     7    10    1
   10    10    11    1
   11    10    12    1
   12    10    13    1
   13    13    14    1
   14    13    15    1
   15    13    16    1
   16    16    17    1
   17    16    18    1
   18    16    19    1
   19    19    20    1
   20    19    21    1
   21    19    22    1
@<TRIPOS>SUBSTRUCTURE
       1 MOL1            1 RESIDUE      1      MOL     
@<SCITEGIC>MOL_PROPERTY
VM2 Rank
SciTegic.value.IntegerValue
43

@<SCITEGIC>MOL_PROPERTY
Conf_Id
SciTegic.value.IntegerValue
69

@<SCITEGIC>MOL_PROPERTY
Probability
SciTegic.value.DoubleValue
0.05

@<SCITEGIC>MOL_PROPERTY
Sum Probability
SciTegic.value.DoubleValue
99.67

@<SCITEGIC>MOL_PROPERTY
Delta G
SciTegic.value.DoubleValue
3.884

@<SCITEGIC>MOL_PROPERTY
G
SciTegic.value.DoubleValue
-13.115

@<SCITEGIC>MOL_PROPERTY
E
SciTegic.value.DoubleValue
-33.060

@<SCITEGIC>MOL_PROPERTY
-TS
SciTegic.value.DoubleValue
19.946

@<SCITEGIC>MOL_PROPERTY
U+W
SciTegic.value.DoubleValue
-50.945

@<SCITEGIC>MOL_PROPERTY
U
SciTegic.value.DoubleValue
10.205

@<SCITEGIC>MOL_PROPERTY
W
SciTegic.value.DoubleValue
-61.150

@<SCITEGIC>MOL_PROPERTY
W(PB)
SciTegic.value.DoubleValue
-63.413

@<SCITEGIC>MOL_PROPERTY
W(SA)
SciTegic.value.DoubleValue
2.262

@<SCITEGIC>MOL_PROPERTY
Valence
SciTegic.value.DoubleValue
10.107

@<SCITEGIC>MOL_PROPERTY
Coulomb
SciTegic.value.DoubleValue
-0.699

@<SCITEGIC>MOL_PROPERTY
VdW
SciTegic.value.DoubleValue
0.797

@<SCITEGIC>MOL_PROPERTY
VdW6
SciTegic.value.DoubleValue
-8.211

@<SCITEGIC>MOL_PROPERTY
VdW12
SciTegic.value.DoubleValue
9.008

@<SCITEGIC>MOL_PROPERTY
Bond
SciTegic.value.DoubleValue
0.191

@<SCITEGIC>MOL_PROPERTY
Angle
SciTegic.value.DoubleValue
3.004

@<SCITEGIC>MOL_PROPERTY
Pdih
SciTegic.value.DoubleValue
6.912

@<SCITEGIC>MOL_PROPERTY
Idih
SciTegic.value.DoubleValue
0.001

@<SCITEGIC>MOL_PROPERTY
Tether
SciTegic.value.DoubleValue
0.000

@<TRIPOS>MOLECULE
guest-s21_vm2.mol2 : vm2 ligand conformer 44
          22          21           1
SMALL
USER_CHARGES
 
@<TRIPOS>ATOM
       1    C1      20.234355   19.196765   25.647735 C.2        1 MOL1         0.6145
       2    O1      20.937232   20.187018   25.605486 O.co2      1 MOL1        -0.6735
       3    O2      19.708014   18.787946   26.663835 O.co2      1 MOL1        -0.6735
       4    C2      19.982417   18.436488   24.350708 C.3        1 MOL1        -0.1985
       5    H1      19.874143   17.373582   24.597410 H          1 MOL1         0.0740
       6    H2      20.877878   18.529152   23.728326 H          1 MOL1         0.0740
       7    C3      18.722463   18.937676   23.596376 C.3        1 MOL1        -0.1882
       8    H3      17.856451   18.804322   24.259457 H          1 MOL1         0.0742
       9    H4      18.798678   20.017403   23.407261 H          1 MOL1         0.0742
      10    C4      18.455002   18.178349   22.272070 C.3        1 MOL1        -0.1880
      11    H5      17.367866   18.079243   22.148543 H          1 MOL1         0.0742
      12    H6      18.842528   17.152375   22.336193 H          1 MOL1         0.0742
      13    C5      19.005673   18.876553   21.003318 C.3        1 MOL1        -0.1880
      14    H7      18.694460   18.292173   20.126657 H          1 MOL1         0.0742
      15    H8      18.535912   19.863948   20.897259 H          1 MOL1         0.0742
      16    C6      20.541447   19.035304   20.979721 C.3        1 MOL1        -0.1856
      17    H9      21.018868   18.065730   21.177205 H          1 MOL1         0.0742
      18    H10     20.857124   19.722691   21.775574 H          1 MOL1         0.0742
      19    C7      21.033396   19.582900   19.624751 C.3        1 MOL1        -0.2871
      20    H11     22.125067   19.698106   19.627816 H          1 MOL1         0.0754
      21    H12     20.589447   20.564623   19.413834 H          1 MOL1         0.0754
      22    H13     20.766994   18.902567   18.805306 H          1 MOL1         0.0754
@<TRIPOS>BOND
    1     1     2    1
    2     1     3    2
    3     1     4    1
    4     4     5    1
    5     4     6    1
    6     4     7    1
    7     7     8    1
    8     7     9    1
    9     7    10    1
   10    10    11    1
   11    10    12    1
   12    10    13    1
   13    13    14    1
   14    13    15    1
   15    13    16    1
   16    16    17    1
   17    16    18    1
   18    16    19    1
   19    19    20    1
   20    19    21    1
   21    19    22    1
@<TRIPOS>SUBSTRUCTURE
       1 MOL1            1 RESIDUE      1      MOL     
@<SCITEGIC>MOL_PROPERTY
VM2 Rank
SciTegic.value.IntegerValue
44

@<SCITEGIC>MOL_PROPERTY
Conf_Id
SciTegic.value.IntegerValue
567

@<SCITEGIC>MOL_PROPERTY
Probability
SciTegic.value.DoubleValue
0.05

@<SCITEGIC>MOL_PROPERTY
Sum Probability
SciTegic.value.DoubleValue
99.71

@<SCITEGIC>MOL_PROPERTY
Delta G
SciTegic.value.DoubleValue
3.908

@<SCITEGIC>MOL_PROPERTY
G
SciTegic.value.DoubleValue
-13.090

@<SCITEGIC>MOL_PROPERTY
E
SciTegic.value.DoubleValue
-33.035

@<SCITEGIC>MOL_PROPERTY
-TS
SciTegic.value.DoubleValue
19.945

@<SCITEGIC>MOL_PROPERTY
U+W
SciTegic.value.DoubleValue
-50.920

@<SCITEGIC>MOL_PROPERTY
U
SciTegic.value.DoubleValue
10.205

@<SCITEGIC>MOL_PROPERTY
W
SciTegic.value.DoubleValue
-61.125

@<SCITEGIC>MOL_PROPERTY
W(PB)
SciTegic.value.DoubleValue
-63.384

@<SCITEGIC>MOL_PROPERTY
W(SA)
SciTegic.value.DoubleValue
2.259

@<SCITEGIC>MOL_PROPERTY
Valence
SciTegic.value.DoubleValue
10.107

@<SCITEGIC>MOL_PROPERTY
Coulomb
SciTegic.value.DoubleValue
-0.699

@<SCITEGIC>MOL_PROPERTY
VdW
SciTegic.value.DoubleValue
0.797

@<SCITEGIC>MOL_PROPERTY
VdW6
SciTegic.value.DoubleValue
-8.212

@<SCITEGIC>MOL_PROPERTY
VdW12
SciTegic.value.DoubleValue
9.009

@<SCITEGIC>MOL_PROPERTY
Bond
SciTegic.value.DoubleValue
0.191

@<SCITEGIC>MOL_PROPERTY
Angle
SciTegic.value.DoubleValue
3.004

@<SCITEGIC>MOL_PROPERTY
Pdih
SciTegic.value.DoubleValue
6.911

@<SCITEGIC>MOL_PROPERTY
Idih
SciTegic.value.DoubleValue
0.001

@<SCITEGIC>MOL_PROPERTY
Tether
SciTegic.value.DoubleValue
0.000

@<TRIPOS>MOLECULE
guest-s21_vm2.mol2 : vm2 ligand conformer 45
          22          21           1
SMALL
USER_CHARGES
 
@<TRIPOS>ATOM
       1    C1      19.647834   19.369674   25.771487 C.2        1 MOL1         0.6145
       2    O1      20.477827   20.118870   26.247233 O.co2      1 MOL1        -0.6735
       3    O2      18.465122   19.413681   26.046698 O.co2      1 MOL1        -0.6735
       4    C2      20.113703   18.327658   24.760779 C.3        1 MOL1        -0.1985
       5    H1      19.470186   17.445186   24.859567 H          1 MOL1         0.0740
       6    H2      21.130447   18.020070   25.033144 H          1 MOL1         0.0740
       7    C3      20.084517   18.849150   23.302890 C.3        1 MOL1        -0.1882
       8    H3      19.061356   19.166118   23.062366 H          1 MOL1         0.0742
       9    H4      20.727820   19.736050   23.220810 H          1 MOL1         0.0742
      10    C4      20.548583   17.771419   22.297916 C.3        1 MOL1        -0.1880
      11    H5      19.846491   16.926704   22.318369 H          1 MOL1         0.0742
      12    H6      21.519073   17.373501   22.624570 H          1 MOL1         0.0742
      13    C5      20.698711   18.280738   20.842419 C.3        1 MOL1        -0.1880
      14    H7      21.467482   19.064075   20.794507 H          1 MOL1         0.0742
      15    H8      21.084505   17.447319   20.239539 H          1 MOL1         0.0742
      16    C6      19.384479   18.778401   20.190495 C.3        1 MOL1        -0.1856
      17    H9      18.520744   18.262320   20.631933 H          1 MOL1         0.0742
      18    H10     19.394046   18.502561   19.126951 H          1 MOL1         0.0742
      19    C7      19.199225   20.309410   20.284083 C.3        1 MOL1        -0.2871
      20    H11     20.023770   20.833489   19.783543 H          1 MOL1         0.0754
      21    H12     19.161664   20.653711   21.323778 H          1 MOL1         0.0754
      22    H13     18.263772   20.613194   19.796782 H          1 MOL1         0.0754
@<TRIPOS>BOND
    1     1     2    1
    2     1     3    2
    3     1     4    1
    4     4     5    1
    5     4     6    1
    6     4     7    1
    7     7     8    1
    8     7     9    1
    9     7    10    1
   10    10    11    1
   11    10    12    1
   12    10    13    1
   13    13    14    1
   14    13    15    1
   15    13    16    1
   16    16    17    1
   17    16    18    1
   18    16    19    1
   19    19    20    1
   20    19    21    1
   21    19    22    1
@<TRIPOS>SUBSTRUCTURE
       1 MOL1            1 RESIDUE      1      MOL     
@<SCITEGIC>MOL_PROPERTY
VM2 Rank
SciTegic.value.IntegerValue
45

@<SCITEGIC>MOL_PROPERTY
Conf_Id
SciTegic.value.IntegerValue
536

@<SCITEGIC>MOL_PROPERTY
Probability
SciTegic.value.DoubleValue
0.04

@<SCITEGIC>MOL_PROPERTY
Sum Probability
SciTegic.value.DoubleValue
99.76

@<SCITEGIC>MOL_PROPERTY
Delta G
SciTegic.value.DoubleValue
3.937

@<SCITEGIC>MOL_PROPERTY
G
SciTegic.value.DoubleValue
-13.061

@<SCITEGIC>MOL_PROPERTY
E
SciTegic.value.DoubleValue
-32.970

@<SCITEGIC>MOL_PROPERTY
-TS
SciTegic.value.DoubleValue
19.909

@<SCITEGIC>MOL_PROPERTY
U+W
SciTegic.value.DoubleValue
-50.855

@<SCITEGIC>MOL_PROPERTY
U
SciTegic.value.DoubleValue
10.452

@<SCITEGIC>MOL_PROPERTY
W
SciTegic.value.DoubleValue
-61.308

@<SCITEGIC>MOL_PROPERTY
W(PB)
SciTegic.value.DoubleValue
-63.579

@<SCITEGIC>MOL_PROPERTY
W(SA)
SciTegic.value.DoubleValue
2.272

@<SCITEGIC>MOL_PROPERTY
Valence
SciTegic.value.DoubleValue
10.097

@<SCITEGIC>MOL_PROPERTY
Coulomb
SciTegic.value.DoubleValue
-0.504

@<SCITEGIC>MOL_PROPERTY
VdW
SciTegic.value.DoubleValue
0.859

@<SCITEGIC>MOL_PROPERTY
VdW6
SciTegic.value.DoubleValue
-8.064

@<SCITEGIC>MOL_PROPERTY
VdW12
SciTegic.value.DoubleValue
8.923

@<SCITEGIC>MOL_PROPERTY
Bond
SciTegic.value.DoubleValue
0.175

@<SCITEGIC>MOL_PROPERTY
Angle
SciTegic.value.DoubleValue
2.998

@<SCITEGIC>MOL_PROPERTY
Pdih
SciTegic.value.DoubleValue
6.924

@<SCITEGIC>MOL_PROPERTY
Idih
SciTegic.value.DoubleValue
0.000

@<SCITEGIC>MOL_PROPERTY
Tether
SciTegic.value.DoubleValue
0.000

@<TRIPOS>MOLECULE
guest-s21_vm2.mol2 : vm2 ligand conformer 46
          22          21           1
SMALL
USER_CHARGES
 
@<TRIPOS>ATOM
       1    C1      20.018170   19.327685   25.819566 C.2        1 MOL1         0.6145
       2    O1      20.536040   20.418789   25.952839 O.co2      1 MOL1        -0.6735
       3    O2      20.227371   18.388336   26.561455 O.co2      1 MOL1        -0.6735
       4    C2      19.067474   19.120148   24.645926 C.3        1 MOL1        -0.1985
       5    H1      18.565346   20.073395   24.441435 H          1 MOL1         0.0740
       6    H2      18.294793   18.406208   24.955452 H          1 MOL1         0.0740
       7    C3      19.786243   18.611898   23.371932 C.3        1 MOL1        -0.1882
       8    H3      20.569312   19.327335   23.093276 H          1 MOL1         0.0742
       9    H4      20.293245   17.663689   23.597926 H          1 MOL1         0.0742
      10    C4      18.798045   18.404143   22.199950 C.3        1 MOL1        -0.1880
      11    H5      18.243894   19.330917   21.997719 H          1 MOL1         0.0742
      12    H6      18.050275   17.661656   22.510655 H          1 MOL1         0.0742
      13    C5      19.480998   17.900018   20.903309 C.3        1 MOL1        -0.1880
      14    H7      20.375872   17.311514   21.147716 H          1 MOL1         0.0742
      15    H8      18.793402   17.203774   20.403963 H          1 MOL1         0.0742
      16    C6      19.837152   19.011965   19.885790 C.3        1 MOL1        -0.1856
      17    H9      18.922363   19.538510   19.580601 H          1 MOL1         0.0742
      18    H10     20.236366   18.538748   18.978122 H          1 MOL1         0.0742
      19    C7      20.868506   20.036019   20.403232 C.3        1 MOL1        -0.2871
      20    H11     20.447819   20.647255   21.211361 H          1 MOL1         0.0754
      21    H12     21.170812   20.716985   19.597214 H          1 MOL1         0.0754
      22    H13     21.769482   19.533204   20.777942 H          1 MOL1         0.0754
@<TRIPOS>BOND
    1     1     2    1
    2     1     3    2
    3     1     4    1
    4     4     5    1
    5     4     6    1
    6     4     7    1
    7     7     8    1
    8     7     9    1
    9     7    10    1
   10    10    11    1
   11    10    12    1
   12    10    13    1
   13    13    14    1
   14    13    15    1
   15    13    16    1
   16    16    17    1
   17    16    18    1
   18    16    19    1
   19    19    20    1
   20    19    21    1
   21    19    22    1
@<TRIPOS>SUBSTRUCTURE
       1 MOL1            1 RESIDUE      1      MOL     
@<SCITEGIC>MOL_PROPERTY
VM2 Rank
SciTegic.value.IntegerValue
46

@<SCITEGIC>MOL_PROPERTY
Conf_Id
SciTegic.value.IntegerValue
464

@<SCITEGIC>MOL_PROPERTY
Probability
SciTegic.value.DoubleValue
0.04

@<SCITEGIC>MOL_PROPERTY
Sum Probability
SciTegic.value.DoubleValue
99.80

@<SCITEGIC>MOL_PROPERTY
Delta G
SciTegic.value.DoubleValue
3.974

@<SCITEGIC>MOL_PROPERTY
G
SciTegic.value.DoubleValue
-13.024

@<SCITEGIC>MOL_PROPERTY
E
SciTegic.value.DoubleValue
-32.932

@<SCITEGIC>MOL_PROPERTY
-TS
SciTegic.value.DoubleValue
19.908

@<SCITEGIC>MOL_PROPERTY
U+W
SciTegic.value.DoubleValue
-50.817

@<SCITEGIC>MOL_PROPERTY
U
SciTegic.value.DoubleValue
10.295

@<SCITEGIC>MOL_PROPERTY
W
SciTegic.value.DoubleValue
-61.112

@<SCITEGIC>MOL_PROPERTY
W(PB)
SciTegic.value.DoubleValue
-63.368

@<SCITEGIC>MOL_PROPERTY
W(SA)
SciTegic.value.DoubleValue
2.256

@<SCITEGIC>MOL_PROPERTY
Valence
SciTegic.value.DoubleValue
10.075

@<SCITEGIC>MOL_PROPERTY
Coulomb
SciTegic.value.DoubleValue
-0.615

@<SCITEGIC>MOL_PROPERTY
VdW
SciTegic.value.DoubleValue
0.835

@<SCITEGIC>MOL_PROPERTY
VdW6
SciTegic.value.DoubleValue
-8.072

@<SCITEGIC>MOL_PROPERTY
VdW12
SciTegic.value.DoubleValue
8.907

@<SCITEGIC>MOL_PROPERTY
Bond
SciTegic.value.DoubleValue
0.176

@<SCITEGIC>MOL_PROPERTY
Angle
SciTegic.value.DoubleValue
2.976

@<SCITEGIC>MOL_PROPERTY
Pdih
SciTegic.value.DoubleValue
6.922

@<SCITEGIC>MOL_PROPERTY
Idih
SciTegic.value.DoubleValue
0.000

@<SCITEGIC>MOL_PROPERTY
Tether
SciTegic.value.DoubleValue
0.000

@<TRIPOS>MOLECULE
guest-s21_vm2.mol2 : vm2 ligand conformer 47
          22          21           1
SMALL
USER_CHARGES
 
@<TRIPOS>ATOM
       1    C1      19.675515   18.849290   25.791439 C.2        1 MOL1         0.6145
       2    O1      18.502984   18.701615   26.074016 O.co2      1 MOL1        -0.6735
       3    O2      20.578147   18.230597   26.319634 O.co2      1 MOL1        -0.6735
       4    C2      20.032661   19.854483   24.702221 C.3        1 MOL1        -0.1985
       5    H1      21.010067   20.287766   24.946161 H          1 MOL1         0.0740
       6    H2      19.299036   20.668905   24.735947 H          1 MOL1         0.0740
       7    C3      20.064679   19.223028   23.288545 C.3        1 MOL1        -0.1882
       8    H3      20.798536   18.405506   23.271794 H          1 MOL1         0.0742
       9    H4      19.081773   18.782151   23.077117 H          1 MOL1         0.0742
      10    C4      20.416147   20.263897   22.202318 C.3        1 MOL1        -0.1880
      11    H5      21.337761   20.786044   22.493662 H          1 MOL1         0.0742
      12    H6      19.628541   21.028666   22.161073 H          1 MOL1         0.0742
      13    C5      20.625191   19.663663   20.789367 C.3        1 MOL1        -0.1880
      14    H7      20.923055   20.484736   20.123029 H          1 MOL1         0.0742
      15    H8      21.472724   18.964714   20.798279 H          1 MOL1         0.0742
      16    C6      19.373644   18.981397   20.182716 C.3        1 MOL1        -0.1856
      17    H9      19.358289   19.174636   19.101178 H          1 MOL1         0.0742
      18    H10     18.458369   19.435406   20.586934 H          1 MOL1         0.0742
      19    C7      19.351031   17.451030   20.393743 C.3        1 MOL1        -0.2871
      20    H11     20.228462   16.980439   19.931431 H          1 MOL1         0.0754
      21    H12     18.454996   17.013636   19.934803 H          1 MOL1         0.0754
      22    H13     19.345805   17.185123   21.456844 H          1 MOL1         0.0754
@<TRIPOS>BOND
    1     1     2    1
    2     1     3    2
    3     1     4    1
    4     4     5    1
    5     4     6    1
    6     4     7    1
    7     7     8    1
    8     7     9    1
    9     7    10    1
   10    10    11    1
   11    10    12    1
   12    10    13    1
   13    13    14    1
   14    13    15    1
   15    13    16    1
   16    16    17    1
   17    16    18    1
   18    16    19    1
   19    19    20    1
   20    19    21    1
   21    19    22    1
@<TRIPOS>SUBSTRUCTURE
       1 MOL1            1 RESIDUE      1      MOL     
@<SCITEGIC>MOL_PROPERTY
VM2 Rank
SciTegic.value.IntegerValue
47

@<SCITEGIC>MOL_PROPERTY
Conf_Id
SciTegic.value.IntegerValue
160

@<SCITEGIC>MOL_PROPERTY
Probability
SciTegic.value.DoubleValue
0.04

@<SCITEGIC>MOL_PROPERTY
Sum Probability
SciTegic.value.DoubleValue
99.84

@<SCITEGIC>MOL_PROPERTY
Delta G
SciTegic.value.DoubleValue
3.996

@<SCITEGIC>MOL_PROPERTY
G
SciTegic.value.DoubleValue
-13.002

@<SCITEGIC>MOL_PROPERTY
E
SciTegic.value.DoubleValue
-32.911

@<SCITEGIC>MOL_PROPERTY
-TS
SciTegic.value.DoubleValue
19.909

@<SCITEGIC>MOL_PROPERTY
U+W
SciTegic.value.DoubleValue
-50.795

@<SCITEGIC>MOL_PROPERTY
U
SciTegic.value.DoubleValue
10.452

@<SCITEGIC>MOL_PROPERTY
W
SciTegic.value.DoubleValue
-61.248

@<SCITEGIC>MOL_PROPERTY
W(PB)
SciTegic.value.DoubleValue
-63.526

@<SCITEGIC>MOL_PROPERTY
W(SA)
SciTegic.value.DoubleValue
2.278

@<SCITEGIC>MOL_PROPERTY
Valence
SciTegic.value.DoubleValue
10.097

@<SCITEGIC>MOL_PROPERTY
Coulomb
SciTegic.value.DoubleValue
-0.504

@<SCITEGIC>MOL_PROPERTY
VdW
SciTegic.value.DoubleValue
0.859

@<SCITEGIC>MOL_PROPERTY
VdW6
SciTegic.value.DoubleValue
-8.064

@<SCITEGIC>MOL_PROPERTY
VdW12
SciTegic.value.DoubleValue
8.923

@<SCITEGIC>MOL_PROPERTY
Bond
SciTegic.value.DoubleValue
0.175

@<SCITEGIC>MOL_PROPERTY
Angle
SciTegic.value.DoubleValue
2.998

@<SCITEGIC>MOL_PROPERTY
Pdih
SciTegic.value.DoubleValue
6.924

@<SCITEGIC>MOL_PROPERTY
Idih
SciTegic.value.DoubleValue
0.000

@<SCITEGIC>MOL_PROPERTY
Tether
SciTegic.value.DoubleValue
0.000

@<TRIPOS>MOLECULE
guest-s21_vm2.mol2 : vm2 ligand conformer 48
          22          21           1
SMALL
USER_CHARGES
 
@<TRIPOS>ATOM
       1    C1      19.995990   19.342957   25.819058 C.2        1 MOL1         0.6145
       2    O1      20.824960   20.220261   25.959080 O.co2      1 MOL1        -0.6735
       3    O2      19.023250   19.215590   26.536062 O.co2      1 MOL1        -0.6735
       4    C2      20.176675   18.358121   24.669372 C.3        1 MOL1        -0.1985
       5    H1      19.778381   17.386966   24.986824 H          1 MOL1         0.0740
       6    H2      21.252000   18.227626   24.498260 H          1 MOL1         0.0740
       7    C3      19.481494   18.821291   23.365452 C.3        1 MOL1        -0.1882
       8    H3      18.408511   18.958602   23.558007 H          1 MOL1         0.0742
       9    H4      19.876593   19.803276   23.078574 H          1 MOL1         0.0742
      10    C4      19.675336   17.801409   22.218496 C.3        1 MOL1        -0.1880
      11    H5      19.241428   16.843289   22.535854 H          1 MOL1         0.0742
      12    H6      20.744526   17.612883   22.050623 H          1 MOL1         0.0742
      13    C5      18.997501   18.232188   20.893048 C.3        1 MOL1        -0.1880
      14    H7      18.608491   17.330807   20.400021 H          1 MOL1         0.0742
      15    H8      18.120689   18.860886   21.099949 H          1 MOL1         0.0742
      16    C6      19.936795   18.943499   19.887871 C.3        1 MOL1        -0.1856
      17    H9      19.378273   19.128261   18.959925 H          1 MOL1         0.0742
      18    H10     20.764683   18.272790   19.619583 H          1 MOL1         0.0742
      19    C7      20.508000   20.283684   20.395561 C.3        1 MOL1        -0.2871
      20    H11     21.205844   20.126470   21.227402 H          1 MOL1         0.0754
      21    H12     19.705193   20.951401   20.734147 H          1 MOL1         0.0754
      22    H13     21.058358   20.794232   19.594803 H          1 MOL1         0.0754
@<TRIPOS>BOND
    1     1     2    1
    2     1     3    2
    3     1     4    1
    4     4     5    1
    5     4     6    1
    6     4     7    1
    7     7     8    1
    8     7     9    1
    9     7    10    1
   10    10    11    1
   11    10    12    1
   12    10    13    1
   13    13    14    1
   14    13    15    1
   15    13    16    1
   16    16    17    1
   17    16    18    1
   18    16    19    1
   19    19    20    1
   20    19    21    1
   21    19    22    1
@<TRIPOS>SUBSTRUCTURE
       1 MOL1            1 RESIDUE      1      MOL     
@<SCITEGIC>MOL_PROPERTY
VM2 Rank
SciTegic.value.IntegerValue
48

@<SCITEGIC>MOL_PROPERTY
Conf_Id
SciTegic.value.IntegerValue
568

@<SCITEGIC>MOL_PROPERTY
Probability
SciTegic.value.DoubleValue
0.03

@<SCITEGIC>MOL_PROPERTY
Sum Probability
SciTegic.value.DoubleValue
99.87

@<SCITEGIC>MOL_PROPERTY
Delta G
SciTegic.value.DoubleValue
4.092

@<SCITEGIC>MOL_PROPERTY
G
SciTegic.value.DoubleValue
-12.907

@<SCITEGIC>MOL_PROPERTY
E
SciTegic.value.DoubleValue
-32.814

@<SCITEGIC>MOL_PROPERTY
-TS
SciTegic.value.DoubleValue
19.908

@<SCITEGIC>MOL_PROPERTY
U+W
SciTegic.value.DoubleValue
-50.699

@<SCITEGIC>MOL_PROPERTY
U
SciTegic.value.DoubleValue
10.295

@<SCITEGIC>MOL_PROPERTY
W
SciTegic.value.DoubleValue
-60.994

@<SCITEGIC>MOL_PROPERTY
W(PB)
SciTegic.value.DoubleValue
-63.271

@<SCITEGIC>MOL_PROPERTY
W(SA)
SciTegic.value.DoubleValue
2.277

@<SCITEGIC>MOL_PROPERTY
Valence
SciTegic.value.DoubleValue
10.075

@<SCITEGIC>MOL_PROPERTY
Coulomb
SciTegic.value.DoubleValue
-0.616

@<SCITEGIC>MOL_PROPERTY
VdW
SciTegic.value.DoubleValue
0.835

@<SCITEGIC>MOL_PROPERTY
VdW6
SciTegic.value.DoubleValue
-8.072

@<SCITEGIC>MOL_PROPERTY
VdW12
SciTegic.value.DoubleValue
8.907

@<SCITEGIC>MOL_PROPERTY
Bond
SciTegic.value.DoubleValue
0.176

@<SCITEGIC>MOL_PROPERTY
Angle
SciTegic.value.DoubleValue
2.976

@<SCITEGIC>MOL_PROPERTY
Pdih
SciTegic.value.DoubleValue
6.922

@<SCITEGIC>MOL_PROPERTY
Idih
SciTegic.value.DoubleValue
0.000

@<SCITEGIC>MOL_PROPERTY
Tether
SciTegic.value.DoubleValue
0.000

@<TRIPOS>MOLECULE
guest-s21_vm2.mol2 : vm2 ligand conformer 49
          22          21           1
SMALL
USER_CHARGES
 
@<TRIPOS>ATOM
       1    C1      19.945253   18.996328   25.499747 C.2        1 MOL1         0.6145
       2    O1      19.413365   19.756657   26.284870 O.co2      1 MOL1        -0.6735
       3    O2      19.919458   17.786692   25.614188 O.co2      1 MOL1        -0.6735
       4    C2      20.712826   19.596822   24.325294 C.3        1 MOL1        -0.1985
       5    H1      21.353692   18.820952   23.891124 H          1 MOL1         0.0740
       6    H2      21.383611   20.362881   24.731198 H          1 MOL1         0.0740
       7    C3      19.807987   20.231659   23.234221 C.3        1 MOL1        -0.1882
       8    H3      19.224403   21.043695   23.689250 H          1 MOL1         0.0742
       9    H4      20.439112   20.705105   22.471062 H          1 MOL1         0.0742
      10    C4      18.830326   19.237322   22.556506 C.3        1 MOL1        -0.1880
      11    H5      18.217438   19.783265   21.827414 H          1 MOL1         0.0742
      12    H6      18.126219   18.859526   23.310394 H          1 MOL1         0.0742
      13    C5      19.500618   18.025593   21.857339 C.3        1 MOL1        -0.1880
      14    H7      19.979382   17.390605   22.614790 H          1 MOL1         0.0742
      15    H8      18.715719   17.404954   21.404465 H          1 MOL1         0.0742
      16    C6      20.542297   18.385123   20.769407 C.3        1 MOL1        -0.1856
      17    H9      20.965978   17.453941   20.369054 H          1 MOL1         0.0742
      18    H10     21.381973   18.933498   21.216394 H          1 MOL1         0.0742
      19    C7      19.947868   19.202805   19.602428 C.3        1 MOL1        -0.2871
      20    H11     19.095364   18.679395   19.150506 H          1 MOL1         0.0754
      21    H12     20.701776   19.360673   18.820482 H          1 MOL1         0.0754
      22    H13     19.606743   20.189423   19.940288 H          1 MOL1         0.0754
@<TRIPOS>BOND
    1     1     2    1
    2     1     3    2
    3     1     4    1
    4     4     5    1
    5     4     6    1
    6     4     7    1
    7     7     8    1
    8     7     9    1
    9     7    10    1
   10    10    11    1
   11    10    12    1
   12    10    13    1
   13    13    14    1
   14    13    15    1
   15    13    16    1
   16    16    17    1
   17    16    18    1
   18    16    19    1
   19    19    20    1
   20    19    21    1
   21    19    22    1
@<TRIPOS>SUBSTRUCTURE
       1 MOL1            1 RESIDUE      1      MOL     
@<SCITEGIC>MOL_PROPERTY
VM2 Rank
SciTegic.value.IntegerValue
49

@<SCITEGIC>MOL_PROPERTY
Conf_Id
SciTegic.value.IntegerValue
158

@<SCITEGIC>MOL_PROPERTY
Probability
SciTegic.value.DoubleValue
0.02

@<SCITEGIC>MOL_PROPERTY
Sum Probability
SciTegic.value.DoubleValue
99.89

@<SCITEGIC>MOL_PROPERTY
Delta G
SciTegic.value.DoubleValue
4.562

@<SCITEGIC>MOL_PROPERTY
G
SciTegic.value.DoubleValue
-12.436

@<SCITEGIC>MOL_PROPERTY
E
SciTegic.value.DoubleValue
-33.139

@<SCITEGIC>MOL_PROPERTY
-TS
SciTegic.value.DoubleValue
20.703

@<SCITEGIC>MOL_PROPERTY
U+W
SciTegic.value.DoubleValue
-51.024

@<SCITEGIC>MOL_PROPERTY
U
SciTegic.value.DoubleValue
10.565

@<SCITEGIC>MOL_PROPERTY
W
SciTegic.value.DoubleValue
-61.589

@<SCITEGIC>MOL_PROPERTY
W(PB)
SciTegic.value.DoubleValue
-63.775

@<SCITEGIC>MOL_PROPERTY
W(SA)
SciTegic.value.DoubleValue
2.185

@<SCITEGIC>MOL_PROPERTY
Valence
SciTegic.value.DoubleValue
8.743

@<SCITEGIC>MOL_PROPERTY
Coulomb
SciTegic.value.DoubleValue
1.384

@<SCITEGIC>MOL_PROPERTY
VdW
SciTegic.value.DoubleValue
0.439

@<SCITEGIC>MOL_PROPERTY
VdW6
SciTegic.value.DoubleValue
-10.218

@<SCITEGIC>MOL_PROPERTY
VdW12
SciTegic.value.DoubleValue
10.656

@<SCITEGIC>MOL_PROPERTY
Bond
SciTegic.value.DoubleValue
0.248

@<SCITEGIC>MOL_PROPERTY
Angle
SciTegic.value.DoubleValue
3.454

@<SCITEGIC>MOL_PROPERTY
Pdih
SciTegic.value.DoubleValue
5.040

@<SCITEGIC>MOL_PROPERTY
Idih
SciTegic.value.DoubleValue
0.001

@<SCITEGIC>MOL_PROPERTY
Tether
SciTegic.value.DoubleValue
0.000

@<TRIPOS>MOLECULE
guest-s21_vm2.mol2 : vm2 ligand conformer 50
          22          21           1
SMALL
USER_CHARGES
 
@<TRIPOS>ATOM
       1    C1      19.756421   18.956564   25.499191 C.2        1 MOL1         0.6145
       2    O1      19.933549   19.865871   26.286090 O.co2      1 MOL1        -0.6735
       3    O2      20.266478   17.859548   25.614867 O.co2      1 MOL1        -0.6735
       4    C2      18.818015   19.198651   24.320255 C.3        1 MOL1        -0.1985
       5    H1      17.893568   19.629424   24.721989 H          1 MOL1         0.0740
       6    H2      18.545877   18.230947   23.883592 H          1 MOL1         0.0740
       7    C3      19.396262   20.145262   23.233168 C.3        1 MOL1        -0.1882
       8    H3      18.631848   20.325379   22.466284 H          1 MOL1         0.0742
       9    H4      19.601188   21.123031   23.690330 H          1 MOL1         0.0742
      10    C4      20.694971   19.629446   22.561519 C.3        1 MOL1        -0.1880
      11    H5      21.487762   19.566407   23.319381 H          1 MOL1         0.0742
      12    H6      21.039835   20.376686   21.834910 H          1 MOL1         0.0742
      13    C5      20.572913   18.251078   21.860368 C.3        1 MOL1        -0.1880
      14    H7      21.543589   17.999450   21.412232 H          1 MOL1         0.0742
      15    H8      20.386461   17.476326   22.616113 H          1 MOL1         0.0742
      16    C6      19.480256   18.161811   20.766714 C.3        1 MOL1        -0.1856
      17    H9      18.488566   18.325238   21.208765 H          1 MOL1         0.0742
      18    H10     19.469448   17.139246   20.365299 H          1 MOL1         0.0742
      19    C7      19.701134   19.150770   19.601828 C.3        1 MOL1        -0.2871
      20    H11     18.951608   18.992381   18.815787 H          1 MOL1         0.0754
      21    H12     20.694600   19.015466   19.154978 H          1 MOL1         0.0754
      22    H13     19.614237   20.190893   19.940242 H          1 MOL1         0.0754
@<TRIPOS>BOND
    1     1     2    1
    2     1     3    2
    3     1     4    1
    4     4     5    1
    5     4     6    1
    6     4     7    1
    7     7     8    1
    8     7     9    1
    9     7    10    1
   10    10    11    1
   11    10    12    1
   12    10    13    1
   13    13    14    1
   14    13    15    1
   15    13    16    1
   16    16    17    1
   17    16    18    1
   18    16    19    1
   19    19    20    1
   20    19    21    1
   21    19    22    1
@<TRIPOS>SUBSTRUCTURE
       1 MOL1            1 RESIDUE      1      MOL     
@<SCITEGIC>MOL_PROPERTY
VM2 Rank
SciTegic.value.IntegerValue
50

@<SCITEGIC>MOL_PROPERTY
Conf_Id
SciTegic.value.IntegerValue
364

@<SCITEGIC>MOL_PROPERTY
Probability
SciTegic.value.DoubleValue
0.02

@<SCITEGIC>MOL_PROPERTY
Sum Probability
SciTegic.value.DoubleValue
99.90

@<SCITEGIC>MOL_PROPERTY
Delta G
SciTegic.value.DoubleValue
4.573

@<SCITEGIC>MOL_PROPERTY
G
SciTegic.value.DoubleValue
-12.425

@<SCITEGIC>MOL_PROPERTY
E
SciTegic.value.DoubleValue
-33.128

@<SCITEGIC>MOL_PROPERTY
-TS
SciTegic.value.DoubleValue
20.703

@<SCITEGIC>MOL_PROPERTY
U+W
SciTegic.value.DoubleValue
-51.013

@<SCITEGIC>MOL_PROPERTY
U
SciTegic.value.DoubleValue
10.566

@<SCITEGIC>MOL_PROPERTY
W
SciTegic.value.DoubleValue
-61.579

@<SCITEGIC>MOL_PROPERTY
W(PB)
SciTegic.value.DoubleValue
-63.767

@<SCITEGIC>MOL_PROPERTY
W(SA)
SciTegic.value.DoubleValue
2.187

@<SCITEGIC>MOL_PROPERTY
Valence
SciTegic.value.DoubleValue
8.743

@<SCITEGIC>MOL_PROPERTY
Coulomb
SciTegic.value.DoubleValue
1.385

@<SCITEGIC>MOL_PROPERTY
VdW
SciTegic.value.DoubleValue
0.439

@<SCITEGIC>MOL_PROPERTY
VdW6
SciTegic.value.DoubleValue
-10.218

@<SCITEGIC>MOL_PROPERTY
VdW12
SciTegic.value.DoubleValue
10.657

@<SCITEGIC>MOL_PROPERTY
Bond
SciTegic.value.DoubleValue
0.248

@<SCITEGIC>MOL_PROPERTY
Angle
SciTegic.value.DoubleValue
3.454

@<SCITEGIC>MOL_PROPERTY
Pdih
SciTegic.value.DoubleValue
5.040

@<SCITEGIC>MOL_PROPERTY
Idih
SciTegic.value.DoubleValue
0.001

@<SCITEGIC>MOL_PROPERTY
Tether
SciTegic.value.DoubleValue
0.000

@<TRIPOS>MOLECULE
guest-s21_vm2.mol2 : vm2 ligand conformer 51
          22          21           1
SMALL
USER_CHARGES
 
@<TRIPOS>ATOM
       1    C1      20.122314   18.974819   25.394650 C.2        1 MOL1         0.6145
       2    O1      20.717868   19.999238   25.665452 O.co2      1 MOL1        -0.6735
       3    O2      20.595029   17.865315   25.545173 O.co2      1 MOL1        -0.6735
       4    C2      18.680176   19.082485   24.902710 C.3        1 MOL1        -0.1985
       5    H1      18.109342   19.536154   25.721169 H          1 MOL1         0.0740
       6    H2      18.275279   18.073267   24.760016 H          1 MOL1         0.0740
       7    C3      18.478834   19.931120   23.615510 C.3        1 MOL1        -0.1882
       8    H3      17.428926   20.252216   23.583729 H          1 MOL1         0.0742
       9    H4      19.074220   20.852719   23.676482 H          1 MOL1         0.0742
      10    C4      18.783253   19.188669   22.290398 C.3        1 MOL1        -0.1880
      11    H5      18.442174   19.826612   21.465467 H          1 MOL1         0.0742
      12    H6      18.185904   18.268445   22.236837 H          1 MOL1         0.0742
      13    C5      20.279901   18.849870   22.087468 C.3        1 MOL1        -0.1880
      14    H7      20.886845   19.758543   22.200230 H          1 MOL1         0.0742
      15    H8      20.604453   18.157779   22.873960 H          1 MOL1         0.0742
      16    C6      20.581898   18.189021   20.721971 C.3        1 MOL1        -0.1856
      17    H9      19.957447   17.293746   20.596333 H          1 MOL1         0.0742
      18    H10     21.624293   17.841695   20.724052 H          1 MOL1         0.0742
      19    C7      20.380726   19.138463   19.520670 C.3        1 MOL1        -0.2871
      20    H11     20.702648   18.652746   18.590430 H          1 MOL1         0.0754
      21    H12     20.969382   20.056951   19.643057 H          1 MOL1         0.0754
      22    H13     19.326852   19.417878   19.400312 H          1 MOL1         0.0754
@<TRIPOS>BOND
    1     1     2    1
    2     1     3    2
    3     1     4    1
    4     4     5    1
    5     4     6    1
    6     4     7    1
    7     7     8    1
    8     7     9    1
    9     7    10    1
   10    10    11    1
   11    10    12    1
   12    10    13    1
   13    13    14    1
   14    13    15    1
   15    13    16    1
   16    16    17    1
   17    16    18    1
   18    16    19    1
   19    19    20    1
   20    19    21    1
   21    19    22    1
@<TRIPOS>SUBSTRUCTURE
       1 MOL1            1 RESIDUE      1      MOL     
@<SCITEGIC>MOL_PROPERTY
VM2 Rank
SciTegic.value.IntegerValue
51

@<SCITEGIC>MOL_PROPERTY
Conf_Id
SciTegic.value.IntegerValue
303

@<SCITEGIC>MOL_PROPERTY
Probability
SciTegic.value.DoubleValue
0.01

@<SCITEGIC>MOL_PROPERTY
Sum Probability
SciTegic.value.DoubleValue
99.92

@<SCITEGIC>MOL_PROPERTY
Delta G
SciTegic.value.DoubleValue
4.679

@<SCITEGIC>MOL_PROPERTY
G
SciTegic.value.DoubleValue
-12.319

@<SCITEGIC>MOL_PROPERTY
E
SciTegic.value.DoubleValue
-32.511

@<SCITEGIC>MOL_PROPERTY
-TS
SciTegic.value.DoubleValue
20.192

@<SCITEGIC>MOL_PROPERTY
U+W
SciTegic.value.DoubleValue
-50.396

@<SCITEGIC>MOL_PROPERTY
U
SciTegic.value.DoubleValue
11.649

@<SCITEGIC>MOL_PROPERTY
W
SciTegic.value.DoubleValue
-62.044

@<SCITEGIC>MOL_PROPERTY
W(PB)
SciTegic.value.DoubleValue
-64.291

@<SCITEGIC>MOL_PROPERTY
W(SA)
SciTegic.value.DoubleValue
2.247

@<SCITEGIC>MOL_PROPERTY
Valence
SciTegic.value.DoubleValue
9.667

@<SCITEGIC>MOL_PROPERTY
Coulomb
SciTegic.value.DoubleValue
1.202

@<SCITEGIC>MOL_PROPERTY
VdW
SciTegic.value.DoubleValue
0.779

@<SCITEGIC>MOL_PROPERTY
VdW6
SciTegic.value.DoubleValue
-9.278

@<SCITEGIC>MOL_PROPERTY
VdW12
SciTegic.value.DoubleValue
10.057

@<SCITEGIC>MOL_PROPERTY
Bond
SciTegic.value.DoubleValue
0.225

@<SCITEGIC>MOL_PROPERTY
Angle
SciTegic.value.DoubleValue
3.506

@<SCITEGIC>MOL_PROPERTY
Pdih
SciTegic.value.DoubleValue
5.930

@<SCITEGIC>MOL_PROPERTY
Idih
SciTegic.value.DoubleValue
0.006

@<SCITEGIC>MOL_PROPERTY
Tether
SciTegic.value.DoubleValue
0.000

@<TRIPOS>MOLECULE
guest-s21_vm2.mol2 : vm2 ligand conformer 52
          22          21           1
SMALL
USER_CHARGES
 
@<TRIPOS>ATOM
       1    C1      20.177304   18.938170   25.300762 C.2        1 MOL1         0.6145
       2    O1      20.459860   20.036941   25.737131 O.co2      1 MOL1        -0.6735
       3    O2      20.959489   18.008525   25.268906 O.co2      1 MOL1        -0.6735
       4    C2      18.744836   18.690588   24.831465 C.3        1 MOL1        -0.1985
       5    H1      18.105316   18.815751   25.712850 H          1 MOL1         0.0740
       6    H2      18.648109   17.643608   24.519479 H          1 MOL1         0.0740
       7    C3      18.243296   19.636250   23.703988 C.3        1 MOL1        -0.1882
       8    H3      17.145184   19.613483   23.705122 H          1 MOL1         0.0742
       9    H4      18.524179   20.673665   23.932878 H          1 MOL1         0.0742
      10    C4      18.721896   19.257933   22.280329 C.3        1 MOL1        -0.1880
      11    H5      18.194070   19.897171   21.559606 H          1 MOL1         0.0742
      12    H6      18.420617   18.225703   22.058401 H          1 MOL1         0.0742
      13    C5      20.245980   19.419569   22.066241 C.3        1 MOL1        -0.1880
      14    H7      20.562522   20.398308   22.452009 H          1 MOL1         0.0742
      15    H8      20.788442   18.663201   22.647733 H          1 MOL1         0.0742
      16    C6      20.669063   19.311624   20.582741 C.3        1 MOL1        -0.1856
      17    H9      21.742996   19.530318   20.505321 H          1 MOL1         0.0742
      18    H10     20.152371   20.080743   19.992243 H          1 MOL1         0.0742
      19    C7      20.398275   17.919399   19.972436 C.3        1 MOL1        -0.2871
      20    H11     19.323314   17.703475   19.930629 H          1 MOL1         0.0754
      21    H12     20.885268   17.131397   20.561597 H          1 MOL1         0.0754
      22    H13     20.788743   17.866305   18.947952 H          1 MOL1         0.0754
@<TRIPOS>BOND
    1     1     2    1
    2     1     3    2
    3     1     4    1
    4     4     5    1
    5     4     6    1
    6     4     7    1
    7     7     8    1
    8     7     9    1
    9     7    10    1
   10    10    11    1
   11    10    12    1
   12    10    13    1
   13    13    14    1
   14    13    15    1
   15    13    16    1
   16    16    17    1
   17    16    18    1
   18    16    19    1
   19    19    20    1
   20    19    21    1
   21    19    22    1
@<TRIPOS>SUBSTRUCTURE
       1 MOL1            1 RESIDUE      1      MOL     
@<SCITEGIC>MOL_PROPERTY
VM2 Rank
SciTegic.value.IntegerValue
52

@<SCITEGIC>MOL_PROPERTY
Conf_Id
SciTegic.value.IntegerValue
159

@<SCITEGIC>MOL_PROPERTY
Probability
SciTegic.value.DoubleValue
0.01

@<SCITEGIC>MOL_PROPERTY
Sum Probability
SciTegic.value.DoubleValue
99.93

@<SCITEGIC>MOL_PROPERTY
Delta G
SciTegic.value.DoubleValue
4.683

@<SCITEGIC>MOL_PROPERTY
G
SciTegic.value.DoubleValue
-12.315

@<SCITEGIC>MOL_PROPERTY
E
SciTegic.value.DoubleValue
-32.675

@<SCITEGIC>MOL_PROPERTY
-TS
SciTegic.value.DoubleValue
20.360

@<SCITEGIC>MOL_PROPERTY
U+W
SciTegic.value.DoubleValue
-50.560

@<SCITEGIC>MOL_PROPERTY
U
SciTegic.value.DoubleValue
11.687

@<SCITEGIC>MOL_PROPERTY
W
SciTegic.value.DoubleValue
-62.247

@<SCITEGIC>MOL_PROPERTY
W(PB)
SciTegic.value.DoubleValue
-64.461

@<SCITEGIC>MOL_PROPERTY
W(SA)
SciTegic.value.DoubleValue
2.214

@<SCITEGIC>MOL_PROPERTY
Valence
SciTegic.value.DoubleValue
9.469

@<SCITEGIC>MOL_PROPERTY
Coulomb
SciTegic.value.DoubleValue
1.564

@<SCITEGIC>MOL_PROPERTY
VdW
SciTegic.value.DoubleValue
0.654

@<SCITEGIC>MOL_PROPERTY
VdW6
SciTegic.value.DoubleValue
-9.494

@<SCITEGIC>MOL_PROPERTY
VdW12
SciTegic.value.DoubleValue
10.148

@<SCITEGIC>MOL_PROPERTY
Bond
SciTegic.value.DoubleValue
0.216

@<SCITEGIC>MOL_PROPERTY
Angle
SciTegic.value.DoubleValue
3.352

@<SCITEGIC>MOL_PROPERTY
Pdih
SciTegic.value.DoubleValue
5.895

@<SCITEGIC>MOL_PROPERTY
Idih
SciTegic.value.DoubleValue
0.007

@<SCITEGIC>MOL_PROPERTY
Tether
SciTegic.value.DoubleValue
0.000

@<TRIPOS>MOLECULE
guest-s21_vm2.mol2 : vm2 ligand conformer 53
          22          21           1
SMALL
USER_CHARGES
 
@<TRIPOS>ATOM
       1    C1      20.157839   19.297767   25.286966 C.2        1 MOL1         0.6145
       2    O1      20.835360   20.301160   25.180968 O.co2      1 MOL1        -0.6735
       3    O2      20.555385   18.272441   25.804864 O.co2      1 MOL1        -0.6735
       4    C2      18.708984   19.352981   24.806052 C.3        1 MOL1        -0.1985
       5    H1      18.501284   20.356537   24.415415 H          1 MOL1         0.0740
       6    H2      18.083033   19.227312   25.697054 H          1 MOL1         0.0740
       7    C3      18.316941   18.275451   23.756167 C.3        1 MOL1        -0.1882
       8    H3      18.707034   17.294875   24.062458 H          1 MOL1         0.0742
       9    H4      17.222775   18.179769   23.760092 H          1 MOL1         0.0742
      10    C4      18.757874   18.593300   22.305808 C.3        1 MOL1        -0.1880
      11    H5      18.347959   19.567032   22.006912 H          1 MOL1         0.0742
      12    H6      18.305068   17.847686   21.638205 H          1 MOL1         0.0742
      13    C5      20.291380   18.581105   22.098429 C.3        1 MOL1        -0.1880
      14    H7      20.746664   19.433804   22.618154 H          1 MOL1         0.0742
      15    H8      20.710034   17.674594   22.556590 H          1 MOL1         0.0742
      16    C6      20.706538   18.620329   20.609292 C.3        1 MOL1        -0.1856
      17    H9      20.278296   17.757082   20.081450 H          1 MOL1         0.0742
      18    H10     21.798109   18.513486   20.544405 H          1 MOL1         0.0742
      19    C7      20.289699   19.924464   19.895455 C.3        1 MOL1        -0.2871
      20    H11     20.676467   19.940918   18.868327 H          1 MOL1         0.0754
      21    H12     20.686344   20.803125   20.420666 H          1 MOL1         0.0754
      22    H13     19.197902   20.019310   19.841645 H          1 MOL1         0.0754
@<TRIPOS>BOND
    1     1     2    1
    2     1     3    2
    3     1     4    1
    4     4     5    1
    5     4     6    1
    6     4     7    1
    7     7     8    1
    8     7     9    1
    9     7    10    1
   10    10    11    1
   11    10    12    1
   12    10    13    1
   13    13    14    1
   14    13    15    1
   15    13    16    1
   16    16    17    1
   17    16    18    1
   18    16    19    1
   19    19    20    1
   20    19    21    1
   21    19    22    1
@<TRIPOS>SUBSTRUCTURE
       1 MOL1            1 RESIDUE      1      MOL     
@<SCITEGIC>MOL_PROPERTY
VM2 Rank
SciTegic.value.IntegerValue
53

@<SCITEGIC>MOL_PROPERTY
Conf_Id
SciTegic.value.IntegerValue
558

@<SCITEGIC>MOL_PROPERTY
Probability
SciTegic.value.DoubleValue
0.01

@<SCITEGIC>MOL_PROPERTY
Sum Probability
SciTegic.value.DoubleValue
99.94

@<SCITEGIC>MOL_PROPERTY
Delta G
SciTegic.value.DoubleValue
4.730

@<SCITEGIC>MOL_PROPERTY
G
SciTegic.value.DoubleValue
-12.268

@<SCITEGIC>MOL_PROPERTY
E
SciTegic.value.DoubleValue
-32.628

@<SCITEGIC>MOL_PROPERTY
-TS
SciTegic.value.DoubleValue
20.360

@<SCITEGIC>MOL_PROPERTY
U+W
SciTegic.value.DoubleValue
-50.513

@<SCITEGIC>MOL_PROPERTY
U
SciTegic.value.DoubleValue
11.687

@<SCITEGIC>MOL_PROPERTY
W
SciTegic.value.DoubleValue
-62.200

@<SCITEGIC>MOL_PROPERTY
W(PB)
SciTegic.value.DoubleValue
-64.428

@<SCITEGIC>MOL_PROPERTY
W(SA)
SciTegic.value.DoubleValue
2.228

@<SCITEGIC>MOL_PROPERTY
Valence
SciTegic.value.DoubleValue
9.470

@<SCITEGIC>MOL_PROPERTY
Coulomb
SciTegic.value.DoubleValue
1.563

@<SCITEGIC>MOL_PROPERTY
VdW
SciTegic.value.DoubleValue
0.654

@<SCITEGIC>MOL_PROPERTY
VdW6
SciTegic.value.DoubleValue
-9.494

@<SCITEGIC>MOL_PROPERTY
VdW12
SciTegic.value.DoubleValue
10.148

@<SCITEGIC>MOL_PROPERTY
Bond
SciTegic.value.DoubleValue
0.216

@<SCITEGIC>MOL_PROPERTY
Angle
SciTegic.value.DoubleValue
3.352

@<SCITEGIC>MOL_PROPERTY
Pdih
SciTegic.value.DoubleValue
5.895

@<SCITEGIC>MOL_PROPERTY
Idih
SciTegic.value.DoubleValue
0.007

@<SCITEGIC>MOL_PROPERTY
Tether
SciTegic.value.DoubleValue
0.000

@<TRIPOS>MOLECULE
guest-s21_vm2.mol2 : vm2 ligand conformer 54
          22          21           1
SMALL
USER_CHARGES
 
@<TRIPOS>ATOM
       1    C1      20.106752   19.262701   25.383609 C.2        1 MOL1         0.6145
       2    O1      20.456488   20.424923   25.447155 O.co2      1 MOL1        -0.6735
       3    O2      20.808126   18.332099   25.729309 O.co2      1 MOL1        -0.6735
       4    C2      18.686650   18.963089   24.907261 C.3        1 MOL1        -0.1985
       5    H1      18.176022   19.908963   24.689536 H          1 MOL1         0.0740
       6    H2      18.164596   18.514451   25.760329 H          1 MOL1         0.0740
       7    C3      18.583230   18.001855   23.689504 C.3        1 MOL1        -0.1882
       8    H3      19.274199   17.157144   23.818237 H          1 MOL1         0.0742
       9    H4      17.574174   17.568014   23.686697 H          1 MOL1         0.0742
      10    C4      18.811342   18.669368   22.310294 C.3        1 MOL1        -0.1880
      11    H5      18.118498   19.513033   22.189038 H          1 MOL1         0.0742
      12    H6      18.544455   17.937214   21.537933 H          1 MOL1         0.0742
      13    C5      20.263574   19.151045   22.075917 C.3        1 MOL1        -0.1880
      14    H7      20.508332   19.932175   22.805867 H          1 MOL1         0.0742
      15    H8      20.964470   18.324399   22.255319 H          1 MOL1         0.0742
      16    C6      20.498263   19.734270   20.662664 C.3        1 MOL1        -0.1856
      17    H9      21.497140   20.191047   20.633895 H          1 MOL1         0.0742
      18    H10     19.781495   20.544798   20.471530 H          1 MOL1         0.0742
      19    C7      20.405575   18.679649   19.538288 C.3        1 MOL1        -0.2871
      20    H11     20.677164   19.124691   18.572328 H          1 MOL1         0.0754
      21    H12     19.388453   18.279929   19.443965 H          1 MOL1         0.0754
      22    H13     21.089251   17.841993   19.728110 H          1 MOL1         0.0754
@<TRIPOS>BOND
    1     1     2    1
    2     1     3    2
    3     1     4    1
    4     4     5    1
    5     4     6    1
    6     4     7    1
    7     7     8    1
    8     7     9    1
    9     7    10    1
   10    10    11    1
   11    10    12    1
   12    10    13    1
   13    13    14    1
   14    13    15    1
   15    13    16    1
   16    16    17    1
   17    16    18    1
   18    16    19    1
   19    19    20    1
   20    19    21    1
   21    19    22    1
@<TRIPOS>SUBSTRUCTURE
       1 MOL1            1 RESIDUE      1      MOL     
@<SCITEGIC>MOL_PROPERTY
VM2 Rank
SciTegic.value.IntegerValue
54

@<SCITEGIC>MOL_PROPERTY
Conf_Id
SciTegic.value.IntegerValue
183

@<SCITEGIC>MOL_PROPERTY
Probability
SciTegic.value.DoubleValue
0.01

@<SCITEGIC>MOL_PROPERTY
Sum Probability
SciTegic.value.DoubleValue
99.95

@<SCITEGIC>MOL_PROPERTY
Delta G
SciTegic.value.DoubleValue
4.750

@<SCITEGIC>MOL_PROPERTY
G
SciTegic.value.DoubleValue
-12.248

@<SCITEGIC>MOL_PROPERTY
E
SciTegic.value.DoubleValue
-32.441

@<SCITEGIC>MOL_PROPERTY
-TS
SciTegic.value.DoubleValue
20.193

@<SCITEGIC>MOL_PROPERTY
U+W
SciTegic.value.DoubleValue
-50.326

@<SCITEGIC>MOL_PROPERTY
U
SciTegic.value.DoubleValue
11.648

@<SCITEGIC>MOL_PROPERTY
W
SciTegic.value.DoubleValue
-61.974

@<SCITEGIC>MOL_PROPERTY
W(PB)
SciTegic.value.DoubleValue
-64.190

@<SCITEGIC>MOL_PROPERTY
W(SA)
SciTegic.value.DoubleValue
2.216

@<SCITEGIC>MOL_PROPERTY
Valence
SciTegic.value.DoubleValue
9.667

@<SCITEGIC>MOL_PROPERTY
Coulomb
SciTegic.value.DoubleValue
1.202

@<SCITEGIC>MOL_PROPERTY
VdW
SciTegic.value.DoubleValue
0.779

@<SCITEGIC>MOL_PROPERTY
VdW6
SciTegic.value.DoubleValue
-9.278

@<SCITEGIC>MOL_PROPERTY
VdW12
SciTegic.value.DoubleValue
10.057

@<SCITEGIC>MOL_PROPERTY
Bond
SciTegic.value.DoubleValue
0.225

@<SCITEGIC>MOL_PROPERTY
Angle
SciTegic.value.DoubleValue
3.506

@<SCITEGIC>MOL_PROPERTY
Pdih
SciTegic.value.DoubleValue
5.930

@<SCITEGIC>MOL_PROPERTY
Idih
SciTegic.value.DoubleValue
0.006

@<SCITEGIC>MOL_PROPERTY
Tether
SciTegic.value.DoubleValue
0.000

@<TRIPOS>MOLECULE
guest-s21_vm2.mol2 : vm2 ligand conformer 55
          22          21           1
SMALL
USER_CHARGES
 
@<TRIPOS>ATOM
       1    C1      20.045807   18.913341   25.724212 C.2        1 MOL1         0.6145
       2    O1      19.932135   19.786118   26.562072 O.co2      1 MOL1        -0.6735
       3    O2      20.813222   17.976982   25.828216 O.co2      1 MOL1        -0.6735
       4    C2      19.192131   19.009261   24.464692 C.3        1 MOL1        -0.1985
       5    H1      18.235580   19.470268   24.738136 H          1 MOL1         0.0740
       6    H2      18.975131   17.989076   24.129882 H          1 MOL1         0.0740
       7    C3      19.876564   19.826370   23.337464 C.3        1 MOL1        -0.1882
       8    H3      20.125666   20.821054   23.732029 H          1 MOL1         0.0742
       9    H4      20.829963   19.353438   23.072387 H          1 MOL1         0.0742
      10    C4      18.986320   20.002361   22.081112 C.3        1 MOL1        -0.1880
      11    H5      19.407706   20.789669   21.441381 H          1 MOL1         0.0742
      12    H6      18.005038   20.376633   22.403326 H          1 MOL1         0.0742
      13    C5      18.781441   18.712680   21.242357 C.3        1 MOL1        -0.1880
      14    H7      18.832376   17.819416   21.876971 H          1 MOL1         0.0742
      15    H8      17.761081   18.730198   20.835847 H          1 MOL1         0.0742
      16    C6      19.755200   18.561327   20.047711 C.3        1 MOL1        -0.1856
      17    H9      19.638271   19.414819   19.365743 H          1 MOL1         0.0742
      18    H10     19.468135   17.668824   19.474841 H          1 MOL1         0.0742
      19    C7      21.237180   18.430561   20.456164 C.3        1 MOL1        -0.2871
      20    H11     21.374046   17.624776   21.189071 H          1 MOL1         0.0754
      21    H12     21.611342   19.365317   20.891744 H          1 MOL1         0.0754
      22    H13     21.858185   18.201773   19.580520 H          1 MOL1         0.0754
@<TRIPOS>BOND
    1     1     2    1
    2     1     3    2
    3     1     4    1
    4     4     5    1
    5     4     6    1
    6     4     7    1
    7     7     8    1
    8     7     9    1
    9     7    10    1
   10    10    11    1
   11    10    12    1
   12    10    13    1
   13    13    14    1
   14    13    15    1
   15    13    16    1
   16    16    17    1
   17    16    18    1
   18    16    19    1
   19    19    20    1
   20    19    21    1
   21    19    22    1
@<TRIPOS>SUBSTRUCTURE
       1 MOL1            1 RESIDUE      1      MOL     
@<SCITEGIC>MOL_PROPERTY
VM2 Rank
SciTegic.value.IntegerValue
55

@<SCITEGIC>MOL_PROPERTY
Conf_Id
SciTegic.value.IntegerValue
495

@<SCITEGIC>MOL_PROPERTY
Probability
SciTegic.value.DoubleValue
0.01

@<SCITEGIC>MOL_PROPERTY
Sum Probability
SciTegic.value.DoubleValue
99.96

@<SCITEGIC>MOL_PROPERTY
Delta G
SciTegic.value.DoubleValue
5.066

@<SCITEGIC>MOL_PROPERTY
G
SciTegic.value.DoubleValue
-11.933

@<SCITEGIC>MOL_PROPERTY
E
SciTegic.value.DoubleValue
-31.907

@<SCITEGIC>MOL_PROPERTY
-TS
SciTegic.value.DoubleValue
19.974

@<SCITEGIC>MOL_PROPERTY
U+W
SciTegic.value.DoubleValue
-49.792

@<SCITEGIC>MOL_PROPERTY
U
SciTegic.value.DoubleValue
11.399

@<SCITEGIC>MOL_PROPERTY
W
SciTegic.value.DoubleValue
-61.191

@<SCITEGIC>MOL_PROPERTY
W(PB)
SciTegic.value.DoubleValue
-63.435

@<SCITEGIC>MOL_PROPERTY
W(SA)
SciTegic.value.DoubleValue
2.244

@<SCITEGIC>MOL_PROPERTY
Valence
SciTegic.value.DoubleValue
10.805

@<SCITEGIC>MOL_PROPERTY
Coulomb
SciTegic.value.DoubleValue
-0.349

@<SCITEGIC>MOL_PROPERTY
VdW
SciTegic.value.DoubleValue
0.943

@<SCITEGIC>MOL_PROPERTY
VdW6
SciTegic.value.DoubleValue
-8.654

@<SCITEGIC>MOL_PROPERTY
VdW12
SciTegic.value.DoubleValue
9.597

@<SCITEGIC>MOL_PROPERTY
Bond
SciTegic.value.DoubleValue
0.233

@<SCITEGIC>MOL_PROPERTY
Angle
SciTegic.value.DoubleValue
3.235

@<SCITEGIC>MOL_PROPERTY
Pdih
SciTegic.value.DoubleValue
7.337

@<SCITEGIC>MOL_PROPERTY
Idih
SciTegic.value.DoubleValue
0.000

@<SCITEGIC>MOL_PROPERTY
Tether
SciTegic.value.DoubleValue
0.000

@<TRIPOS>MOLECULE
guest-s21_vm2.mol2 : vm2 ligand conformer 56
          22          21           1
SMALL
USER_CHARGES
 
@<TRIPOS>ATOM
       1    C1      19.612892   18.774474   25.563586 C.2        1 MOL1         0.6145
       2    O1      19.249908   19.535038   26.439079 O.co2      1 MOL1        -0.6735
       3    O2      20.211002   17.738670   25.777859 O.co2      1 MOL1        -0.6735
       4    C2      19.319683   19.151202   24.115857 C.3        1 MOL1        -0.1985
       5    H1      18.376946   19.710721   24.096086 H          1 MOL1         0.0740
       6    H2      19.153604   18.224860   23.558209 H          1 MOL1         0.0740
       7    C3      20.452889   19.994492   23.474274 C.3        1 MOL1        -0.1882
       8    H3      20.590265   20.895047   24.088730 H          1 MOL1         0.0742
       9    H4      21.403824   19.446105   23.520235 H          1 MOL1         0.0742
      10    C4      20.155715   20.434128   22.017586 C.3        1 MOL1        -0.1880
      11    H5      20.595468   21.430255   21.872237 H          1 MOL1         0.0742
      12    H6      19.076364   20.567472   21.867680 H          1 MOL1         0.0742
      13    C5      20.751614   19.507998   20.924686 C.3        1 MOL1        -0.1880
      14    H7      20.594918   19.979069   19.944769 H          1 MOL1         0.0742
      15    H8      21.840388   19.455765   21.060723 H          1 MOL1         0.0742
      16    C6      20.188590   18.068004   20.873284 C.3        1 MOL1        -0.1856
      17    H9      20.399607   17.545277   21.814705 H          1 MOL1         0.0742
      18    H10     20.727722   17.511423   20.094502 H          1 MOL1         0.0742
      19    C7      18.677705   18.014994   20.557789 C.3        1 MOL1        -0.2871
      20    H11     18.084863   18.491349   21.348076 H          1 MOL1         0.0754
      21    H12     18.340167   16.974420   20.468577 H          1 MOL1         0.0754
      22    H13     18.457589   18.524355   19.610685 H          1 MOL1         0.0754
@<TRIPOS>BOND
    1     1     2    1
    2     1     3    2
    3     1     4    1
    4     4     5    1
    5     4     6    1
    6     4     7    1
    7     7     8    1
    8     7     9    1
    9     7    10    1
   10    10    11    1
   11    10    12    1
   12    10    13    1
   13    13    14    1
   14    13    15    1
   15    13    16    1
   16    16    17    1
   17    16    18    1
   18    16    19    1
   19    19    20    1
   20    19    21    1
   21    19    22    1
@<TRIPOS>SUBSTRUCTURE
       1 MOL1            1 RESIDUE      1      MOL     
@<SCITEGIC>MOL_PROPERTY
VM2 Rank
SciTegic.value.IntegerValue
56

@<SCITEGIC>MOL_PROPERTY
Conf_Id
SciTegic.value.IntegerValue
191

@<SCITEGIC>MOL_PROPERTY
Probability
SciTegic.value.DoubleValue
0.01

@<SCITEGIC>MOL_PROPERTY
Sum Probability
SciTegic.value.DoubleValue
99.96

@<SCITEGIC>MOL_PROPERTY
Delta G
SciTegic.value.DoubleValue
5.105

@<SCITEGIC>MOL_PROPERTY
G
SciTegic.value.DoubleValue
-11.893

@<SCITEGIC>MOL_PROPERTY
E
SciTegic.value.DoubleValue
-32.268

@<SCITEGIC>MOL_PROPERTY
-TS
SciTegic.value.DoubleValue
20.375

@<SCITEGIC>MOL_PROPERTY
U+W
SciTegic.value.DoubleValue
-50.152

@<SCITEGIC>MOL_PROPERTY
U
SciTegic.value.DoubleValue
11.249

@<SCITEGIC>MOL_PROPERTY
W
SciTegic.value.DoubleValue
-61.401

@<SCITEGIC>MOL_PROPERTY
W(PB)
SciTegic.value.DoubleValue
-63.600

@<SCITEGIC>MOL_PROPERTY
W(SA)
SciTegic.value.DoubleValue
2.199

@<SCITEGIC>MOL_PROPERTY
Valence
SciTegic.value.DoubleValue
10.690

@<SCITEGIC>MOL_PROPERTY
Coulomb
SciTegic.value.DoubleValue
-0.062

@<SCITEGIC>MOL_PROPERTY
VdW
SciTegic.value.DoubleValue
0.621

@<SCITEGIC>MOL_PROPERTY
VdW6
SciTegic.value.DoubleValue
-9.203

@<SCITEGIC>MOL_PROPERTY
VdW12
SciTegic.value.DoubleValue
9.824

@<SCITEGIC>MOL_PROPERTY
Bond
SciTegic.value.DoubleValue
0.231

@<SCITEGIC>MOL_PROPERTY
Angle
SciTegic.value.DoubleValue
3.571

@<SCITEGIC>MOL_PROPERTY
Pdih
SciTegic.value.DoubleValue
6.888

@<SCITEGIC>MOL_PROPERTY
Idih
SciTegic.value.DoubleValue
0.001

@<SCITEGIC>MOL_PROPERTY
Tether
SciTegic.value.DoubleValue
0.000

@<TRIPOS>MOLECULE
guest-s21_vm2.mol2 : vm2 ligand conformer 57
          22          21           1
SMALL
USER_CHARGES
 
@<TRIPOS>ATOM
       1    C1      20.073146   18.779481   25.505212 C.2        1 MOL1         0.6145
       2    O1      19.722344   19.387800   26.497033 O.co2      1 MOL1        -0.6735
       3    O2      21.055387   18.065202   25.466393 O.co2      1 MOL1        -0.6735
       4    C2      19.246046   18.937341   24.234537 C.3        1 MOL1        -0.1985
       5    H1      18.200259   19.092630   24.524974 H          1 MOL1         0.0740
       6    H2      19.292172   17.989772   23.686775 H          1 MOL1         0.0740
       7    C3      19.732551   20.110422   23.344265 C.3        1 MOL1        -0.1882
       8    H3      19.716332   21.032138   23.941973 H          1 MOL1         0.0742
       9    H4      20.780844   19.956681   23.058882 H          1 MOL1         0.0742
      10    C4      18.863759   20.327749   22.082017 C.3        1 MOL1        -0.1880
      11    H5      19.224126   21.222783   21.556912 H          1 MOL1         0.0742
      12    H6      17.837699   20.559306   22.398727 H          1 MOL1         0.0742
      13    C5      18.815725   19.145834   21.077874 C.3        1 MOL1        -0.1880
      14    H7      18.379833   18.253977   21.546571 H          1 MOL1         0.0742
      15    H8      18.114323   19.427556   20.280728 H          1 MOL1         0.0742
      16    C6      20.172366   18.801372   20.412859 C.3        1 MOL1        -0.1856
      17    H9      20.802170   19.698979   20.344439 H          1 MOL1         0.0742
      18    H10     19.981657   18.483382   19.378567 H          1 MOL1         0.0742
      19    C7      20.938675   17.663800   21.123811 C.3        1 MOL1        -0.2871
      20    H11     21.218241   17.935700   22.147896 H          1 MOL1         0.0754
      21    H12     21.861907   17.425999   20.579982 H          1 MOL1         0.0754
      22    H13     20.331005   16.750795   21.168527 H          1 MOL1         0.0754
@<TRIPOS>BOND
    1     1     2    1
    2     1     3    2
    3     1     4    1
    4     4     5    1
    5     4     6    1
    6     4     7    1
    7     7     8    1
    8     7     9    1
    9     7    10    1
   10    10    11    1
   11    10    12    1
   12    10    13    1
   13    13    14    1
   14    13    15    1
   15    13    16    1
   16    16    17    1
   17    16    18    1
   18    16    19    1
   19    19    20    1
   20    19    21    1
   21    19    22    1
@<TRIPOS>SUBSTRUCTURE
       1 MOL1            1 RESIDUE      1      MOL     
@<SCITEGIC>MOL_PROPERTY
VM2 Rank
SciTegic.value.IntegerValue
57

@<SCITEGIC>MOL_PROPERTY
Conf_Id
SciTegic.value.IntegerValue
507

@<SCITEGIC>MOL_PROPERTY
Probability
SciTegic.value.DoubleValue
0.00

@<SCITEGIC>MOL_PROPERTY
Sum Probability
SciTegic.value.DoubleValue
99.97

@<SCITEGIC>MOL_PROPERTY
Delta G
SciTegic.value.DoubleValue
5.324

@<SCITEGIC>MOL_PROPERTY
G
SciTegic.value.DoubleValue
-11.674

@<SCITEGIC>MOL_PROPERTY
E
SciTegic.value.DoubleValue
-32.088

@<SCITEGIC>MOL_PROPERTY
-TS
SciTegic.value.DoubleValue
20.414

@<SCITEGIC>MOL_PROPERTY
U+W
SciTegic.value.DoubleValue
-49.973

@<SCITEGIC>MOL_PROPERTY
U
SciTegic.value.DoubleValue
11.583

@<SCITEGIC>MOL_PROPERTY
W
SciTegic.value.DoubleValue
-61.556

@<SCITEGIC>MOL_PROPERTY
W(PB)
SciTegic.value.DoubleValue
-63.747

@<SCITEGIC>MOL_PROPERTY
W(SA)
SciTegic.value.DoubleValue
2.191

@<SCITEGIC>MOL_PROPERTY
Valence
SciTegic.value.DoubleValue
10.661

@<SCITEGIC>MOL_PROPERTY
Coulomb
SciTegic.value.DoubleValue
0.424

@<SCITEGIC>MOL_PROPERTY
VdW
SciTegic.value.DoubleValue
0.498

@<SCITEGIC>MOL_PROPERTY
VdW6
SciTegic.value.DoubleValue
-9.423

@<SCITEGIC>MOL_PROPERTY
VdW12
SciTegic.value.DoubleValue
9.921

@<SCITEGIC>MOL_PROPERTY
Bond
SciTegic.value.DoubleValue
0.226

@<SCITEGIC>MOL_PROPERTY
Angle
SciTegic.value.DoubleValue
3.568

@<SCITEGIC>MOL_PROPERTY
Pdih
SciTegic.value.DoubleValue
6.867

@<SCITEGIC>MOL_PROPERTY
Idih
SciTegic.value.DoubleValue
0.000

@<SCITEGIC>MOL_PROPERTY
Tether
SciTegic.value.DoubleValue
0.000

@<TRIPOS>MOLECULE
guest-s21_vm2.mol2 : vm2 ligand conformer 58
          22          21           1
SMALL
USER_CHARGES
 
@<TRIPOS>ATOM
       1    C1      20.248640   18.966637   25.492927 C.2        1 MOL1         0.6145
       2    O1      19.684041   19.346875   26.499638 O.co2      1 MOL1        -0.6735
       3    O2      21.023097   18.030621   25.468673 O.co2      1 MOL1        -0.6735
       4    C2      19.953820   19.692309   24.185214 C.3        1 MOL1        -0.1985
       5    H1      20.864695   19.667083   23.577161 H          1 MOL1         0.0740
       6    H2      19.748618   20.744087   24.417154 H          1 MOL1         0.0740
       7    C3      18.760206   19.073574   23.412013 C.3        1 MOL1        -0.1882
       8    H3      18.964296   18.019522   23.185477 H          1 MOL1         0.0742
       9    H4      17.880278   19.074201   24.069893 H          1 MOL1         0.0742
      10    C4      18.404064   19.837574   22.114028 C.3        1 MOL1        -0.1880
      11    H5      18.126103   20.866880   22.378584 H          1 MOL1         0.0742
      12    H6      17.502615   19.387043   21.676883 H          1 MOL1         0.0742
      13    C5      19.512329   19.888684   21.029283 C.3        1 MOL1        -0.1880
      14    H7      19.133421   20.514263   20.209615 H          1 MOL1         0.0742
      15    H8      20.401917   20.410355   21.405554 H          1 MOL1         0.0742
      16    C6      19.902017   18.513004   20.431771 C.3        1 MOL1        -0.1856
      17    H9      20.138647   18.650666   19.367675 H          1 MOL1         0.0742
      18    H10     19.045628   17.825703   20.467021 H          1 MOL1         0.0742
      19    C7      21.131786   17.869722   21.110453 C.3        1 MOL1        -0.2871
      20    H11     22.003471   18.534228   21.051848 H          1 MOL1         0.0754
      21    H12     21.394317   16.927319   20.612850 H          1 MOL1         0.0754
      22    H13     20.946334   17.645865   22.167019 H          1 MOL1         0.0754
@<TRIPOS>BOND
    1     1     2    1
    2     1     3    2
    3     1     4    1
    4     4     5    1
    5     4     6    1
    6     4     7    1
    7     7     8    1
    8     7     9    1
    9     7    10    1
   10    10    11    1
   11    10    12    1
   12    10    13    1
   13    13    14    1
   14    13    15    1
   15    13    16    1
   16    16    17    1
   17    16    18    1
   18    16    19    1
   19    19    20    1
   20    19    21    1
   21    19    22    1
@<TRIPOS>SUBSTRUCTURE
       1 MOL1            1 RESIDUE      1      MOL     
@<SCITEGIC>MOL_PROPERTY
VM2 Rank
SciTegic.value.IntegerValue
58

@<SCITEGIC>MOL_PROPERTY
Conf_Id
SciTegic.value.IntegerValue
179

@<SCITEGIC>MOL_PROPERTY
Probability
SciTegic.value.DoubleValue
0.00

@<SCITEGIC>MOL_PROPERTY
Sum Probability
SciTegic.value.DoubleValue
99.97

@<SCITEGIC>MOL_PROPERTY
Delta G
SciTegic.value.DoubleValue
5.361

@<SCITEGIC>MOL_PROPERTY
G
SciTegic.value.DoubleValue
-11.637

@<SCITEGIC>MOL_PROPERTY
E
SciTegic.value.DoubleValue
-32.051

@<SCITEGIC>MOL_PROPERTY
-TS
SciTegic.value.DoubleValue
20.414

@<SCITEGIC>MOL_PROPERTY
U+W
SciTegic.value.DoubleValue
-49.936

@<SCITEGIC>MOL_PROPERTY
U
SciTegic.value.DoubleValue
11.583

@<SCITEGIC>MOL_PROPERTY
W
SciTegic.value.DoubleValue
-61.520

@<SCITEGIC>MOL_PROPERTY
W(PB)
SciTegic.value.DoubleValue
-63.732

@<SCITEGIC>MOL_PROPERTY
W(SA)
SciTegic.value.DoubleValue
2.212

@<SCITEGIC>MOL_PROPERTY
Valence
SciTegic.value.DoubleValue
10.661

@<SCITEGIC>MOL_PROPERTY
Coulomb
SciTegic.value.DoubleValue
0.424

@<SCITEGIC>MOL_PROPERTY
VdW
SciTegic.value.DoubleValue
0.498

@<SCITEGIC>MOL_PROPERTY
VdW6
SciTegic.value.DoubleValue
-9.424

@<SCITEGIC>MOL_PROPERTY
VdW12
SciTegic.value.DoubleValue
9.922

@<SCITEGIC>MOL_PROPERTY
Bond
SciTegic.value.DoubleValue
0.226

@<SCITEGIC>MOL_PROPERTY
Angle
SciTegic.value.DoubleValue
3.567

@<SCITEGIC>MOL_PROPERTY
Pdih
SciTegic.value.DoubleValue
6.867

@<SCITEGIC>MOL_PROPERTY
Idih
SciTegic.value.DoubleValue
0.001

@<SCITEGIC>MOL_PROPERTY
Tether
SciTegic.value.DoubleValue
0.000

@<TRIPOS>MOLECULE
guest-s21_vm2.mol2 : vm2 ligand conformer 59
          22          21           1
SMALL
USER_CHARGES
 
@<TRIPOS>ATOM
       1    C1      19.904726   19.045990   25.712718 C.2        1 MOL1         0.6145
       2    O1      18.904330   19.565917   26.166395 O.co2      1 MOL1        -0.6735
       3    O2      20.337951   17.976320   26.093635 O.co2      1 MOL1        -0.6735
       4    C2      20.673299   19.785901   24.621285 C.3        1 MOL1        -0.1985
       5    H1      21.735585   19.753277   24.890493 H          1 MOL1         0.0740
       6    H2      20.374517   20.841072   24.635408 H          1 MOL1         0.0740
       7    C3      20.481954   19.194251   23.200359 C.3        1 MOL1        -0.1882
       8    H3      21.188438   19.689064   22.522165 H          1 MOL1         0.0742
       9    H4      20.739881   18.126253   23.211759 H          1 MOL1         0.0742
      10    C4      19.043176   19.382667   22.666038 C.3        1 MOL1        -0.1880
      11    H5      18.824648   20.455528   22.577062 H          1 MOL1         0.0742
      12    H6      18.330331   18.984732   23.401117 H          1 MOL1         0.0742
      13    C5      18.772581   18.687318   21.308174 C.3        1 MOL1        -0.1880
      14    H7      18.898244   17.600694   21.410074 H          1 MOL1         0.0742
      15    H8      17.712982   18.843018   21.063483 H          1 MOL1         0.0742
      16    C6      19.622511   19.217527   20.126480 C.3        1 MOL1        -0.1856
      17    H9      19.904286   20.265337   20.299414 H          1 MOL1         0.0742
      18    H10     19.002952   19.213968   19.219048 H          1 MOL1         0.0742
      19    C7      20.879472   18.363108   19.848915 C.3        1 MOL1        -0.2871
      20    H11     20.602099   17.329857   19.602864 H          1 MOL1         0.0754
      21    H12     21.553429   18.335274   20.712578 H          1 MOL1         0.0754
      22    H13     21.440931   18.771250   18.998619 H          1 MOL1         0.0754
@<TRIPOS>BOND
    1     1     2    1
    2     1     3    2
    3     1     4    1
    4     4     5    1
    5     4     6    1
    6     4     7    1
    7     7     8    1
    8     7     9    1
    9     7    10    1
   10    10    11    1
   11    10    12    1
   12    10    13    1
   13    13    14    1
   14    13    15    1
   15    13    16    1
   16    16    17    1
   17    16    18    1
   18    16    19    1
   19    19    20    1
   20    19    21    1
   21    19    22    1
@<TRIPOS>SUBSTRUCTURE
       1 MOL1            1 RESIDUE      1      MOL     
@<SCITEGIC>MOL_PROPERTY
VM2 Rank
SciTegic.value.IntegerValue
59

@<SCITEGIC>MOL_PROPERTY
Conf_Id
SciTegic.value.IntegerValue
250

@<SCITEGIC>MOL_PROPERTY
Probability
SciTegic.value.DoubleValue
0.00

@<SCITEGIC>MOL_PROPERTY
Sum Probability
SciTegic.value.DoubleValue
99.98

@<SCITEGIC>MOL_PROPERTY
Delta G
SciTegic.value.DoubleValue
5.399

@<SCITEGIC>MOL_PROPERTY
G
SciTegic.value.DoubleValue
-11.599

@<SCITEGIC>MOL_PROPERTY
E
SciTegic.value.DoubleValue
-31.837

@<SCITEGIC>MOL_PROPERTY
-TS
SciTegic.value.DoubleValue
20.238

@<SCITEGIC>MOL_PROPERTY
U+W
SciTegic.value.DoubleValue
-49.721

@<SCITEGIC>MOL_PROPERTY
U
SciTegic.value.DoubleValue
11.773

@<SCITEGIC>MOL_PROPERTY
W
SciTegic.value.DoubleValue
-61.495

@<SCITEGIC>MOL_PROPERTY
W(PB)
SciTegic.value.DoubleValue
-63.749

@<SCITEGIC>MOL_PROPERTY
W(SA)
SciTegic.value.DoubleValue
2.254

@<SCITEGIC>MOL_PROPERTY
Valence
SciTegic.value.DoubleValue
10.419

@<SCITEGIC>MOL_PROPERTY
Coulomb
SciTegic.value.DoubleValue
0.566

@<SCITEGIC>MOL_PROPERTY
VdW
SciTegic.value.DoubleValue
0.789

@<SCITEGIC>MOL_PROPERTY
VdW6
SciTegic.value.DoubleValue
-8.847

@<SCITEGIC>MOL_PROPERTY
VdW12
SciTegic.value.DoubleValue
9.636

@<SCITEGIC>MOL_PROPERTY
Bond
SciTegic.value.DoubleValue
0.200

@<SCITEGIC>MOL_PROPERTY
Angle
SciTegic.value.DoubleValue
3.187

@<SCITEGIC>MOL_PROPERTY
Pdih
SciTegic.value.DoubleValue
7.032

@<SCITEGIC>MOL_PROPERTY
Idih
SciTegic.value.DoubleValue
0.001

@<SCITEGIC>MOL_PROPERTY
Tether
SciTegic.value.DoubleValue
0.000

@<TRIPOS>MOLECULE
guest-s21_vm2.mol2 : vm2 ligand conformer 60
          22          21           1
SMALL
USER_CHARGES
 
@<TRIPOS>ATOM
       1    C1      19.715973   19.150578   25.718626 C.2        1 MOL1         0.6145
       2    O1      19.823869   20.336694   25.960233 O.co2      1 MOL1        -0.6735
       3    O2      20.289630   18.281996   26.345898 O.co2      1 MOL1        -0.6735
       4    C2      18.794830   18.725100   24.578628 C.3        1 MOL1        -0.1985
       5    H1      18.110853   19.552346   24.353504 H          1 MOL1         0.0740
       6    H2      18.179352   17.895793   24.946605 H          1 MOL1         0.0740
       7    C3      19.542008   18.284416   23.293038 C.3        1 MOL1        -0.1882
       8    H3      20.242790   17.475286   23.541072 H          1 MOL1         0.0742
       9    H4      18.814497   17.860540   22.591132 H          1 MOL1         0.0742
      10    C4      20.309541   19.450208   22.623210 C.3        1 MOL1        -0.1880
      11    H5      21.067428   19.815900   23.329620 H          1 MOL1         0.0742
      12    H6      19.633770   20.296040   22.437010 H          1 MOL1         0.0742
      13    C5      21.022974   19.039895   21.309996 C.3        1 MOL1        -0.1880
      14    H7      21.974855   19.585476   21.253978 H          1 MOL1         0.0742
      15    H8      21.290894   17.974878   21.338450 H          1 MOL1         0.0742
      16    C6      20.229246   19.354862   20.017936 C.3        1 MOL1        -0.1856
      17    H9      20.857321   19.102067   19.152619 H          1 MOL1         0.0742
      18    H10     20.041371   20.435636   19.955772 H          1 MOL1         0.0742
      19    C7      18.891930   18.595252   19.896434 C.3        1 MOL1        -0.2871
      20    H11     18.441309   18.766927   18.910411 H          1 MOL1         0.0754
      21    H12     18.173283   18.936427   20.651934 H          1 MOL1         0.0754
      22    H13     19.040232   17.514389   20.017705 H          1 MOL1         0.0754
@<TRIPOS>BOND
    1     1     2    1
    2     1     3    2
    3     1     4    1
    4     4     5    1
    5     4     6    1
    6     4     7    1
    7     7     8    1
    8     7     9    1
    9     7    10    1
   10    10    11    1
   11    10    12    1
   12    10    13    1
   13    13    14    1
   14    13    15    1
   15    13    16    1
   16    16    17    1
   17    16    18    1
   18    16    19    1
   19    19    20    1
   20    19    21    1
   21    19    22    1
@<TRIPOS>SUBSTRUCTURE
       1 MOL1            1 RESIDUE      1      MOL     
@<SCITEGIC>MOL_PROPERTY
VM2 Rank
SciTegic.value.IntegerValue
60

@<SCITEGIC>MOL_PROPERTY
Conf_Id
SciTegic.value.IntegerValue
557

@<SCITEGIC>MOL_PROPERTY
Probability
SciTegic.value.DoubleValue
0.00

@<SCITEGIC>MOL_PROPERTY
Sum Probability
SciTegic.value.DoubleValue
99.98

@<SCITEGIC>MOL_PROPERTY
Delta G
SciTegic.value.DoubleValue
5.402

@<SCITEGIC>MOL_PROPERTY
G
SciTegic.value.DoubleValue
-11.596

@<SCITEGIC>MOL_PROPERTY
E
SciTegic.value.DoubleValue
-31.810

@<SCITEGIC>MOL_PROPERTY
-TS
SciTegic.value.DoubleValue
20.214

@<SCITEGIC>MOL_PROPERTY
U+W
SciTegic.value.DoubleValue
-49.695

@<SCITEGIC>MOL_PROPERTY
U
SciTegic.value.DoubleValue
11.659

@<SCITEGIC>MOL_PROPERTY
W
SciTegic.value.DoubleValue
-61.354

@<SCITEGIC>MOL_PROPERTY
W(PB)
SciTegic.value.DoubleValue
-63.612

@<SCITEGIC>MOL_PROPERTY
W(SA)
SciTegic.value.DoubleValue
2.259

@<SCITEGIC>MOL_PROPERTY
Valence
SciTegic.value.DoubleValue
10.364

@<SCITEGIC>MOL_PROPERTY
Coulomb
SciTegic.value.DoubleValue
0.563

@<SCITEGIC>MOL_PROPERTY
VdW
SciTegic.value.DoubleValue
0.732

@<SCITEGIC>MOL_PROPERTY
VdW6
SciTegic.value.DoubleValue
-8.874

@<SCITEGIC>MOL_PROPERTY
VdW12
SciTegic.value.DoubleValue
9.606

@<SCITEGIC>MOL_PROPERTY
Bond
SciTegic.value.DoubleValue
0.201

@<SCITEGIC>MOL_PROPERTY
Angle
SciTegic.value.DoubleValue
3.127

@<SCITEGIC>MOL_PROPERTY
Pdih
SciTegic.value.DoubleValue
7.036

@<SCITEGIC>MOL_PROPERTY
Idih
SciTegic.value.DoubleValue
0.001

@<SCITEGIC>MOL_PROPERTY
Tether
SciTegic.value.DoubleValue
0.000

@<TRIPOS>MOLECULE
guest-s21_vm2.mol2 : vm2 ligand conformer 61
          22          21           1
SMALL
USER_CHARGES
 
@<TRIPOS>ATOM
       1    C1      19.988400   18.982883   25.600657 C.2        1 MOL1         0.6145
       2    O1      20.063689   20.106718   26.057023 O.co2      1 MOL1        -0.6735
       3    O2      20.816499   18.117293   25.805471 O.co2      1 MOL1        -0.6735
       4    C2      18.776689   18.630288   24.742429 C.3        1 MOL1        -0.1985
       5    H1      17.978556   19.353317   24.949786 H          1 MOL1         0.0740
       6    H2      18.411978   17.651335   25.075057 H          1 MOL1         0.0740
       7    C3      19.075053   18.582029   23.221335 C.3        1 MOL1        -0.1882
       8    H3      19.889482   17.867664   23.043182 H          1 MOL1         0.0742
       9    H4      18.189932   18.200785   22.694721 H          1 MOL1         0.0742
      10    C4      19.455445   19.966508   22.647956 C.3        1 MOL1        -0.1880
      11    H5      20.401693   20.301736   23.094580 H          1 MOL1         0.0742
      12    H6      18.696185   20.699448   22.953125 H          1 MOL1         0.0742
      13    C5      19.575685   20.004821   21.103796 C.3        1 MOL1        -0.1880
      14    H7      18.608416   19.760809   20.643678 H          1 MOL1         0.0742
      15    H8      19.789422   21.043141   20.815581 H          1 MOL1         0.0742
      16    C6      20.691350   19.103507   20.518351 C.3        1 MOL1        -0.1856
      17    H9      21.502351   18.978135   21.249065 H          1 MOL1         0.0742
      18    H10     21.136266   19.613491   19.652762 H          1 MOL1         0.0742
      19    C7      20.177189   17.724954   20.046980 C.3        1 MOL1        -0.2871
      20    H11     20.999669   17.132072   19.626467 H          1 MOL1         0.0754
      21    H12     19.413087   17.839221   19.267136 H          1 MOL1         0.0754
      22    H13     19.737403   17.149986   20.869659 H          1 MOL1         0.0754
@<TRIPOS>BOND
    1     1     2    1
    2     1     3    2
    3     1     4    1
    4     4     5    1
    5     4     6    1
    6     4     7    1
    7     7     8    1
    8     7     9    1
    9     7    10    1
   10    10    11    1
   11    10    12    1
   12    10    13    1
   13    13    14    1
   14    13    15    1
   15    13    16    1
   16    16    17    1
   17    16    18    1
   18    16    19    1
   19    19    20    1
   20    19    21    1
   21    19    22    1
@<TRIPOS>SUBSTRUCTURE
       1 MOL1            1 RESIDUE      1      MOL     
@<SCITEGIC>MOL_PROPERTY
VM2 Rank
SciTegic.value.IntegerValue
61

@<SCITEGIC>MOL_PROPERTY
Conf_Id
SciTegic.value.IntegerValue
161

@<SCITEGIC>MOL_PROPERTY
Probability
SciTegic.value.DoubleValue
0.00

@<SCITEGIC>MOL_PROPERTY
Sum Probability
SciTegic.value.DoubleValue
99.98

@<SCITEGIC>MOL_PROPERTY
Delta G
SciTegic.value.DoubleValue
5.417

@<SCITEGIC>MOL_PROPERTY
G
SciTegic.value.DoubleValue
-11.581

@<SCITEGIC>MOL_PROPERTY
E
SciTegic.value.DoubleValue
-31.784

@<SCITEGIC>MOL_PROPERTY
-TS
SciTegic.value.DoubleValue
20.203

@<SCITEGIC>MOL_PROPERTY
U+W
SciTegic.value.DoubleValue
-49.669

@<SCITEGIC>MOL_PROPERTY
U
SciTegic.value.DoubleValue
12.072

@<SCITEGIC>MOL_PROPERTY
W
SciTegic.value.DoubleValue
-61.741

@<SCITEGIC>MOL_PROPERTY
W(PB)
SciTegic.value.DoubleValue
-63.969

@<SCITEGIC>MOL_PROPERTY
W(SA)
SciTegic.value.DoubleValue
2.228

@<SCITEGIC>MOL_PROPERTY
Valence
SciTegic.value.DoubleValue
10.343

@<SCITEGIC>MOL_PROPERTY
Coulomb
SciTegic.value.DoubleValue
1.037

@<SCITEGIC>MOL_PROPERTY
VdW
SciTegic.value.DoubleValue
0.692

@<SCITEGIC>MOL_PROPERTY
VdW6
SciTegic.value.DoubleValue
-8.924

@<SCITEGIC>MOL_PROPERTY
VdW12
SciTegic.value.DoubleValue
9.616

@<SCITEGIC>MOL_PROPERTY
Bond
SciTegic.value.DoubleValue
0.196

@<SCITEGIC>MOL_PROPERTY
Angle
SciTegic.value.DoubleValue
3.145

@<SCITEGIC>MOL_PROPERTY
Pdih
SciTegic.value.DoubleValue
7.001

@<SCITEGIC>MOL_PROPERTY
Idih
SciTegic.value.DoubleValue
0.001

@<SCITEGIC>MOL_PROPERTY
Tether
SciTegic.value.DoubleValue
0.000

@<TRIPOS>MOLECULE
guest-s21_vm2.mol2 : vm2 ligand conformer 62
          22          21           1
SMALL
USER_CHARGES
 
@<TRIPOS>ATOM
       1    C1      19.896760   19.192975   25.707076 C.2        1 MOL1         0.6145
       2    O1      20.210482   20.329117   26.003271 O.co2      1 MOL1        -0.6735
       3    O2      18.956475   18.604360   26.203397 O.co2      1 MOL1        -0.6735
       4    C2      20.745110   18.459048   24.672160 C.3        1 MOL1        -0.1985
       5    H1      20.561719   17.382000   24.768025 H          1 MOL1         0.0740
       6    H2      21.796570   18.626412   24.933715 H          1 MOL1         0.0740
       7    C3      20.497009   18.916418   23.211014 C.3        1 MOL1        -0.1882
       8    H3      20.638376   20.003716   23.139763 H          1 MOL1         0.0742
       9    H4      21.255455   18.450227   22.569663 H          1 MOL1         0.0742
      10    C4      19.089094   18.533918   22.698614 C.3        1 MOL1        -0.1880
      11    H5      18.334526   18.907777   23.404092 H          1 MOL1         0.0742
      12    H6      18.987724   17.440122   22.692768 H          1 MOL1         0.0742
      13    C5      18.750800   19.090304   21.292728 C.3        1 MOL1        -0.1880
      14    H7      17.715133   18.803211   21.065049 H          1 MOL1         0.0742
      15    H8      18.758348   20.188733   21.310776 H          1 MOL1         0.0742
      16    C6      19.657718   18.565920   20.151491 C.3        1 MOL1        -0.1856
      17    H9      19.045118   18.433420   19.249015 H          1 MOL1         0.0742
      18    H10     20.049920   17.570822   20.402822 H          1 MOL1         0.0742
      19    C7      20.816550   19.526939   19.804248 C.3        1 MOL1        -0.2871
      20    H11     21.479970   19.693152   20.660491 H          1 MOL1         0.0754
      21    H12     20.430595   20.502460   19.481008 H          1 MOL1         0.0754
      22    H13     21.422241   19.117767   18.985386 H          1 MOL1         0.0754
@<TRIPOS>BOND
    1     1     2    1
    2     1     3    2
    3     1     4    1
    4     4     5    1
    5     4     6    1
    6     4     7    1
    7     7     8    1
    8     7     9    1
    9     7    10    1
   10    10    11    1
   11    10    12    1
   12    10    13    1
   13    13    14    1
   14    13    15    1
   15    13    16    1
   16    16    17    1
   17    16    18    1
   18    16    19    1
   19    19    20    1
   20    19    21    1
   21    19    22    1
@<TRIPOS>SUBSTRUCTURE
       1 MOL1            1 RESIDUE      1      MOL     
@<SCITEGIC>MOL_PROPERTY
VM2 Rank
SciTegic.value.IntegerValue
62

@<SCITEGIC>MOL_PROPERTY
Conf_Id
SciTegic.value.IntegerValue
252

@<SCITEGIC>MOL_PROPERTY
Probability
SciTegic.value.DoubleValue
0.00

@<SCITEGIC>MOL_PROPERTY
Sum Probability
SciTegic.value.DoubleValue
99.99

@<SCITEGIC>MOL_PROPERTY
Delta G
SciTegic.value.DoubleValue
5.423

@<SCITEGIC>MOL_PROPERTY
G
SciTegic.value.DoubleValue
-11.575

@<SCITEGIC>MOL_PROPERTY
E
SciTegic.value.DoubleValue
-31.812

@<SCITEGIC>MOL_PROPERTY
-TS
SciTegic.value.DoubleValue
20.237

@<SCITEGIC>MOL_PROPERTY
U+W
SciTegic.value.DoubleValue
-49.697

@<SCITEGIC>MOL_PROPERTY
U
SciTegic.value.DoubleValue
11.773

@<SCITEGIC>MOL_PROPERTY
W
SciTegic.value.DoubleValue
-61.471

@<SCITEGIC>MOL_PROPERTY
W(PB)
SciTegic.value.DoubleValue
-63.719

@<SCITEGIC>MOL_PROPERTY
W(SA)
SciTegic.value.DoubleValue
2.248

@<SCITEGIC>MOL_PROPERTY
Valence
SciTegic.value.DoubleValue
10.419

@<SCITEGIC>MOL_PROPERTY
Coulomb
SciTegic.value.DoubleValue
0.566

@<SCITEGIC>MOL_PROPERTY
VdW
SciTegic.value.DoubleValue
0.789

@<SCITEGIC>MOL_PROPERTY
VdW6
SciTegic.value.DoubleValue
-8.847

@<SCITEGIC>MOL_PROPERTY
VdW12
SciTegic.value.DoubleValue
9.636

@<SCITEGIC>MOL_PROPERTY
Bond
SciTegic.value.DoubleValue
0.200

@<SCITEGIC>MOL_PROPERTY
Angle
SciTegic.value.DoubleValue
3.187

@<SCITEGIC>MOL_PROPERTY
Pdih
SciTegic.value.DoubleValue
7.032

@<SCITEGIC>MOL_PROPERTY
Idih
SciTegic.value.DoubleValue
0.001

@<SCITEGIC>MOL_PROPERTY
Tether
SciTegic.value.DoubleValue
0.000

@<TRIPOS>MOLECULE
guest-s21_vm2.mol2 : vm2 ligand conformer 63
          22          21           1
SMALL
USER_CHARGES
 
@<TRIPOS>ATOM
       1    C1      19.720334   19.069365   25.721686 C.2        1 MOL1         0.6145
       2    O1      20.194299   20.040036   26.278589 O.co2      1 MOL1        -0.6735
       3    O2      19.954531   17.923699   26.052579 O.co2      1 MOL1        -0.6735
       4    C2      18.763446   19.304846   24.556336 C.3        1 MOL1        -0.1985
       5    H1      18.060607   20.088589   24.862495 H          1 MOL1         0.0740
       6    H2      18.173601   18.393923   24.397771 H          1 MOL1         0.0740
       7    C3      19.464094   19.724178   23.237827 C.3        1 MOL1        -0.1882
       8    H3      18.698041   20.012215   22.508572 H          1 MOL1         0.0742
       9    H4      20.072388   20.620789   23.420506 H          1 MOL1         0.0742
      10    C4      20.355799   18.600344   22.655844 C.3        1 MOL1        -0.1880
      11    H5      19.776131   17.674710   22.537710 H          1 MOL1         0.0742
      12    H6      21.145878   18.373762   23.384934 H          1 MOL1         0.0742
      13    C5      21.026050   18.983726   21.312099 C.3        1 MOL1        -0.1880
      14    H7      21.177150   20.070503   21.257888 H          1 MOL1         0.0742
      15    H8      22.031550   18.541555   21.293944 H          1 MOL1         0.0742
      16    C6      20.276286   18.486903   20.051287 C.3        1 MOL1        -0.1856
      17    H9      20.206645   17.390580   20.072749 H          1 MOL1         0.0742
      18    H10     20.876842   18.739210   19.166511 H          1 MOL1         0.0742
      19    C7      18.865160   19.085903   19.877752 C.3        1 MOL1        -0.2871
      20    H11     18.895207   20.182558   19.915287 H          1 MOL1         0.0754
      21    H12     18.184600   18.727871   20.660238 H          1 MOL1         0.0754
      22    H13     18.439706   18.791516   18.909713 H          1 MOL1         0.0754
@<TRIPOS>BOND
    1     1     2    1
    2     1     3    2
    3     1     4    1
    4     4     5    1
    5     4     6    1
    6     4     7    1
    7     7     8    1
    8     7     9    1
    9     7    10    1
   10    10    11    1
   11    10    12    1
   12    10    13    1
   13    13    14    1
   14    13    15    1
   15    13    16    1
   16    16    17    1
   17    16    18    1
   18    16    19    1
   19    19    20    1
   20    19    21    1
   21    19    22    1
@<TRIPOS>SUBSTRUCTURE
       1 MOL1            1 RESIDUE      1      MOL     
@<SCITEGIC>MOL_PROPERTY
VM2 Rank
SciTegic.value.IntegerValue
63

@<SCITEGIC>MOL_PROPERTY
Conf_Id
SciTegic.value.IntegerValue
285

@<SCITEGIC>MOL_PROPERTY
Probability
SciTegic.value.DoubleValue
0.00

@<SCITEGIC>MOL_PROPERTY
Sum Probability
SciTegic.value.DoubleValue
99.99

@<SCITEGIC>MOL_PROPERTY
Delta G
SciTegic.value.DoubleValue
5.466

@<SCITEGIC>MOL_PROPERTY
G
SciTegic.value.DoubleValue
-11.532

@<SCITEGIC>MOL_PROPERTY
E
SciTegic.value.DoubleValue
-31.747

@<SCITEGIC>MOL_PROPERTY
-TS
SciTegic.value.DoubleValue
20.214

@<SCITEGIC>MOL_PROPERTY
U+W
SciTegic.value.DoubleValue
-49.631

@<SCITEGIC>MOL_PROPERTY
U
SciTegic.value.DoubleValue
11.659

@<SCITEGIC>MOL_PROPERTY
W
SciTegic.value.DoubleValue
-61.290

@<SCITEGIC>MOL_PROPERTY
W(PB)
SciTegic.value.DoubleValue
-63.516

@<SCITEGIC>MOL_PROPERTY
W(SA)
SciTegic.value.DoubleValue
2.225

@<SCITEGIC>MOL_PROPERTY
Valence
SciTegic.value.DoubleValue
10.364

@<SCITEGIC>MOL_PROPERTY
Coulomb
SciTegic.value.DoubleValue
0.563

@<SCITEGIC>MOL_PROPERTY
VdW
SciTegic.value.DoubleValue
0.732

@<SCITEGIC>MOL_PROPERTY
VdW6
SciTegic.value.DoubleValue
-8.874

@<SCITEGIC>MOL_PROPERTY
VdW12
SciTegic.value.DoubleValue
9.607

@<SCITEGIC>MOL_PROPERTY
Bond
SciTegic.value.DoubleValue
0.201

@<SCITEGIC>MOL_PROPERTY
Angle
SciTegic.value.DoubleValue
3.127

@<SCITEGIC>MOL_PROPERTY
Pdih
SciTegic.value.DoubleValue
7.036

@<SCITEGIC>MOL_PROPERTY
Idih
SciTegic.value.DoubleValue
0.001

@<SCITEGIC>MOL_PROPERTY
Tether
SciTegic.value.DoubleValue
0.000

@<TRIPOS>MOLECULE
guest-s21_vm2.mol2 : vm2 ligand conformer 64
          22          21           1
SMALL
USER_CHARGES
 
@<TRIPOS>ATOM
       1    C1      19.781938   18.763819   25.494703 C.2        1 MOL1         0.6145
       2    O1      19.733372   19.497349   26.462586 O.co2      1 MOL1        -0.6735
       3    O2      20.519955   17.801369   25.417895 O.co2      1 MOL1        -0.6735
       4    C2      18.846653   19.054994   24.324104 C.3        1 MOL1        -0.1985
       5    H1      17.846736   19.219615   24.742181 H          1 MOL1         0.0740
       6    H2      18.782245   18.156061   23.703005 H          1 MOL1         0.0740
       7    C3      19.259934   20.291926   23.478870 C.3        1 MOL1        -0.1882
       8    H3      18.447913   20.560375   22.789777 H          1 MOL1         0.0742
       9    H4      19.371592   21.146530   24.160612 H          1 MOL1         0.0742
      10    C4      20.581110   20.109529   22.687034 C.3        1 MOL1        -0.1880
      11    H5      21.254225   19.419777   23.214217 H          1 MOL1         0.0742
      12    H6      21.102615   21.076183   22.667703 H          1 MOL1         0.0742
      13    C5      20.398141   19.650559   21.218610 C.3        1 MOL1        -0.1880
      14    H7      19.802434   20.395583   20.673747 H          1 MOL1         0.0742
      15    H8      21.385956   19.635405   20.738148 H          1 MOL1         0.0742
      16    C6      19.745829   18.259618   21.064456 C.3        1 MOL1        -0.1856
      17    H9      18.708067   18.293668   21.420536 H          1 MOL1         0.0742
      18    H10     20.280193   17.527691   21.685997 H          1 MOL1         0.0742
      19    C7      19.753069   17.789837   19.595742 C.3        1 MOL1        -0.2871
      20    H11     19.278013   16.804600   19.502749 H          1 MOL1         0.0754
      21    H12     20.779158   17.708337   19.213893 H          1 MOL1         0.0754
      22    H13     19.203684   18.493009   18.956156 H          1 MOL1         0.0754
@<TRIPOS>BOND
    1     1     2    1
    2     1     3    2
    3     1     4    1
    4     4     5    1
    5     4     6    1
    6     4     7    1
    7     7     8    1
    8     7     9    1
    9     7    10    1
   10    10    11    1
   11    10    12    1
   12    10    13    1
   13    13    14    1
   14    13    15    1
   15    13    16    1
   16    16    17    1
   17    16    18    1
   18    16    19    1
   19    19    20    1
   20    19    21    1
   21    19    22    1
@<TRIPOS>SUBSTRUCTURE
       1 MOL1            1 RESIDUE      1      MOL     
@<SCITEGIC>MOL_PROPERTY
VM2 Rank
SciTegic.value.IntegerValue
64

@<SCITEGIC>MOL_PROPERTY
Conf_Id
SciTegic.value.IntegerValue
347

@<SCITEGIC>MOL_PROPERTY
Probability
SciTegic.value.DoubleValue
0.00

@<SCITEGIC>MOL_PROPERTY
Sum Probability
SciTegic.value.DoubleValue
99.99

@<SCITEGIC>MOL_PROPERTY
Delta G
SciTegic.value.DoubleValue
5.547

@<SCITEGIC>MOL_PROPERTY
G
SciTegic.value.DoubleValue
-11.451

@<SCITEGIC>MOL_PROPERTY
E
SciTegic.value.DoubleValue
-31.750

@<SCITEGIC>MOL_PROPERTY
-TS
SciTegic.value.DoubleValue
20.300

@<SCITEGIC>MOL_PROPERTY
U+W
SciTegic.value.DoubleValue
-49.635

@<SCITEGIC>MOL_PROPERTY
U
SciTegic.value.DoubleValue
11.909

@<SCITEGIC>MOL_PROPERTY
W
SciTegic.value.DoubleValue
-61.544

@<SCITEGIC>MOL_PROPERTY
W(PB)
SciTegic.value.DoubleValue
-63.770

@<SCITEGIC>MOL_PROPERTY
W(SA)
SciTegic.value.DoubleValue
2.225

@<SCITEGIC>MOL_PROPERTY
Valence
SciTegic.value.DoubleValue
10.449

@<SCITEGIC>MOL_PROPERTY
Coulomb
SciTegic.value.DoubleValue
0.769

@<SCITEGIC>MOL_PROPERTY
VdW
SciTegic.value.DoubleValue
0.691

@<SCITEGIC>MOL_PROPERTY
VdW6
SciTegic.value.DoubleValue
-9.054

@<SCITEGIC>MOL_PROPERTY
VdW12
SciTegic.value.DoubleValue
9.745

@<SCITEGIC>MOL_PROPERTY
Bond
SciTegic.value.DoubleValue
0.222

@<SCITEGIC>MOL_PROPERTY
Angle
SciTegic.value.DoubleValue
3.228

@<SCITEGIC>MOL_PROPERTY
Pdih
SciTegic.value.DoubleValue
6.998

@<SCITEGIC>MOL_PROPERTY
Idih
SciTegic.value.DoubleValue
0.001

@<SCITEGIC>MOL_PROPERTY
Tether
SciTegic.value.DoubleValue
0.000

@<TRIPOS>MOLECULE
guest-s21_vm2.mol2 : vm2 ligand conformer 65
          22          21           1
SMALL
USER_CHARGES
 
@<TRIPOS>ATOM
       1    C1      20.163772   19.173893   25.423594 C.2        1 MOL1         0.6145
       2    O1      20.931650   20.114670   25.471047 O.co2      1 MOL1        -0.6735
       3    O2      20.439971   18.059626   25.822498 O.co2      1 MOL1        -0.6735
       4    C2      18.766503   19.413945   24.858325 C.3        1 MOL1        -0.1985
       5    H1      18.386463   20.339642   25.306243 H          1 MOL1         0.0740
       6    H2      18.107819   18.604217   25.194910 H          1 MOL1         0.0740
       7    C3      18.725339   19.531861   23.312748 C.3        1 MOL1        -0.1882
       8    H3      17.719015   19.848502   23.007428 H          1 MOL1         0.0742
       9    H4      19.410894   20.327157   22.995929 H          1 MOL1         0.0742
      10    C4      19.072221   18.198261   22.606960 C.3        1 MOL1        -0.1880
      11    H5      18.342047   17.442239   22.926440 H          1 MOL1         0.0742
      12    H6      20.054177   17.831368   22.936061 H          1 MOL1         0.0742
      13    C5      19.036322   18.295963   21.060675 C.3        1 MOL1        -0.1880
      14    H7      18.647419   17.346871   20.667206 H          1 MOL1         0.0742
      15    H8      18.320332   19.066404   20.743551 H          1 MOL1         0.0742
      16    C6      20.413932   18.545270   20.398304 C.3        1 MOL1        -0.1856
      17    H9      20.286171   18.520925   19.307337 H          1 MOL1         0.0742
      18    H10     21.095785   17.720184   20.646405 H          1 MOL1         0.0742
      19    C7      21.070290   19.885510   20.789849 C.3        1 MOL1        -0.2871
      20    H11     21.978234   20.056012   20.197170 H          1 MOL1         0.0754
      21    H12     21.361082   19.889198   21.848119 H          1 MOL1         0.0754
      22    H13     20.386752   20.725868   20.612469 H          1 MOL1         0.0754
@<TRIPOS>BOND
    1     1     2    1
    2     1     3    2
    3     1     4    1
    4     4     5    1
    5     4     6    1
    6     4     7    1
    7     7     8    1
    8     7     9    1
    9     7    10    1
   10    10    11    1
   11    10    12    1
   12    10    13    1
   13    13    14    1
   14    13    15    1
   15    13    16    1
   16    16    17    1
   17    16    18    1
   18    16    19    1
   19    19    20    1
   20    19    21    1
   21    19    22    1
@<TRIPOS>SUBSTRUCTURE
       1 MOL1            1 RESIDUE      1      MOL     
@<SCITEGIC>MOL_PROPERTY
VM2 Rank
SciTegic.value.IntegerValue
65

@<SCITEGIC>MOL_PROPERTY
Conf_Id
SciTegic.value.IntegerValue
330

@<SCITEGIC>MOL_PROPERTY
Probability
SciTegic.value.DoubleValue
0.00

@<SCITEGIC>MOL_PROPERTY
Sum Probability
SciTegic.value.DoubleValue
100.00

@<SCITEGIC>MOL_PROPERTY
Delta G
SciTegic.value.DoubleValue
5.658

@<SCITEGIC>MOL_PROPERTY
G
SciTegic.value.DoubleValue
-11.340

@<SCITEGIC>MOL_PROPERTY
E
SciTegic.value.DoubleValue
-31.597

@<SCITEGIC>MOL_PROPERTY
-TS
SciTegic.value.DoubleValue
20.257

@<SCITEGIC>MOL_PROPERTY
U+W
SciTegic.value.DoubleValue
-49.482

@<SCITEGIC>MOL_PROPERTY
U
SciTegic.value.DoubleValue
12.672

@<SCITEGIC>MOL_PROPERTY
W
SciTegic.value.DoubleValue
-62.154

@<SCITEGIC>MOL_PROPERTY
W(PB)
SciTegic.value.DoubleValue
-64.363

@<SCITEGIC>MOL_PROPERTY
W(SA)
SciTegic.value.DoubleValue
2.209

@<SCITEGIC>MOL_PROPERTY
Valence
SciTegic.value.DoubleValue
10.318

@<SCITEGIC>MOL_PROPERTY
Coulomb
SciTegic.value.DoubleValue
1.786

@<SCITEGIC>MOL_PROPERTY
VdW
SciTegic.value.DoubleValue
0.569

@<SCITEGIC>MOL_PROPERTY
VdW6
SciTegic.value.DoubleValue
-9.119

@<SCITEGIC>MOL_PROPERTY
VdW12
SciTegic.value.DoubleValue
9.687

@<SCITEGIC>MOL_PROPERTY
Bond
SciTegic.value.DoubleValue
0.199

@<SCITEGIC>MOL_PROPERTY
Angle
SciTegic.value.DoubleValue
3.116

@<SCITEGIC>MOL_PROPERTY
Pdih
SciTegic.value.DoubleValue
7.002

@<SCITEGIC>MOL_PROPERTY
Idih
SciTegic.value.DoubleValue
0.001

@<SCITEGIC>MOL_PROPERTY
Tether
SciTegic.value.DoubleValue
0.000

@<TRIPOS>MOLECULE
guest-s21_vm2.mol2 : vm2 ligand conformer 66
          22          21           1
SMALL
USER_CHARGES
 
@<TRIPOS>ATOM
       1    C1      20.306175   18.918877   24.966989 C.2        1 MOL1         0.6145
       2    O1      20.441572   17.713074   25.040374 O.co2      1 MOL1        -0.6735
       3    O2      21.232412   19.703225   25.032463 O.co2      1 MOL1        -0.6735
       4    C2      18.887803   19.482420   24.904587 C.3        1 MOL1        -0.1985
       5    H1      18.934158   20.575664   24.977926 H          1 MOL1         0.0740
       6    H2      18.376691   19.129397   25.807778 H          1 MOL1         0.0740
       7    C3      18.060085   19.058951   23.658613 C.3        1 MOL1        -0.1882
       8    H3      18.203766   17.989344   23.456072 H          1 MOL1         0.0742
       9    H4      16.996424   19.171627   23.908028 H          1 MOL1         0.0742
      10    C4      18.330316   19.900531   22.384065 C.3        1 MOL1        -0.1880
      11    H5      18.127275   20.956937   22.606391 H          1 MOL1         0.0742
      12    H6      17.602502   19.610912   21.613878 H          1 MOL1         0.0742
      13    C5      19.752997   19.783045   21.784307 C.3        1 MOL1        -0.1880
      14    H7      19.816360   20.452939   20.916121 H          1 MOL1         0.0742
      15    H8      20.497014   20.149841   22.502542 H          1 MOL1         0.0742
      16    C6      20.117144   18.350042   21.335209 C.3        1 MOL1        -0.1856
      17    H9      19.347393   17.968345   20.650656 H          1 MOL1         0.0742
      18    H10     20.138011   17.677326   22.202995 H          1 MOL1         0.0742
      19    C7      21.491497   18.308836   20.637392 C.3        1 MOL1        -0.2871
      20    H11     21.498363   18.945063   19.742775 H          1 MOL1         0.0754
      21    H12     21.737467   17.284825   20.327899 H          1 MOL1         0.0754
      22    H13     22.282851   18.657920   21.313859 H          1 MOL1         0.0754
@<TRIPOS>BOND
    1     1     2    1
    2     1     3    2
    3     1     4    1
    4     4     5    1
    5     4     6    1
    6     4     7    1
    7     7     8    1
    8     7     9    1
    9     7    10    1
   10    10    11    1
   11    10    12    1
   12    10    13    1
   13    13    14    1
   14    13    15    1
   15    13    16    1
   16    16    17    1
   17    16    18    1
   18    16    19    1
   19    19    20    1
   20    19    21    1
   21    19    22    1
@<TRIPOS>SUBSTRUCTURE
       1 MOL1            1 RESIDUE      1      MOL     
@<SCITEGIC>MOL_PROPERTY
VM2 Rank
SciTegic.value.IntegerValue
66

@<SCITEGIC>MOL_PROPERTY
Conf_Id
SciTegic.value.IntegerValue
49

@<SCITEGIC>MOL_PROPERTY
Probability
SciTegic.value.DoubleValue
0.00

@<SCITEGIC>MOL_PROPERTY
Sum Probability
SciTegic.value.DoubleValue
100.00

@<SCITEGIC>MOL_PROPERTY
Delta G
SciTegic.value.DoubleValue
6.066

@<SCITEGIC>MOL_PROPERTY
G
SciTegic.value.DoubleValue
-10.932

@<SCITEGIC>MOL_PROPERTY
E
SciTegic.value.DoubleValue
-31.801

@<SCITEGIC>MOL_PROPERTY
-TS
SciTegic.value.DoubleValue
20.869

@<SCITEGIC>MOL_PROPERTY
U+W
SciTegic.value.DoubleValue
-49.686

@<SCITEGIC>MOL_PROPERTY
U
SciTegic.value.DoubleValue
12.939

@<SCITEGIC>MOL_PROPERTY
W
SciTegic.value.DoubleValue
-62.625

@<SCITEGIC>MOL_PROPERTY
W(PB)
SciTegic.value.DoubleValue
-64.804

@<SCITEGIC>MOL_PROPERTY
W(SA)
SciTegic.value.DoubleValue
2.178

@<SCITEGIC>MOL_PROPERTY
Valence
SciTegic.value.DoubleValue
9.684

@<SCITEGIC>MOL_PROPERTY
Coulomb
SciTegic.value.DoubleValue
3.146

@<SCITEGIC>MOL_PROPERTY
VdW
SciTegic.value.DoubleValue
0.109

@<SCITEGIC>MOL_PROPERTY
VdW6
SciTegic.value.DoubleValue
-10.251

@<SCITEGIC>MOL_PROPERTY
VdW12
SciTegic.value.DoubleValue
10.360

@<SCITEGIC>MOL_PROPERTY
Bond
SciTegic.value.DoubleValue
0.223

@<SCITEGIC>MOL_PROPERTY
Angle
SciTegic.value.DoubleValue
3.698

@<SCITEGIC>MOL_PROPERTY
Pdih
SciTegic.value.DoubleValue
5.745

@<SCITEGIC>MOL_PROPERTY
Idih
SciTegic.value.DoubleValue
0.018

@<SCITEGIC>MOL_PROPERTY
Tether
SciTegic.value.DoubleValue
0.000

@<TRIPOS>MOLECULE
guest-s21_vm2.mol2 : vm2 ligand conformer 67
          22          21           1
SMALL
USER_CHARGES
 
@<TRIPOS>ATOM
       1    C1      19.560320   19.393020   25.082743 C.2        1 MOL1         0.6145
       2    O1      19.860629   20.570416   25.048557 O.co2      1 MOL1        -0.6735
       3    O2      18.452732   18.992180   25.382768 O.co2      1 MOL1        -0.6735
       4    C2      20.660853   18.361204   24.844565 C.3        1 MOL1        -0.1985
       5    H1      20.266986   17.361936   25.065899 H          1 MOL1         0.0740
       6    H2      21.438965   18.563023   25.589841 H          1 MOL1         0.0740
       7    C3      21.300529   18.388050   23.427859 C.3        1 MOL1        -0.1882
       8    H3      21.496882   19.424105   23.121522 H          1 MOL1         0.0742
       9    H4      22.285882   17.907806   23.495568 H          1 MOL1         0.0742
      10    C4      20.491409   17.638266   22.337622 C.3        1 MOL1        -0.1880
      11    H5      20.333334   16.601381   22.663660 H          1 MOL1         0.0742
      12    H6      21.104937   17.569908   21.429786 H          1 MOL1         0.0742
      13    C5      19.117989   18.257078   21.970046 C.3        1 MOL1        -0.1880
      14    H7      18.651721   17.634018   21.195002 H          1 MOL1         0.0742
      15    H8      18.447481   18.198673   22.836597 H          1 MOL1         0.0742
      16    C6      19.166263   19.720447   21.465580 C.3        1 MOL1        -0.1856
      17    H9      19.548002   20.381067   22.255276 H          1 MOL1         0.0742
      18    H10     18.139398   20.053966   21.263064 H          1 MOL1         0.0742
      19    C7      20.009275   19.898339   20.184261 C.3        1 MOL1        -0.2871
      20    H11     19.938937   20.930852   19.818647 H          1 MOL1         0.0754
      21    H12     19.657391   19.231420   19.386574 H          1 MOL1         0.0754
      22    H13     21.068738   19.683317   20.371929 H          1 MOL1         0.0754
@<TRIPOS>BOND
    1     1     2    1
    2     1     3    2
    3     1     4    1
    4     4     5    1
    5     4     6    1
    6     4     7    1
    7     7     8    1
    8     7     9    1
    9     7    10    1
   10    10    11    1
   11    10    12    1
   12    10    13    1
   13    13    14    1
   14    13    15    1
   15    13    16    1
   16    16    17    1
   17    16    18    1
   18    16    19    1
   19    19    20    1
   20    19    21    1
   21    19    22    1
@<TRIPOS>SUBSTRUCTURE
       1 MOL1            1 RESIDUE      1      MOL     
@<SCITEGIC>MOL_PROPERTY
VM2 Rank
SciTegic.value.IntegerValue
67

@<SCITEGIC>MOL_PROPERTY
Conf_Id
SciTegic.value.IntegerValue
575

@<SCITEGIC>MOL_PROPERTY
Probability
SciTegic.value.DoubleValue
0.00

@<SCITEGIC>MOL_PROPERTY
Sum Probability
SciTegic.value.DoubleValue
100.00

@<SCITEGIC>MOL_PROPERTY
Delta G
SciTegic.value.DoubleValue
6.513

@<SCITEGIC>MOL_PROPERTY
G
SciTegic.value.DoubleValue
-10.485

@<SCITEGIC>MOL_PROPERTY
E
SciTegic.value.DoubleValue
-31.617

@<SCITEGIC>MOL_PROPERTY
-TS
SciTegic.value.DoubleValue
21.132

@<SCITEGIC>MOL_PROPERTY
U+W
SciTegic.value.DoubleValue
-49.502

@<SCITEGIC>MOL_PROPERTY
U
SciTegic.value.DoubleValue
12.977

@<SCITEGIC>MOL_PROPERTY
W
SciTegic.value.DoubleValue
-62.478

@<SCITEGIC>MOL_PROPERTY
W(PB)
SciTegic.value.DoubleValue
-64.634

@<SCITEGIC>MOL_PROPERTY
W(SA)
SciTegic.value.DoubleValue
2.156

@<SCITEGIC>MOL_PROPERTY
Valence
SciTegic.value.DoubleValue
10.104

@<SCITEGIC>MOL_PROPERTY
Coulomb
SciTegic.value.DoubleValue
2.675

@<SCITEGIC>MOL_PROPERTY
VdW
SciTegic.value.DoubleValue
0.198

@<SCITEGIC>MOL_PROPERTY
VdW6
SciTegic.value.DoubleValue
-10.984

@<SCITEGIC>MOL_PROPERTY
VdW12
SciTegic.value.DoubleValue
11.182

@<SCITEGIC>MOL_PROPERTY
Bond
SciTegic.value.DoubleValue
0.262

@<SCITEGIC>MOL_PROPERTY
Angle
SciTegic.value.DoubleValue
4.020

@<SCITEGIC>MOL_PROPERTY
Pdih
SciTegic.value.DoubleValue
5.805

@<SCITEGIC>MOL_PROPERTY
Idih
SciTegic.value.DoubleValue
0.017

@<SCITEGIC>MOL_PROPERTY
Tether
SciTegic.value.DoubleValue
0.000

@<TRIPOS>MOLECULE
guest-s21_vm2.mol2 : vm2 ligand conformer 68
          22          21           1
SMALL
USER_CHARGES
 
@<TRIPOS>ATOM
       1    C1      20.153704   19.020932   25.366457 C.2        1 MOL1         0.6145
       2    O1      19.643595   19.642644   26.277889 O.co2      1 MOL1        -0.6735
       3    O2      20.404250   17.833011   25.421727 O.co2      1 MOL1        -0.6735
       4    C2      20.525344   19.781936   24.096956 C.3        1 MOL1        -0.1985
       5    H1      21.222228   19.168991   23.514766 H          1 MOL1         0.0740
       6    H2      21.078797   20.677179   24.403060 H          1 MOL1         0.0740
       7    C3      19.306169   20.202073   23.230712 C.3        1 MOL1        -0.1882
       8    H3      18.651382   20.842436   23.837562 H          1 MOL1         0.0742
       9    H4      19.642749   20.827998   22.395329 H          1 MOL1         0.0742
      10    C4      18.470777   19.015922   22.688429 C.3        1 MOL1        -0.1880
      11    H5      17.605955   19.415291   22.141557 H          1 MOL1         0.0742
      12    H6      18.053766   18.460941   23.539953 H          1 MOL1         0.0742
      13    C5      19.223319   18.015463   21.772100 C.3        1 MOL1        -0.1880
      14    H7      20.053220   17.542085   22.313394 H          1 MOL1         0.0742
      15    H8      18.524029   17.199855   21.543203 H          1 MOL1         0.0742
      16    C6      19.715150   18.605664   20.426234 C.3        1 MOL1        -0.1856
      17    H9      19.047870   19.414493   20.098322 H          1 MOL1         0.0742
      18    H10     19.645270   17.822890   19.658369 H          1 MOL1         0.0742
      19    C7      21.177692   19.101354   20.463496 C.3        1 MOL1        -0.2871
      20    H11     21.856865   18.294119   20.766885 H          1 MOL1         0.0754
      21    H12     21.308560   19.936086   21.160384 H          1 MOL1         0.0754
      22    H13     21.489916   19.446959   19.469615 H          1 MOL1         0.0754
@<TRIPOS>BOND
    1     1     2    1
    2     1     3    2
    3     1     4    1
    4     4     5    1
    5     4     6    1
    6     4     7    1
    7     7     8    1
    8     7     9    1
    9     7    10    1
   10    10    11    1
   11    10    12    1
   12    10    13    1
   13    13    14    1
   14    13    15    1
   15    13    16    1
   16    16    17    1
   17    16    18    1
   18    16    19    1
   19    19    20    1
   20    19    21    1
   21    19    22    1
@<TRIPOS>SUBSTRUCTURE
       1 MOL1            1 RESIDUE      1      MOL     
@<SCITEGIC>MOL_PROPERTY
VM2 Rank
SciTegic.value.IntegerValue
68

@<SCITEGIC>MOL_PROPERTY
Conf_Id
SciTegic.value.IntegerValue
366

@<SCITEGIC>MOL_PROPERTY
Probability
SciTegic.value.DoubleValue
0.00

@<SCITEGIC>MOL_PROPERTY
Sum Probability
SciTegic.value.DoubleValue
100.00

@<SCITEGIC>MOL_PROPERTY
Delta G
SciTegic.value.DoubleValue
6.719

@<SCITEGIC>MOL_PROPERTY
G
SciTegic.value.DoubleValue
-10.279

@<SCITEGIC>MOL_PROPERTY
E
SciTegic.value.DoubleValue
-30.970

@<SCITEGIC>MOL_PROPERTY
-TS
SciTegic.value.DoubleValue
20.691

@<SCITEGIC>MOL_PROPERTY
U+W
SciTegic.value.DoubleValue
-48.855

@<SCITEGIC>MOL_PROPERTY
U
SciTegic.value.DoubleValue
13.163

@<SCITEGIC>MOL_PROPERTY
W
SciTegic.value.DoubleValue
-62.019

@<SCITEGIC>MOL_PROPERTY
W(PB)
SciTegic.value.DoubleValue
-64.182

@<SCITEGIC>MOL_PROPERTY
W(SA)
SciTegic.value.DoubleValue
2.163

@<SCITEGIC>MOL_PROPERTY
Valence
SciTegic.value.DoubleValue
10.932

@<SCITEGIC>MOL_PROPERTY
Coulomb
SciTegic.value.DoubleValue
1.922

@<SCITEGIC>MOL_PROPERTY
VdW
SciTegic.value.DoubleValue
0.309

@<SCITEGIC>MOL_PROPERTY
VdW6
SciTegic.value.DoubleValue
-10.319

@<SCITEGIC>MOL_PROPERTY
VdW12
SciTegic.value.DoubleValue
10.628

@<SCITEGIC>MOL_PROPERTY
Bond
SciTegic.value.DoubleValue
0.254

@<SCITEGIC>MOL_PROPERTY
Angle
SciTegic.value.DoubleValue
3.841

@<SCITEGIC>MOL_PROPERTY
Pdih
SciTegic.value.DoubleValue
6.835

@<SCITEGIC>MOL_PROPERTY
Idih
SciTegic.value.DoubleValue
0.001

@<SCITEGIC>MOL_PROPERTY
Tether
SciTegic.value.DoubleValue
0.000

@<TRIPOS>MOLECULE
guest-s21_vm2.mol2 : vm2 ligand conformer 69
          22          21           1
SMALL
USER_CHARGES
 
@<TRIPOS>ATOM
       1    C1      19.775159   18.813428   25.377395 C.2        1 MOL1         0.6145
       2    O1      19.565156   19.599781   26.280166 O.co2      1 MOL1        -0.6735
       3    O2      20.644204   17.964702   25.414966 O.co2      1 MOL1        -0.6735
       4    C2      18.878860   18.879185   24.144024 C.3        1 MOL1        -0.1985
       5    H1      17.840869   18.901953   24.495487 H          1 MOL1         0.0740
       6    H2      18.995694   17.948178   23.578453 H          1 MOL1         0.0740
       7    C3      19.141404   20.111587   23.235431 C.3        1 MOL1        -0.1882
       8    H3      18.396675   20.144723   22.430936 H          1 MOL1         0.0742
       9    H4      18.980067   21.022475   23.828162 H          1 MOL1         0.0742
      10    C4      20.565449   20.164032   22.628598 C.3        1 MOL1        -0.1880
      11    H5      21.294316   20.237073   23.447386 H          1 MOL1         0.0742
      12    H6      20.669325   21.094462   22.054151 H          1 MOL1         0.0742
      13    C5      20.963983   18.969637   21.722238 C.3        1 MOL1        -0.1880
      14    H7      22.016517   19.114360   21.443232 H          1 MOL1         0.0742
      15    H8      20.941013   18.028669   22.287813 H          1 MOL1         0.0742
      16    C6      20.143465   18.840644   20.413918 C.3        1 MOL1        -0.1856
      17    H9      20.806704   18.459954   19.624979 H          1 MOL1         0.0742
      18    H10     19.805785   19.830242   20.076781 H          1 MOL1         0.0742
      19    C7      18.942320   17.876003   20.527263 C.3        1 MOL1        -0.2871
      20    H11     18.199492   18.231520   21.249322 H          1 MOL1         0.0754
      21    H12     19.271208   16.876635   20.840383 H          1 MOL1         0.0754
      22    H13     18.439719   17.775209   19.556718 H          1 MOL1         0.0754
@<TRIPOS>BOND
    1     1     2    1
    2     1     3    2
    3     1     4    1
    4     4     5    1
    5     4     6    1
    6     4     7    1
    7     7     8    1
    8     7     9    1
    9     7    10    1
   10    10    11    1
   11    10    12    1
   12    10    13    1
   13    13    14    1
   14    13    15    1
   15    13    16    1
   16    16    17    1
   17    16    18    1
   18    16    19    1
   19    19    20    1
   20    19    21    1
   21    19    22    1
@<TRIPOS>SUBSTRUCTURE
       1 MOL1            1 RESIDUE      1      MOL     
@<SCITEGIC>MOL_PROPERTY
VM2 Rank
SciTegic.value.IntegerValue
69

@<SCITEGIC>MOL_PROPERTY
Conf_Id
SciTegic.value.IntegerValue
157

@<SCITEGIC>MOL_PROPERTY
Probability
SciTegic.value.DoubleValue
0.00

@<SCITEGIC>MOL_PROPERTY
Sum Probability
SciTegic.value.DoubleValue
100.00

@<SCITEGIC>MOL_PROPERTY
Delta G
SciTegic.value.DoubleValue
6.732

@<SCITEGIC>MOL_PROPERTY
G
SciTegic.value.DoubleValue
-10.266

@<SCITEGIC>MOL_PROPERTY
E
SciTegic.value.DoubleValue
-30.958

@<SCITEGIC>MOL_PROPERTY
-TS
SciTegic.value.DoubleValue
20.692

@<SCITEGIC>MOL_PROPERTY
U+W
SciTegic.value.DoubleValue
-48.843

@<SCITEGIC>MOL_PROPERTY
U
SciTegic.value.DoubleValue
13.163

@<SCITEGIC>MOL_PROPERTY
W
SciTegic.value.DoubleValue
-62.006

@<SCITEGIC>MOL_PROPERTY
W(PB)
SciTegic.value.DoubleValue
-64.166

@<SCITEGIC>MOL_PROPERTY
W(SA)
SciTegic.value.DoubleValue
2.160

@<SCITEGIC>MOL_PROPERTY
Valence
SciTegic.value.DoubleValue
10.932

@<SCITEGIC>MOL_PROPERTY
Coulomb
SciTegic.value.DoubleValue
1.922

@<SCITEGIC>MOL_PROPERTY
VdW
SciTegic.value.DoubleValue
0.309

@<SCITEGIC>MOL_PROPERTY
VdW6
SciTegic.value.DoubleValue
-10.319

@<SCITEGIC>MOL_PROPERTY
VdW12
SciTegic.value.DoubleValue
10.629

@<SCITEGIC>MOL_PROPERTY
Bond
SciTegic.value.DoubleValue
0.254

@<SCITEGIC>MOL_PROPERTY
Angle
SciTegic.value.DoubleValue
3.841

@<SCITEGIC>MOL_PROPERTY
Pdih
SciTegic.value.DoubleValue
6.835

@<SCITEGIC>MOL_PROPERTY
Idih
SciTegic.value.DoubleValue
0.001

@<SCITEGIC>MOL_PROPERTY
Tether
SciTegic.value.DoubleValue
0.000

@<TRIPOS>MOLECULE
guest-s21_vm2.mol2 : vm2 ligand conformer 70
          22          21           1
SMALL
USER_CHARGES
 
@<TRIPOS>ATOM
       1    C1      20.250559   18.969372   25.264570 C.2        1 MOL1         0.6145
       2    O1      19.625675   19.130884   26.294619 O.co2      1 MOL1        -0.6735
       3    O2      20.976535   18.016005   25.062727 O.co2      1 MOL1        -0.6735
       4    C2      20.139359   20.039842   24.181798 C.3        1 MOL1        -0.1985
       5    H1      20.302340   21.008587   24.668144 H          1 MOL1         0.0740
       6    H2      20.962189   19.903921   23.473216 H          1 MOL1         0.0740
       7    C3      18.768930   20.057823   23.450048 C.3        1 MOL1        -0.1882
       8    H3      17.979936   20.137943   24.210708 H          1 MOL1         0.0742
       9    H4      18.688102   20.965012   22.836398 H          1 MOL1         0.0742
      10    C4      18.492808   18.806294   22.575796 C.3        1 MOL1        -0.1880
      11    H5      17.420334   18.579096   22.644819 H          1 MOL1         0.0742
      12    H6      19.003714   17.924719   22.984645 H          1 MOL1         0.0742
      13    C5      18.828248   18.983449   21.071426 C.3        1 MOL1        -0.1880
      14    H7      18.476281   18.096515   20.527257 H          1 MOL1         0.0742
      15    H8      18.246538   19.827344   20.676354 H          1 MOL1         0.0742
      16    C6      20.321289   19.208357   20.734510 C.3        1 MOL1        -0.1856
      17    H9      20.686586   20.120298   21.223291 H          1 MOL1         0.0742
      18    H10     20.411682   19.388684   19.654597 H          1 MOL1         0.0742
      19    C7      21.216597   18.006974   21.108505 C.3        1 MOL1        -0.2871
      20    H11     20.869538   17.090740   20.613739 H          1 MOL1         0.0754
      21    H12     21.220162   17.829750   22.191480 H          1 MOL1         0.0754
      22    H13     22.253262   18.188100   20.797009 H          1 MOL1         0.0754
@<TRIPOS>BOND
    1     1     2    1
    2     1     3    2
    3     1     4    1
    4     4     5    1
    5     4     6    1
    6     4     7    1
    7     7     8    1
    8     7     9    1
    9     7    10    1
   10    10    11    1
   11    10    12    1
   12    10    13    1
   13    13    14    1
   14    13    15    1
   15    13    16    1
   16    16    17    1
   17    16    18    1
   18    16    19    1
   19    19    20    1
   20    19    21    1
   21    19    22    1
@<TRIPOS>SUBSTRUCTURE
       1 MOL1            1 RESIDUE      1      MOL     
@<SCITEGIC>MOL_PROPERTY
VM2 Rank
SciTegic.value.IntegerValue
70

@<SCITEGIC>MOL_PROPERTY
Conf_Id
SciTegic.value.IntegerValue
192

@<SCITEGIC>MOL_PROPERTY
Probability
SciTegic.value.DoubleValue
0.00

@<SCITEGIC>MOL_PROPERTY
Sum Probability
SciTegic.value.DoubleValue
100.00

@<SCITEGIC>MOL_PROPERTY
Delta G
SciTegic.value.DoubleValue
7.234

@<SCITEGIC>MOL_PROPERTY
G
SciTegic.value.DoubleValue
-9.764

@<SCITEGIC>MOL_PROPERTY
E
SciTegic.value.DoubleValue
-30.742

@<SCITEGIC>MOL_PROPERTY
-TS
SciTegic.value.DoubleValue
20.978

@<SCITEGIC>MOL_PROPERTY
U+W
SciTegic.value.DoubleValue
-48.627

@<SCITEGIC>MOL_PROPERTY
U
SciTegic.value.DoubleValue
13.493

@<SCITEGIC>MOL_PROPERTY
W
SciTegic.value.DoubleValue
-62.120

@<SCITEGIC>MOL_PROPERTY
W(PB)
SciTegic.value.DoubleValue
-64.295

@<SCITEGIC>MOL_PROPERTY
W(SA)
SciTegic.value.DoubleValue
2.175

@<SCITEGIC>MOL_PROPERTY
Valence
SciTegic.value.DoubleValue
11.096

@<SCITEGIC>MOL_PROPERTY
Coulomb
SciTegic.value.DoubleValue
2.068

@<SCITEGIC>MOL_PROPERTY
VdW
SciTegic.value.DoubleValue
0.328

@<SCITEGIC>MOL_PROPERTY
VdW6
SciTegic.value.DoubleValue
-10.376

@<SCITEGIC>MOL_PROPERTY
VdW12
SciTegic.value.DoubleValue
10.703

@<SCITEGIC>MOL_PROPERTY
Bond
SciTegic.value.DoubleValue
0.258

@<SCITEGIC>MOL_PROPERTY
Angle
SciTegic.value.DoubleValue
3.696

@<SCITEGIC>MOL_PROPERTY
Pdih
SciTegic.value.DoubleValue
7.142

@<SCITEGIC>MOL_PROPERTY
Idih
SciTegic.value.DoubleValue
0.001

@<SCITEGIC>MOL_PROPERTY
Tether
SciTegic.value.DoubleValue
0.000

@<TRIPOS>MOLECULE
guest-s21_vm2.mol2 : vm2 ligand conformer 71
          22          21           1
SMALL
USER_CHARGES
 
@<TRIPOS>ATOM
       1    C1      20.213491   18.836132   25.107566 C.2        1 MOL1         0.6145
       2    O1      20.528845   19.778219   25.808298 O.co2      1 MOL1        -0.6735
       3    O2      20.950250   17.897706   24.877588 O.co2      1 MOL1        -0.6735
       4    C2      18.794661   18.797294   24.542454 C.3        1 MOL1        -0.1985
       5    H1      18.113485   18.720443   25.397592 H          1 MOL1         0.0740
       6    H2      18.666579   17.877608   23.961004 H          1 MOL1         0.0740
       7    C3      18.406060   20.036767   23.691724 C.3        1 MOL1        -0.1882
       8    H3      17.339906   19.976799   23.434853 H          1 MOL1         0.0742
       9    H4      18.517889   20.936539   24.312444 H          1 MOL1         0.0742
      10    C4      19.232441   20.222770   22.393886 C.3        1 MOL1        -0.1880
      11    H5      20.298393   20.312915   22.638162 H          1 MOL1         0.0742
      12    H6      18.946431   21.188901   21.956439 H          1 MOL1         0.0742
      13    C5      18.994464   19.124449   21.323265 C.3        1 MOL1        -0.1880
      14    H7      18.008142   18.666912   21.479137 H          1 MOL1         0.0742
      15    H8      18.946982   19.597574   20.332958 H          1 MOL1         0.0742
      16    C6      20.074192   18.015850   21.280500 C.3        1 MOL1        -0.1856
      17    H9      19.710936   17.196211   20.645661 H          1 MOL1         0.0742
      18    H10     20.225849   17.587818   22.279069 H          1 MOL1         0.0742
      19    C7      21.425594   18.509812   20.718721 C.3        1 MOL1        -0.2871
      20    H11     21.875450   19.273099   21.365374 H          1 MOL1         0.0754
      21    H12     21.301795   18.938398   19.715772 H          1 MOL1         0.0754
      22    H13     22.136572   17.676876   20.644545 H          1 MOL1         0.0754
@<TRIPOS>BOND
    1     1     2    1
    2     1     3    2
    3     1     4    1
    4     4     5    1
    5     4     6    1
    6     4     7    1
    7     7     8    1
    8     7     9    1
    9     7    10    1
   10    10    11    1
   11    10    12    1
   12    10    13    1
   13    13    14    1
   14    13    15    1
   15    13    16    1
   16    16    17    1
   17    16    18    1
   18    16    19    1
   19    19    20    1
   20    19    21    1
   21    19    22    1
@<TRIPOS>SUBSTRUCTURE
       1 MOL1            1 RESIDUE      1      MOL     
@<SCITEGIC>MOL_PROPERTY
VM2 Rank
SciTegic.value.IntegerValue
71

@<SCITEGIC>MOL_PROPERTY
Conf_Id
SciTegic.value.IntegerValue
53

@<SCITEGIC>MOL_PROPERTY
Probability
SciTegic.value.DoubleValue
0.00

@<SCITEGIC>MOL_PROPERTY
Sum Probability
SciTegic.value.DoubleValue
100.00

@<SCITEGIC>MOL_PROPERTY
Delta G
SciTegic.value.DoubleValue
7.339

@<SCITEGIC>MOL_PROPERTY
G
SciTegic.value.DoubleValue
-9.659

@<SCITEGIC>MOL_PROPERTY
E
SciTegic.value.DoubleValue
-30.004

@<SCITEGIC>MOL_PROPERTY
-TS
SciTegic.value.DoubleValue
20.345

@<SCITEGIC>MOL_PROPERTY
U+W
SciTegic.value.DoubleValue
-47.889

@<SCITEGIC>MOL_PROPERTY
U
SciTegic.value.DoubleValue
14.792

@<SCITEGIC>MOL_PROPERTY
W
SciTegic.value.DoubleValue
-62.681

@<SCITEGIC>MOL_PROPERTY
W(PB)
SciTegic.value.DoubleValue
-64.847

@<SCITEGIC>MOL_PROPERTY
W(SA)
SciTegic.value.DoubleValue
2.166

@<SCITEGIC>MOL_PROPERTY
Valence
SciTegic.value.DoubleValue
11.491

@<SCITEGIC>MOL_PROPERTY
Coulomb
SciTegic.value.DoubleValue
2.886

@<SCITEGIC>MOL_PROPERTY
VdW
SciTegic.value.DoubleValue
0.415

@<SCITEGIC>MOL_PROPERTY
VdW6
SciTegic.value.DoubleValue
-10.182

@<SCITEGIC>MOL_PROPERTY
VdW12
SciTegic.value.DoubleValue
10.597

@<SCITEGIC>MOL_PROPERTY
Bond
SciTegic.value.DoubleValue
0.251

@<SCITEGIC>MOL_PROPERTY
Angle
SciTegic.value.DoubleValue
3.560

@<SCITEGIC>MOL_PROPERTY
Pdih
SciTegic.value.DoubleValue
7.674

@<SCITEGIC>MOL_PROPERTY
Idih
SciTegic.value.DoubleValue
0.007

@<SCITEGIC>MOL_PROPERTY
Tether
SciTegic.value.DoubleValue
0.000

@<TRIPOS>MOLECULE
guest-s21_vm2.mol2 : vm2 ligand conformer 72
          22          21           1
SMALL
USER_CHARGES
 
@<TRIPOS>ATOM
       1    C1      19.932027   19.514248   25.440546 C.2        1 MOL1         0.6145
       2    O1      20.728546   20.424238   25.322759 O.co2      1 MOL1        -0.6735
       3    O2      19.691984   18.962496   26.496385 O.co2      1 MOL1        -0.6735
       4    C2      19.208087   19.023525   24.192013 C.3        1 MOL1        -0.1985
       5    H1      19.058129   19.882731   23.531281 H          1 MOL1         0.0740
       6    H2      18.212591   18.675517   24.492160 H          1 MOL1         0.0740
       7    C3      19.971144   17.885503   23.464096 C.3        1 MOL1        -0.1882
       8    H3      20.998687   18.197692   23.234059 H          1 MOL1         0.0742
       9    H4      20.060821   17.041826   24.162288 H          1 MOL1         0.0742
      10    C4      19.259782   17.391156   22.180143 C.3        1 MOL1        -0.1880
      11    H5      18.172402   17.514348   22.276165 H          1 MOL1         0.0742
      12    H6      19.427772   16.308395   22.100583 H          1 MOL1         0.0742
      13    C5      19.752874   18.030045   20.854858 C.3        1 MOL1        -0.1880
      14    H7      20.827073   17.841542   20.722980 H          1 MOL1         0.0742
      15    H8      19.257159   17.495378   20.033101 H          1 MOL1         0.0742
      16    C6      19.450333   19.538985   20.684901 C.3        1 MOL1        -0.1856
      17    H9      18.535530   19.809028   21.229019 H          1 MOL1         0.0742
      18    H10     19.239400   19.734907   19.624552 H          1 MOL1         0.0742
      19    C7      20.625224   20.448805   21.108300 C.3        1 MOL1        -0.2871
      20    H11     20.364932   21.504985   20.962256 H          1 MOL1         0.0754
      21    H12     21.518760   20.236903   20.507020 H          1 MOL1         0.0754
      22    H13     20.889321   20.312806   22.163318 H          1 MOL1         0.0754
@<TRIPOS>BOND
    1     1     2    1
    2     1     3    2
    3     1     4    1
    4     4     5    1
    5     4     6    1
    6     4     7    1
    7     7     8    1
    8     7     9    1
    9     7    10    1
   10    10    11    1
   11    10    12    1
   12    10    13    1
   13    13    14    1
   14    13    15    1
   15    13    16    1
   16    16    17    1
   17    16    18    1
   18    16    19    1
   19    19    20    1
   20    19    21    1
   21    19    22    1
@<TRIPOS>SUBSTRUCTURE
       1 MOL1            1 RESIDUE      1      MOL     
@<SCITEGIC>MOL_PROPERTY
VM2 Rank
SciTegic.value.IntegerValue
72

@<SCITEGIC>MOL_PROPERTY
Conf_Id
SciTegic.value.IntegerValue
566

@<SCITEGIC>MOL_PROPERTY
Probability
SciTegic.value.DoubleValue
0.00

@<SCITEGIC>MOL_PROPERTY
Sum Probability
SciTegic.value.DoubleValue
100.00

@<SCITEGIC>MOL_PROPERTY
Delta G
SciTegic.value.DoubleValue
7.561

@<SCITEGIC>MOL_PROPERTY
G
SciTegic.value.DoubleValue
-9.437

@<SCITEGIC>MOL_PROPERTY
E
SciTegic.value.DoubleValue
-29.905

@<SCITEGIC>MOL_PROPERTY
-TS
SciTegic.value.DoubleValue
20.468

@<SCITEGIC>MOL_PROPERTY
U+W
SciTegic.value.DoubleValue
-47.789

@<SCITEGIC>MOL_PROPERTY
U
SciTegic.value.DoubleValue
13.811

@<SCITEGIC>MOL_PROPERTY
W
SciTegic.value.DoubleValue
-61.600

@<SCITEGIC>MOL_PROPERTY
W(PB)
SciTegic.value.DoubleValue
-63.798

@<SCITEGIC>MOL_PROPERTY
W(SA)
SciTegic.value.DoubleValue
2.197

@<SCITEGIC>MOL_PROPERTY
Valence
SciTegic.value.DoubleValue
12.676

@<SCITEGIC>MOL_PROPERTY
Coulomb
SciTegic.value.DoubleValue
0.620

@<SCITEGIC>MOL_PROPERTY
VdW
SciTegic.value.DoubleValue
0.516

@<SCITEGIC>MOL_PROPERTY
VdW6
SciTegic.value.DoubleValue
-9.538

@<SCITEGIC>MOL_PROPERTY
VdW12
SciTegic.value.DoubleValue
10.053

@<SCITEGIC>MOL_PROPERTY
Bond
SciTegic.value.DoubleValue
0.234

@<SCITEGIC>MOL_PROPERTY
Angle
SciTegic.value.DoubleValue
3.707

@<SCITEGIC>MOL_PROPERTY
Pdih
SciTegic.value.DoubleValue
8.734

@<SCITEGIC>MOL_PROPERTY
Idih
SciTegic.value.DoubleValue
0.001

@<SCITEGIC>MOL_PROPERTY
Tether
SciTegic.value.DoubleValue
0.000

@<TRIPOS>MOLECULE
guest-s21_vm2.mol2 : vm2 ligand conformer 73
          22          21           1
SMALL
USER_CHARGES
 
@<TRIPOS>ATOM
       1    C1      19.838559   18.765572   25.243162 C.2        1 MOL1         0.6145
       2    O1      18.676550   18.680448   25.589096 O.co2      1 MOL1        -0.6735
       3    O2      20.620630   17.835899   25.279033 O.co2      1 MOL1        -0.6735
       4    C2      20.360305   20.126846   24.793113 C.3        1 MOL1        -0.1985
       5    H1      21.277288   20.319622   25.362190 H          1 MOL1         0.0740
       6    H2      19.638614   20.895633   25.094443 H          1 MOL1         0.0740
       7    C3      20.669497   20.246663   23.274635 C.3        1 MOL1        -0.1882
       8    H3      21.216997   21.185756   23.118249 H          1 MOL1         0.0742
       9    H4      21.351786   19.442531   22.971474 H          1 MOL1         0.0742
      10    C4      19.408433   20.271568   22.371637 C.3        1 MOL1        -0.1880
      11    H5      19.633207   20.825180   21.449862 H          1 MOL1         0.0742
      12    H6      18.623559   20.850188   22.877536 H          1 MOL1         0.0742
      13    C5      18.848016   18.874094   21.996745 C.3        1 MOL1        -0.1880
      14    H7      19.065975   18.140591   22.782548 H          1 MOL1         0.0742
      15    H8      17.752851   18.946017   21.952986 H          1 MOL1         0.0742
      16    C6      19.338513   18.334692   20.630432 C.3        1 MOL1        -0.1856
      17    H9      19.048974   19.032363   19.832580 H          1 MOL1         0.0742
      18    H10     18.816212   17.391524   20.418970 H          1 MOL1         0.0742
      19    C7      20.859496   18.083219   20.566147 C.3        1 MOL1        -0.2871
      20    H11     21.130985   17.607772   19.614866 H          1 MOL1         0.0754
      21    H12     21.182510   17.421646   21.380642 H          1 MOL1         0.0754
      22    H13     21.419845   19.023659   20.639587 H          1 MOL1         0.0754
@<TRIPOS>BOND
    1     1     2    1
    2     1     3    2
    3     1     4    1
    4     4     5    1
    5     4     6    1
    6     4     7    1
    7     7     8    1
    8     7     9    1
    9     7    10    1
   10    10    11    1
   11    10    12    1
   12    10    13    1
   13    13    14    1
   14    13    15    1
   15    13    16    1
   16    16    17    1
   17    16    18    1
   18    16    19    1
   19    19    20    1
   20    19    21    1
   21    19    22    1
@<TRIPOS>SUBSTRUCTURE
       1 MOL1            1 RESIDUE      1      MOL     
@<SCITEGIC>MOL_PROPERTY
VM2 Rank
SciTegic.value.IntegerValue
73

@<SCITEGIC>MOL_PROPERTY
Conf_Id
SciTegic.value.IntegerValue
573

@<SCITEGIC>MOL_PROPERTY
Probability
SciTegic.value.DoubleValue
0.00

@<SCITEGIC>MOL_PROPERTY
Sum Probability
SciTegic.value.DoubleValue
100.00

@<SCITEGIC>MOL_PROPERTY
Delta G
SciTegic.value.DoubleValue
8.166

@<SCITEGIC>MOL_PROPERTY
G
SciTegic.value.DoubleValue
-8.832

@<SCITEGIC>MOL_PROPERTY
E
SciTegic.value.DoubleValue
-29.229

@<SCITEGIC>MOL_PROPERTY
-TS
SciTegic.value.DoubleValue
20.397

@<SCITEGIC>MOL_PROPERTY
U+W
SciTegic.value.DoubleValue
-47.114

@<SCITEGIC>MOL_PROPERTY
U
SciTegic.value.DoubleValue
15.358

@<SCITEGIC>MOL_PROPERTY
W
SciTegic.value.DoubleValue
-62.472

@<SCITEGIC>MOL_PROPERTY
W(PB)
SciTegic.value.DoubleValue
-64.649

@<SCITEGIC>MOL_PROPERTY
W(SA)
SciTegic.value.DoubleValue
2.177

@<SCITEGIC>MOL_PROPERTY
Valence
SciTegic.value.DoubleValue
12.193

@<SCITEGIC>MOL_PROPERTY
Coulomb
SciTegic.value.DoubleValue
2.676

@<SCITEGIC>MOL_PROPERTY
VdW
SciTegic.value.DoubleValue
0.488

@<SCITEGIC>MOL_PROPERTY
VdW6
SciTegic.value.DoubleValue
-10.169

@<SCITEGIC>MOL_PROPERTY
VdW12
SciTegic.value.DoubleValue
10.657

@<SCITEGIC>MOL_PROPERTY
Bond
SciTegic.value.DoubleValue
0.265

@<SCITEGIC>MOL_PROPERTY
Angle
SciTegic.value.DoubleValue
3.626

@<SCITEGIC>MOL_PROPERTY
Pdih
SciTegic.value.DoubleValue
8.298

@<SCITEGIC>MOL_PROPERTY
Idih
SciTegic.value.DoubleValue
0.004

@<SCITEGIC>MOL_PROPERTY
Tether
SciTegic.value.DoubleValue
0.000

@<TRIPOS>MOLECULE
guest-s21_vm2.mol2 : vm2 ligand conformer 74
          22          21           1
SMALL
USER_CHARGES
 
@<TRIPOS>ATOM
       1    C1      20.326061   18.844613   24.891582 C.2        1 MOL1         0.6145
       2    O1      20.809485   19.914338   25.208351 O.co2      1 MOL1        -0.6735
       3    O2      20.972427   17.818630   24.812047 O.co2      1 MOL1        -0.6735
       4    C2      18.810609   18.749746   24.707502 C.3        1 MOL1        -0.1985
       5    H1      18.382319   18.761386   25.716273 H          1 MOL1         0.0740
       6    H2      18.563896   17.772773   24.274980 H          1 MOL1         0.0740
       7    C3      18.157863   19.887743   23.871951 C.3        1 MOL1        -0.1882
       8    H3      17.101668   19.957899   24.165033 H          1 MOL1         0.0742
       9    H4      18.605589   20.854629   24.140291 H          1 MOL1         0.0742
      10    C4      18.202864   19.693715   22.334536 C.3        1 MOL1        -0.1880
      11    H5      17.631537   20.515769   21.882036 H          1 MOL1         0.0742
      12    H6      17.668984   18.774758   22.056240 H          1 MOL1         0.0742
      13    C5      19.622677   19.700907   21.715935 C.3        1 MOL1        -0.1880
      14    H7      19.596533   20.280144   20.782885 H          1 MOL1         0.0742
      15    H8      20.324127   20.225034   22.379494 H          1 MOL1         0.0742
      16    C6      20.144531   18.283715   21.389679 C.3        1 MOL1        -0.1856
      17    H9      19.473562   17.801454   20.665665 H          1 MOL1         0.0742
      18    H10     20.136251   17.658660   22.291236 H          1 MOL1         0.0742
      19    C7      21.573483   18.325593   20.812416 C.3        1 MOL1        -0.2871
      20    H11     21.925190   17.312756   20.577250 H          1 MOL1         0.0754
      21    H12     22.272364   18.767082   21.535230 H          1 MOL1         0.0754
      22    H13     21.609082   18.921010   19.890816 H          1 MOL1         0.0754
@<TRIPOS>BOND
    1     1     2    1
    2     1     3    2
    3     1     4    1
    4     4     5    1
    5     4     6    1
    6     4     7    1
    7     7     8    1
    8     7     9    1
    9     7    10    1
   10    10    11    1
   11    10    12    1
   12    10    13    1
   13    13    14    1
   14    13    15    1
   15    13    16    1
   16    16    17    1
   17    16    18    1
   18    16    19    1
   19    19    20    1
   20    19    21    1
   21    19    22    1
@<TRIPOS>SUBSTRUCTURE
       1 MOL1            1 RESIDUE      1      MOL     
@<SCITEGIC>MOL_PROPERTY
VM2 Rank
SciTegic.value.IntegerValue
74

@<SCITEGIC>MOL_PROPERTY
Conf_Id
SciTegic.value.IntegerValue
457

@<SCITEGIC>MOL_PROPERTY
Probability
SciTegic.value.DoubleValue
0.00

@<SCITEGIC>MOL_PROPERTY
Sum Probability
SciTegic.value.DoubleValue
100.00

@<SCITEGIC>MOL_PROPERTY
Delta G
SciTegic.value.DoubleValue
8.527

@<SCITEGIC>MOL_PROPERTY
G
SciTegic.value.DoubleValue
-8.471

@<SCITEGIC>MOL_PROPERTY
E
SciTegic.value.DoubleValue
-29.145

@<SCITEGIC>MOL_PROPERTY
-TS
SciTegic.value.DoubleValue
20.675

@<SCITEGIC>MOL_PROPERTY
U+W
SciTegic.value.DoubleValue
-47.030

@<SCITEGIC>MOL_PROPERTY
U
SciTegic.value.DoubleValue
15.739

@<SCITEGIC>MOL_PROPERTY
W
SciTegic.value.DoubleValue
-62.769

@<SCITEGIC>MOL_PROPERTY
W(PB)
SciTegic.value.DoubleValue
-64.934

@<SCITEGIC>MOL_PROPERTY
W(SA)
SciTegic.value.DoubleValue
2.164

@<SCITEGIC>MOL_PROPERTY
Valence
SciTegic.value.DoubleValue
12.167

@<SCITEGIC>MOL_PROPERTY
Coulomb
SciTegic.value.DoubleValue
3.363

@<SCITEGIC>MOL_PROPERTY
VdW
SciTegic.value.DoubleValue
0.210

@<SCITEGIC>MOL_PROPERTY
VdW6
SciTegic.value.DoubleValue
-10.463

@<SCITEGIC>MOL_PROPERTY
VdW12
SciTegic.value.DoubleValue
10.673

@<SCITEGIC>MOL_PROPERTY
Bond
SciTegic.value.DoubleValue
0.233

@<SCITEGIC>MOL_PROPERTY
Angle
SciTegic.value.DoubleValue
3.822

@<SCITEGIC>MOL_PROPERTY
Pdih
SciTegic.value.DoubleValue
8.088

@<SCITEGIC>MOL_PROPERTY
Idih
SciTegic.value.DoubleValue
0.023

@<SCITEGIC>MOL_PROPERTY
Tether
SciTegic.value.DoubleValue
0.000

@<TRIPOS>MOLECULE
guest-s21_vm2.mol2 : vm2 ligand conformer 75
          22          21           1
SMALL
USER_CHARGES
 
@<TRIPOS>ATOM
       1    C1      20.343033   19.325186   24.867752 C.2        1 MOL1         0.6145
       2    O1      20.751168   18.260592   25.290144 O.co2      1 MOL1        -0.6735
       3    O2      21.059575   20.290458   24.690052 O.co2      1 MOL1        -0.6735
       4    C2      18.837358   19.507727   24.670031 C.3        1 MOL1        -0.1985
       5    H1      18.658380   20.452305   24.142625 H          1 MOL1         0.0740
       6    H2      18.412847   19.625519   25.673575 H          1 MOL1         0.0740
       7    C3      18.103358   18.341719   23.948276 C.3        1 MOL1        -0.1882
       8    H3      18.482983   17.376876   24.312004 H          1 MOL1         0.0742
       9    H4      17.045875   18.375126   24.243198 H          1 MOL1         0.0742
      10    C4      18.156509   18.379871   22.399395 C.3        1 MOL1        -0.1880
      11    H5      17.687568   19.302222   22.030177 H          1 MOL1         0.0742
      12    H6      17.527239   17.559478   22.028021 H          1 MOL1         0.0742
      13    C5      19.570135   18.212066   21.789402 C.3        1 MOL1        -0.1880
      14    H7      20.235304   17.707705   22.503701 H          1 MOL1         0.0742
      15    H8      19.500071   17.547167   20.917748 H          1 MOL1         0.0742
      16    C6      20.189200   19.550087   21.327163 C.3        1 MOL1        -0.1856
      17    H9      20.228000   20.259818   22.162833 H          1 MOL1         0.0742
      18    H10     19.551290   20.004765   20.556897 H          1 MOL1         0.0742
      19    C7      21.609663   19.351296   20.761785 C.3        1 MOL1        -0.2871
      20    H11     22.278286   18.935004   21.526935 H          1 MOL1         0.0754
      21    H12     22.030878   20.308854   20.429372 H          1 MOL1         0.0754
      22    H13     21.600123   18.667107   19.903339 H          1 MOL1         0.0754
@<TRIPOS>BOND
    1     1     2    1
    2     1     3    2
    3     1     4    1
    4     4     5    1
    5     4     6    1
    6     4     7    1
    7     7     8    1
    8     7     9    1
    9     7    10    1
   10    10    11    1
   11    10    12    1
   12    10    13    1
   13    13    14    1
   14    13    15    1
   15    13    16    1
   16    16    17    1
   17    16    18    1
   18    16    19    1
   19    19    20    1
   20    19    21    1
   21    19    22    1
@<TRIPOS>SUBSTRUCTURE
       1 MOL1            1 RESIDUE      1      MOL     
@<SCITEGIC>MOL_PROPERTY
VM2 Rank
SciTegic.value.IntegerValue
75

@<SCITEGIC>MOL_PROPERTY
Conf_Id
SciTegic.value.IntegerValue
531

@<SCITEGIC>MOL_PROPERTY
Probability
SciTegic.value.DoubleValue
0.00

@<SCITEGIC>MOL_PROPERTY
Sum Probability
SciTegic.value.DoubleValue
100.00

@<SCITEGIC>MOL_PROPERTY
Delta G
SciTegic.value.DoubleValue
8.582

@<SCITEGIC>MOL_PROPERTY
G
SciTegic.value.DoubleValue
-8.416

@<SCITEGIC>MOL_PROPERTY
E
SciTegic.value.DoubleValue
-29.090

@<SCITEGIC>MOL_PROPERTY
-TS
SciTegic.value.DoubleValue
20.675

@<SCITEGIC>MOL_PROPERTY
U+W
SciTegic.value.DoubleValue
-46.975

@<SCITEGIC>MOL_PROPERTY
U
SciTegic.value.DoubleValue
15.738

@<SCITEGIC>MOL_PROPERTY
W
SciTegic.value.DoubleValue
-62.713

@<SCITEGIC>MOL_PROPERTY
W(PB)
SciTegic.value.DoubleValue
-64.888

@<SCITEGIC>MOL_PROPERTY
W(SA)
SciTegic.value.DoubleValue
2.174

@<SCITEGIC>MOL_PROPERTY
Valence
SciTegic.value.DoubleValue
12.167

@<SCITEGIC>MOL_PROPERTY
Coulomb
SciTegic.value.DoubleValue
3.362

@<SCITEGIC>MOL_PROPERTY
VdW
SciTegic.value.DoubleValue
0.209

@<SCITEGIC>MOL_PROPERTY
VdW6
SciTegic.value.DoubleValue
-10.463

@<SCITEGIC>MOL_PROPERTY
VdW12
SciTegic.value.DoubleValue
10.672

@<SCITEGIC>MOL_PROPERTY
Bond
SciTegic.value.DoubleValue
0.233

@<SCITEGIC>MOL_PROPERTY
Angle
SciTegic.value.DoubleValue
3.823

@<SCITEGIC>MOL_PROPERTY
Pdih
SciTegic.value.DoubleValue
8.088

@<SCITEGIC>MOL_PROPERTY
Idih
SciTegic.value.DoubleValue
0.022

@<SCITEGIC>MOL_PROPERTY
Tether
SciTegic.value.DoubleValue
0.000

@<TRIPOS>MOLECULE
guest-s21_vm2.mol2 : vm2 ligand conformer 76
          22          21           1
SMALL
USER_CHARGES
 
@<TRIPOS>ATOM
       1    C1      19.591652   19.362199   25.345302 C.2        1 MOL1         0.6145
       2    O1      19.977720   20.513247   25.290196 O.co2      1 MOL1        -0.6735
       3    O2      19.675138   18.673164   26.343098 O.co2      1 MOL1        -0.6735
       4    C2      18.942870   18.754828   24.104403 C.3        1 MOL1        -0.1985
       5    H1      18.656848   19.569773   23.432428 H          1 MOL1         0.0740
       6    H2      18.012776   18.273188   24.427666 H          1 MOL1         0.0740
       7    C3      19.833696   17.713124   23.372166 C.3        1 MOL1        -0.1882
       8    H3      20.149365   16.962060   24.109558 H          1 MOL1         0.0742
       9    H4      19.241527   17.167905   22.625657 H          1 MOL1         0.0742
      10    C4      21.096626   18.314000   22.703503 C.3        1 MOL1        -0.1880
      11    H5      21.901185   17.570200   22.782115 H          1 MOL1         0.0742
      12    H6      21.450237   19.188931   23.265745 H          1 MOL1         0.0742
      13    C5      20.950827   18.674078   21.201303 C.3        1 MOL1        -0.1880
      14    H7      21.948068   18.956966   20.837523 H          1 MOL1         0.0742
      15    H8      20.669327   17.782077   20.625211 H          1 MOL1         0.0742
      16    C6      19.985620   19.842576   20.885398 C.3        1 MOL1        -0.1856
      17    H9      20.392868   20.413283   20.039455 H          1 MOL1         0.0742
      18    H10     19.945625   20.543331   21.730342 H          1 MOL1         0.0742
      19    C7      18.565851   19.371785   20.498632 C.3        1 MOL1        -0.2871
      20    H11     18.096685   18.789524   21.299335 H          1 MOL1         0.0754
      21    H12     18.595378   18.744411   19.598360 H          1 MOL1         0.0754
      22    H13     17.919831   20.233403   20.286629 H          1 MOL1         0.0754
@<TRIPOS>BOND
    1     1     2    1
    2     1     3    2
    3     1     4    1
    4     4     5    1
    5     4     6    1
    6     4     7    1
    7     7     8    1
    8     7     9    1
    9     7    10    1
   10    10    11    1
   11    10    12    1
   12    10    13    1
   13    13    14    1
   14    13    15    1
   15    13    16    1
   16    16    17    1
   17    16    18    1
   18    16    19    1
   19    19    20    1
   20    19    21    1
   21    19    22    1
@<TRIPOS>SUBSTRUCTURE
       1 MOL1            1 RESIDUE      1      MOL     
@<SCITEGIC>MOL_PROPERTY
VM2 Rank
SciTegic.value.IntegerValue
76

@<SCITEGIC>MOL_PROPERTY
Conf_Id
SciTegic.value.IntegerValue
370

@<SCITEGIC>MOL_PROPERTY
Probability
SciTegic.value.DoubleValue
0.00

@<SCITEGIC>MOL_PROPERTY
Sum Probability
SciTegic.value.DoubleValue
100.00

@<SCITEGIC>MOL_PROPERTY
Delta G
SciTegic.value.DoubleValue
8.880

@<SCITEGIC>MOL_PROPERTY
G
SciTegic.value.DoubleValue
-8.118

@<SCITEGIC>MOL_PROPERTY
E
SciTegic.value.DoubleValue
-28.884

@<SCITEGIC>MOL_PROPERTY
-TS
SciTegic.value.DoubleValue
20.766

@<SCITEGIC>MOL_PROPERTY
U+W
SciTegic.value.DoubleValue
-46.769

@<SCITEGIC>MOL_PROPERTY
U
SciTegic.value.DoubleValue
15.181

@<SCITEGIC>MOL_PROPERTY
W
SciTegic.value.DoubleValue
-61.950

@<SCITEGIC>MOL_PROPERTY
W(PB)
SciTegic.value.DoubleValue
-64.115

@<SCITEGIC>MOL_PROPERTY
W(SA)
SciTegic.value.DoubleValue
2.166

@<SCITEGIC>MOL_PROPERTY
Valence
SciTegic.value.DoubleValue
13.025

@<SCITEGIC>MOL_PROPERTY
Coulomb
SciTegic.value.DoubleValue
1.614

@<SCITEGIC>MOL_PROPERTY
VdW
SciTegic.value.DoubleValue
0.542

@<SCITEGIC>MOL_PROPERTY
VdW6
SciTegic.value.DoubleValue
-10.173

@<SCITEGIC>MOL_PROPERTY
VdW12
SciTegic.value.DoubleValue
10.715

@<SCITEGIC>MOL_PROPERTY
Bond
SciTegic.value.DoubleValue
0.264

@<SCITEGIC>MOL_PROPERTY
Angle
SciTegic.value.DoubleValue
3.903

@<SCITEGIC>MOL_PROPERTY
Pdih
SciTegic.value.DoubleValue
8.857

@<SCITEGIC>MOL_PROPERTY
Idih
SciTegic.value.DoubleValue
0.001

@<SCITEGIC>MOL_PROPERTY
Tether
SciTegic.value.DoubleValue
0.000

@<TRIPOS>MOLECULE
guest-s21_vm2.mol2 : vm2 ligand conformer 77
          22          21           1
SMALL
USER_CHARGES
 
@<TRIPOS>ATOM
       1    C1      20.192326   18.825733   25.062055 C.2        1 MOL1         0.6145
       2    O1      20.547965   19.872567   25.567885 O.co2      1 MOL1        -0.6735
       3    O2      20.898755   17.838470   25.006620 O.co2      1 MOL1        -0.6735
       4    C2      18.749161   18.703351   24.571641 C.3        1 MOL1        -0.1985
       5    H1      18.126599   18.645056   25.471765 H          1 MOL1         0.0740
       6    H2      18.630136   17.747931   24.046700 H          1 MOL1         0.0740
       7    C3      18.238682   19.872573   23.681939 C.3        1 MOL1        -0.1882
       8    H3      17.142565   19.893645   23.748440 H          1 MOL1         0.0742
       9    H4      18.580690   20.833177   24.091369 H          1 MOL1         0.0742
      10    C4      18.613641   19.773033   22.181055 C.3        1 MOL1        -0.1880
      11    H5      18.109040   20.596664   21.657901 H          1 MOL1         0.0742
      12    H6      18.193293   18.852293   21.757135 H          1 MOL1         0.0742
      13    C5      20.131929   19.874592   21.882429 C.3        1 MOL1        -0.1880
      14    H7      20.284752   20.534570   21.017719 H          1 MOL1         0.0742
      15    H8      20.642004   20.366944   22.721476 H          1 MOL1         0.0742
      16    C6      20.810238   18.515076   21.588117 C.3        1 MOL1        -0.1856
      17    H9      20.555243   17.786536   22.368146 H          1 MOL1         0.0742
      18    H10     21.899911   18.646966   21.633116 H          1 MOL1         0.0742
      19    C7      20.437304   17.943605   20.202259 C.3        1 MOL1        -0.2871
      20    H11     20.974121   17.004105   20.017893 H          1 MOL1         0.0754
      21    H12     20.704946   18.646980   19.403114 H          1 MOL1         0.0754
      22    H13     19.363148   17.734374   20.127799 H          1 MOL1         0.0754
@<TRIPOS>BOND
    1     1     2    1
    2     1     3    2
    3     1     4    1
    4     4     5    1
    5     4     6    1
    6     4     7    1
    7     7     8    1
    8     7     9    1
    9     7    10    1
   10    10    11    1
   11    10    12    1
   12    10    13    1
   13    13    14    1
   14    13    15    1
   15    13    16    1
   16    16    17    1
   17    16    18    1
   18    16    19    1
   19    19    20    1
   20    19    21    1
   21    19    22    1
@<TRIPOS>SUBSTRUCTURE
       1 MOL1            1 RESIDUE      1      MOL     
@<SCITEGIC>MOL_PROPERTY
VM2 Rank
SciTegic.value.IntegerValue
77

@<SCITEGIC>MOL_PROPERTY
Conf_Id
SciTegic.value.IntegerValue
547

@<SCITEGIC>MOL_PROPERTY
Probability
SciTegic.value.DoubleValue
0.00

@<SCITEGIC>MOL_PROPERTY
Sum Probability
SciTegic.value.DoubleValue
100.00

@<SCITEGIC>MOL_PROPERTY
Delta G
SciTegic.value.DoubleValue
8.963

@<SCITEGIC>MOL_PROPERTY
G
SciTegic.value.DoubleValue
-8.035

@<SCITEGIC>MOL_PROPERTY
E
SciTegic.value.DoubleValue
-28.769

@<SCITEGIC>MOL_PROPERTY
-TS
SciTegic.value.DoubleValue
20.734

@<SCITEGIC>MOL_PROPERTY
U+W
SciTegic.value.DoubleValue
-46.654

@<SCITEGIC>MOL_PROPERTY
U
SciTegic.value.DoubleValue
15.752

@<SCITEGIC>MOL_PROPERTY
W
SciTegic.value.DoubleValue
-62.406

@<SCITEGIC>MOL_PROPERTY
W(PB)
SciTegic.value.DoubleValue
-64.579

@<SCITEGIC>MOL_PROPERTY
W(SA)
SciTegic.value.DoubleValue
2.173

@<SCITEGIC>MOL_PROPERTY
Valence
SciTegic.value.DoubleValue
12.808

@<SCITEGIC>MOL_PROPERTY
Coulomb
SciTegic.value.DoubleValue
2.444

@<SCITEGIC>MOL_PROPERTY
VdW
SciTegic.value.DoubleValue
0.501

@<SCITEGIC>MOL_PROPERTY
VdW6
SciTegic.value.DoubleValue
-10.774

@<SCITEGIC>MOL_PROPERTY
VdW12
SciTegic.value.DoubleValue
11.275

@<SCITEGIC>MOL_PROPERTY
Bond
SciTegic.value.DoubleValue
0.268

@<SCITEGIC>MOL_PROPERTY
Angle
SciTegic.value.DoubleValue
3.894

@<SCITEGIC>MOL_PROPERTY
Pdih
SciTegic.value.DoubleValue
8.629

@<SCITEGIC>MOL_PROPERTY
Idih
SciTegic.value.DoubleValue
0.018

@<SCITEGIC>MOL_PROPERTY
Tether
SciTegic.value.DoubleValue
0.000

@<TRIPOS>MOLECULE
guest-s21_vm2.mol2 : vm2 ligand conformer 78
          22          21           1
SMALL
USER_CHARGES
 
@<TRIPOS>ATOM
       1    C1      20.327499   19.123436   24.933733 C.2        1 MOL1         0.6145
       2    O1      20.942641   20.170622   24.983301 O.co2      1 MOL1        -0.6735
       3    O2      20.838051   18.036349   25.121280 O.co2      1 MOL1        -0.6735
       4    C2      18.809559   19.192515   24.784431 C.3        1 MOL1        -0.1985
       5    H1      18.458283   19.901875   25.542956 H          1 MOL1         0.0740
       6    H2      18.381333   18.218080   25.048328 H          1 MOL1         0.0740
       7    C3      18.294416   19.652526   23.391107 C.3        1 MOL1        -0.1882
       8    H3      17.283982   20.059114   23.532488 H          1 MOL1         0.0742
       9    H4      18.893676   20.489429   23.014546 H          1 MOL1         0.0742
      10    C4      18.188037   18.522573   22.335763 C.3        1 MOL1        -0.1880
      11    H5      17.601881   18.891594   21.483199 H          1 MOL1         0.0742
      12    H6      17.596042   17.703248   22.765798 H          1 MOL1         0.0742
      13    C5      19.520710   17.936971   21.800867 C.3        1 MOL1        -0.1880
      14    H7      20.159714   17.592374   22.622882 H          1 MOL1         0.0742
      15    H8      19.265310   17.030539   21.235368 H          1 MOL1         0.0742
      16    C6      20.308664   18.868476   20.844914 C.3        1 MOL1        -0.1856
      17    H9      19.619803   19.518853   20.288818 H          1 MOL1         0.0742
      18    H10     20.810850   18.244127   20.093105 H          1 MOL1         0.0742
      19    C7      21.390425   19.715532   21.548603 C.3        1 MOL1        -0.2871
      20    H11     20.953605   20.441654   22.242016 H          1 MOL1         0.0754
      21    H12     21.979834   20.275340   20.811293 H          1 MOL1         0.0754
      22    H13     22.079659   19.078079   22.117919 H          1 MOL1         0.0754
@<TRIPOS>BOND
    1     1     2    1
    2     1     3    2
    3     1     4    1
    4     4     5    1
    5     4     6    1
    6     4     7    1
    7     7     8    1
    8     7     9    1
    9     7    10    1
   10    10    11    1
   11    10    12    1
   12    10    13    1
   13    13    14    1
   14    13    15    1
   15    13    16    1
   16    16    17    1
   17    16    18    1
   18    16    19    1
   19    19    20    1
   20    19    21    1
   21    19    22    1
@<TRIPOS>SUBSTRUCTURE
       1 MOL1            1 RESIDUE      1      MOL     
@<SCITEGIC>MOL_PROPERTY
VM2 Rank
SciTegic.value.IntegerValue
78

@<SCITEGIC>MOL_PROPERTY
Conf_Id
SciTegic.value.IntegerValue
348

@<SCITEGIC>MOL_PROPERTY
Probability
SciTegic.value.DoubleValue
0.00

@<SCITEGIC>MOL_PROPERTY
Sum Probability
SciTegic.value.DoubleValue
100.00

@<SCITEGIC>MOL_PROPERTY
Delta G
SciTegic.value.DoubleValue
9.780

@<SCITEGIC>MOL_PROPERTY
G
SciTegic.value.DoubleValue
-7.218

@<SCITEGIC>MOL_PROPERTY
E
SciTegic.value.DoubleValue
-27.829

@<SCITEGIC>MOL_PROPERTY
-TS
SciTegic.value.DoubleValue
20.611

@<SCITEGIC>MOL_PROPERTY
U+W
SciTegic.value.DoubleValue
-45.714

@<SCITEGIC>MOL_PROPERTY
U
SciTegic.value.DoubleValue
16.808

@<SCITEGIC>MOL_PROPERTY
W
SciTegic.value.DoubleValue
-62.522

@<SCITEGIC>MOL_PROPERTY
W(PB)
SciTegic.value.DoubleValue
-64.649

@<SCITEGIC>MOL_PROPERTY
W(SA)
SciTegic.value.DoubleValue
2.127

@<SCITEGIC>MOL_PROPERTY
Valence
SciTegic.value.DoubleValue
13.059

@<SCITEGIC>MOL_PROPERTY
Coulomb
SciTegic.value.DoubleValue
3.862

@<SCITEGIC>MOL_PROPERTY
VdW
SciTegic.value.DoubleValue
-0.113

@<SCITEGIC>MOL_PROPERTY
VdW6
SciTegic.value.DoubleValue
-11.028

@<SCITEGIC>MOL_PROPERTY
VdW12
SciTegic.value.DoubleValue
10.915

@<SCITEGIC>MOL_PROPERTY
Bond
SciTegic.value.DoubleValue
0.270

@<SCITEGIC>MOL_PROPERTY
Angle
SciTegic.value.DoubleValue
4.723

@<SCITEGIC>MOL_PROPERTY
Pdih
SciTegic.value.DoubleValue
8.032

@<SCITEGIC>MOL_PROPERTY
Idih
SciTegic.value.DoubleValue
0.034

@<SCITEGIC>MOL_PROPERTY
Tether
SciTegic.value.DoubleValue
0.000

