VeraChem MOL file


 22 21  0  0  0  0  0  0  0  0999 V2000     
   19.8314   19.1341   26.1875 C   0  0  0  0  0  0  0  0  0  0  0  0
   20.0587   20.2372   26.6434 O   0  5  0  0  0  0  0  0  0  0  0  0
   20.1745   18.0999   26.7251 O   0  0  0  0  0  0  0  0  0  0  0  0
   19.0946   19.0433   24.8559 C   0  0  0  0  0  0  0  0  0  0  0  0
   18.3980   19.8879   24.7937 H   0  0  0  0  0  0  0  0  0  0  0  0
   18.4929   18.1264   24.8613 H   0  0  0  0  0  0  0  0  0  0  0  0
   20.0506   19.0480   23.6377 C   0  0  0  0  0  0  0  0  0  0  0  0
   20.6548   19.9657   23.6541 H   0  0  0  0  0  0  0  0  0  0  0  0
   20.7496   18.2043   23.7217 H   0  0  0  0  0  0  0  0  0  0  0  0
   19.2808   18.9554   22.3025 C   0  0  0  0  0  0  0  0  0  0  0  0
   18.5821   19.7995   22.2223 H   0  0  0  0  0  0  0  0  0  0  0  0
   18.6768   18.0376   22.2898 H   0  0  0  0  0  0  0  0  0  0  0  0
   20.2363   18.9603   21.0900 C   0  0  0  0  0  0  0  0  0  0  0  0
   20.8405   19.8778   21.1023 H   0  0  0  0  0  0  0  0  0  0  0  0
   20.9351   18.1162   21.1698 H   0  0  0  0  0  0  0  0  0  0  0  0
   19.4677   18.8679   19.7552 C   0  0  0  0  0  0  0  0  0  0  0  0
   18.7690   19.7118   19.6708 H   0  0  0  0  0  0  0  0  0  0  0  0
   18.8635   17.9502   19.7382 H   0  0  0  0  0  0  0  0  0  0  0  0
   20.4254   18.8730   18.5468 C   0  0  0  0  0  0  0  0  0  0  0  0
   21.0205   19.7953   18.5213 H   0  0  0  0  0  0  0  0  0  0  0  0
   19.8624   18.8068   17.6067 H   0  0  0  0  0  0  0  0  0  0  0  0
   21.1158   18.0204   18.5892 H   0  0  0  0  0  0  0  0  0  0  0  0
  1  2  1  0  0  0  0
  1  3  2  0  0  0  0
  1  4  1  0  0  0  0
  4  5  1  0  0  0  0
  4  6  1  0  0  0  0
  4  7  1  0  0  0  0
  7  8  1  0  0  0  0
  7  9  1  0  0  0  0
  7 10  1  0  0  0  0
 10 11  1  0  0  0  0
 10 12  1  0  0  0  0
 10 13  1  0  0  0  0
 13 14  1  0  0  0  0
 13 15  1  0  0  0  0
 13 16  1  0  0  0  0
 16 17  1  0  0  0  0
 16 18  1  0  0  0  0
 16 19  1  0  0  0  0
 19 20  1  0  0  0  0
 19 21  1  0  0  0  0
 19 22  1  0  0  0  0
M  END
> <VM2 Rank>
1

> <Conf_Id>
394

> <Probability>
32.50

> <Sum Probability>
32.50

> <Delta G>
0.000

> <G>
-16.998

> <E>
-36.566

> <-TS>
19.568

> <U+W>
-54.451

> <U>
5.779

> <W>
-60.230

> <W(PB)>
-62.557

> <W(SA)>
2.328

> <Valence>
7.101

> <Coulomb>
-2.079

> <VdW>
0.757

> <VdW6>
-6.496

> <VdW12>
7.253

> <Bond>
0.100

> <Angle>
2.262

> <Pdih>
4.739

> <Idih>
0.001

> <Tether>
0.000

$$$$
VeraChem MOL file


 22 21  0  0  0  0  0  0  0  0999 V2000     
   19.7290   18.8549   25.9656 C   0  0  0  0  0  0  0  0  0  0  0  0
   19.2129   19.6430   26.7331 O   0  5  0  0  0  0  0  0  0  0  0  0
   20.5232   18.0022   26.3100 O   0  0  0  0  0  0  0  0  0  0  0  0
   19.3783   18.9570   24.4854 C   0  0  0  0  0  0  0  0  0  0  0  0
   18.3434   19.3104   24.4046 H   0  0  0  0  0  0  0  0  0  0  0  0
   19.4108   17.9456   24.0649 H   0  0  0  0  0  0  0  0  0  0  0  0
   20.3293   19.9034   23.7076 C   0  0  0  0  0  0  0  0  0  0  0  0
   20.3431   20.8804   24.2104 H   0  0  0  0  0  0  0  0  0  0  0  0
   21.3557   19.5145   23.7577 H   0  0  0  0  0  0  0  0  0  0  0  0
   19.9207   20.1122   22.2300 C   0  0  0  0  0  0  0  0  0  0  0  0
   20.5735   20.8804   21.7933 H   0  0  0  0  0  0  0  0  0  0  0  0
   18.8979   20.5106   22.1839 H   0  0  0  0  0  0  0  0  0  0  0  0
   20.0180   18.8259   21.3776 C   0  0  0  0  0  0  0  0  0  0  0  0
   21.0269   18.4007   21.4682 H   0  0  0  0  0  0  0  0  0  0  0  0
   19.3163   18.0713   21.7559 H   0  0  0  0  0  0  0  0  0  0  0  0
   19.7076   19.1024   19.8915 C   0  0  0  0  0  0  0  0  0  0  0  0
   20.4100   19.8506   19.4987 H   0  0  0  0  0  0  0  0  0  0  0  0
   18.6997   19.5298   19.7971 H   0  0  0  0  0  0  0  0  0  0  0  0
   19.8010   17.8181   19.0433 C   0  0  0  0  0  0  0  0  0  0  0  0
   19.0854   17.0628   19.3940 H   0  0  0  0  0  0  0  0  0  0  0  0
   20.8088   17.3857   19.0950 H   0  0  0  0  0  0  0  0  0  0  0  0
   19.5779   18.0330   17.9901 H   0  0  0  0  0  0  0  0  0  0  0  0
  1  2  1  0  0  0  0
  1  3  2  0  0  0  0
  1  4  1  0  0  0  0
  4  5  1  0  0  0  0
  4  6  1  0  0  0  0
  4  7  1  0  0  0  0
  7  8  1  0  0  0  0
  7  9  1  0  0  0  0
  7 10  1  0  0  0  0
 10 11  1  0  0  0  0
 10 12  1  0  0  0  0
 10 13  1  0  0  0  0
 13 14  1  0  0  0  0
 13 15  1  0  0  0  0
 13 16  1  0  0  0  0
 16 17  1  0  0  0  0
 16 18  1  0  0  0  0
 16 19  1  0  0  0  0
 19 20  1  0  0  0  0
 19 21  1  0  0  0  0
 19 22  1  0  0  0  0
M  END
> <VM2 Rank>
2

> <Conf_Id>
231

> <Probability>
8.38

> <Sum Probability>
40.88

> <Delta G>
0.808

> <G>
-16.190

> <E>
-35.867

> <-TS>
19.677

> <U+W>
-53.752

> <U>
6.782

> <W>
-60.534

> <W(PB)>
-62.847

> <W(SA)>
2.313

> <Valence>
7.621

> <Coulomb>
-1.711

> <VdW>
0.872

> <VdW6>
-7.188

> <VdW12>
8.060

> <Bond>
0.142

> <Angle>
2.504

> <Pdih>
4.974

> <Idih>
0.001

> <Tether>
0.000

$$$$
VeraChem MOL file


 22 21  0  0  0  0  0  0  0  0999 V2000     
   20.1334   19.1302   25.9560 C   0  0  0  0  0  0  0  0  0  0  0  0
   19.6138   19.9158   26.7237 O   0  5  0  0  0  0  0  0  0  0  0  0
   20.6479   18.0869   26.3070 O   0  0  0  0  0  0  0  0  0  0  0  0
   20.1189   19.4613   24.4679 C   0  0  0  0  0  0  0  0  0  0  0  0
   21.0341   19.0511   24.0264 H   0  0  0  0  0  0  0  0  0  0  0  0
   20.1662   20.5517   24.3615 H   0  0  0  0  0  0  0  0  0  0  0  0
   18.8654   18.9069   23.7423 C   0  0  0  0  0  0  0  0  0  0  0  0
   18.8531   17.8107   23.8170 H   0  0  0  0  0  0  0  0  0  0  0  0
   17.9680   19.2635   24.2667 H   0  0  0  0  0  0  0  0  0  0  0  0
   18.7730   19.3309   22.2572 C   0  0  0  0  0  0  0  0  0  0  0  0
   18.7755   20.4272   22.1868 H   0  0  0  0  0  0  0  0  0  0  0  0
   17.8054   18.9960   21.8589 H   0  0  0  0  0  0  0  0  0  0  0  0
   19.9060   18.7497   21.3803 C   0  0  0  0  0  0  0  0  0  0  0  0
   20.8770   19.1337   21.7189 H   0  0  0  0  0  0  0  0  0  0  0  0
   19.9350   17.6574   21.4940 H   0  0  0  0  0  0  0  0  0  0  0  0
   19.7145   19.1071   19.8913 C   0  0  0  0  0  0  0  0  0  0  0  0
   19.6831   20.1992   19.7738 H   0  0  0  0  0  0  0  0  0  0  0  0
   18.7487   18.7199   19.5381 H   0  0  0  0  0  0  0  0  0  0  0  0
   20.8471   18.5302   19.0184 C   0  0  0  0  0  0  0  0  0  0  0  0
   21.8229   18.9260   19.3291 H   0  0  0  0  0  0  0  0  0  0  0  0
   20.6948   18.7933   17.9636 H   0  0  0  0  0  0  0  0  0  0  0  0
   20.8816   17.4354   19.0932 H   0  0  0  0  0  0  0  0  0  0  0  0
  1  2  1  0  0  0  0
  1  3  2  0  0  0  0
  1  4  1  0  0  0  0
  4  5  1  0  0  0  0
  4  6  1  0  0  0  0
  4  7  1  0  0  0  0
  7  8  1  0  0  0  0
  7  9  1  0  0  0  0
  7 10  1  0  0  0  0
 10 11  1  0  0  0  0
 10 12  1  0  0  0  0
 10 13  1  0  0  0  0
 13 14  1  0  0  0  0
 13 15  1  0  0  0  0
 13 16  1  0  0  0  0
 16 17  1  0  0  0  0
 16 18  1  0  0  0  0
 16 19  1  0  0  0  0
 19 20  1  0  0  0  0
 19 21  1  0  0  0  0
 19 22  1  0  0  0  0
M  END
> <VM2 Rank>
3

> <Conf_Id>
110

> <Probability>
7.52

> <Sum Probability>
48.40

> <Delta G>
0.873

> <G>
-16.125

> <E>
-35.802

> <-TS>
19.677

> <U+W>
-53.687

> <U>
6.782

> <W>
-60.469

> <W(PB)>
-62.789

> <W(SA)>
2.320

> <Valence>
7.621

> <Coulomb>
-1.711

> <VdW>
0.872

> <VdW6>
-7.188

> <VdW12>
8.060

> <Bond>
0.142

> <Angle>
2.504

> <Pdih>
4.974

> <Idih>
0.001

> <Tether>
0.000

$$$$
VeraChem MOL file


 22 21  0  0  0  0  0  0  0  0999 V2000     
   19.9961   19.0328   25.9874 C   0  0  0  0  0  0  0  0  0  0  0  0
   20.3224   20.0800   26.5104 O   0  5  0  0  0  0  0  0  0  0  0  0
   20.4207   17.9476   26.3318 O   0  0  0  0  0  0  0  0  0  0  0  0
   19.0155   19.0853   24.8213 C   0  0  0  0  0  0  0  0  0  0  0  0
   18.3318   19.9261   24.9890 H   0  0  0  0  0  0  0  0  0  0  0  0
   18.4134   18.1688   24.8408 H   0  0  0  0  0  0  0  0  0  0  0  0
   19.7191   19.2327   23.4497 C   0  0  0  0  0  0  0  0  0  0  0  0
   20.3245   20.1497   23.4494 H   0  0  0  0  0  0  0  0  0  0  0  0
   20.4116   18.3916   23.3142 H   0  0  0  0  0  0  0  0  0  0  0  0
   18.7022   19.2787   22.2857 C   0  0  0  0  0  0  0  0  0  0  0  0
   17.9736   20.0777   22.4798 H   0  0  0  0  0  0  0  0  0  0  0  0
   18.1327   18.3397   22.2536 H   0  0  0  0  0  0  0  0  0  0  0  0
   19.3550   19.5357   20.9068 C   0  0  0  0  0  0  0  0  0  0  0  0
   18.5570   19.6777   20.1652 H   0  0  0  0  0  0  0  0  0  0  0  0
   19.9215   20.4764   20.9373 H   0  0  0  0  0  0  0  0  0  0  0  0
   20.2767   18.3875   20.4374 C   0  0  0  0  0  0  0  0  0  0  0  0
   19.7250   17.4375   20.4573 H   0  0  0  0  0  0  0  0  0  0  0  0
   21.1264   18.2793   21.1242 H   0  0  0  0  0  0  0  0  0  0  0  0
   20.8123   18.6387   19.0134 C   0  0  0  0  0  0  0  0  0  0  0  0
   21.4672   17.8169   18.6960 H   0  0  0  0  0  0  0  0  0  0  0  0
   21.3921   19.5701   18.9710 H   0  0  0  0  0  0  0  0  0  0  0  0
   19.9889   18.7140   18.2911 H   0  0  0  0  0  0  0  0  0  0  0  0
  1  2  1  0  0  0  0
  1  3  2  0  0  0  0
  1  4  1  0  0  0  0
  4  5  1  0  0  0  0
  4  6  1  0  0  0  0
  4  7  1  0  0  0  0
  7  8  1  0  0  0  0
  7  9  1  0  0  0  0
  7 10  1  0  0  0  0
 10 11  1  0  0  0  0
 10 12  1  0  0  0  0
 10 13  1  0  0  0  0
 13 14  1  0  0  0  0
 13 15  1  0  0  0  0
 13 16  1  0  0  0  0
 16 17  1  0  0  0  0
 16 18  1  0  0  0  0
 16 19  1  0  0  0  0
 19 20  1  0  0  0  0
 19 21  1  0  0  0  0
 19 22  1  0  0  0  0
M  END
> <VM2 Rank>
4

> <Conf_Id>
132

> <Probability>
7.46

> <Sum Probability>
55.85

> <Delta G>
0.878

> <G>
-16.120

> <E>
-35.794

> <-TS>
19.673

> <U+W>
-53.679

> <U>
7.026

> <W>
-60.705

> <W(PB)>
-63.009

> <W(SA)>
2.304

> <Valence>
7.638

> <Coulomb>
-1.488

> <VdW>
0.877

> <VdW6>
-7.165

> <VdW12>
8.042

> <Bond>
0.134

> <Angle>
2.513

> <Pdih>
4.990

> <Idih>
0.001

> <Tether>
0.000

$$$$
VeraChem MOL file


 22 21  0  0  0  0  0  0  0  0999 V2000     
   19.6002   19.0277   25.9802 C   0  0  0  0  0  0  0  0  0  0  0  0
   19.2278   20.0659   26.4900 O   0  5  0  0  0  0  0  0  0  0  0  0
   19.1925   17.9317   26.3104 O   0  0  0  0  0  0  0  0  0  0  0  0
   20.6207   19.1060   24.8503 C   0  0  0  0  0  0  0  0  0  0  0  0
   21.2452   18.2055   24.8920 H   0  0  0  0  0  0  0  0  0  0  0  0
   21.2759   19.9642   25.0421 H   0  0  0  0  0  0  0  0  0  0  0  0
   19.9635   19.2358   23.4540 C   0  0  0  0  0  0  0  0  0  0  0  0
   19.2984   18.3770   23.2941 H   0  0  0  0  0  0  0  0  0  0  0  0
   19.3349   20.1367   23.4314 H   0  0  0  0  0  0  0  0  0  0  0  0
   21.0203   19.3085   22.3276 C   0  0  0  0  0  0  0  0  0  0  0  0
   21.6147   18.3846   22.3164 H   0  0  0  0  0  0  0  0  0  0  0  0
   21.7205   20.1260   22.5474 H   0  0  0  0  0  0  0  0  0  0  0  0
   20.4113   19.5493   20.9258 C   0  0  0  0  0  0  0  0  0  0  0  0
   19.8201   20.4752   20.9355 H   0  0  0  0  0  0  0  0  0  0  0  0
   21.2316   19.7122   20.2134 H   0  0  0  0  0  0  0  0  0  0  0  0
   19.5369   18.3780   20.4240 C   0  0  0  0  0  0  0  0  0  0  0  0
   18.6661   18.2477   21.0798 H   0  0  0  0  0  0  0  0  0  0  0  0
   20.1118   17.4425   20.4642 H   0  0  0  0  0  0  0  0  0  0  0  0
   19.0467   18.6161   18.9816 C   0  0  0  0  0  0  0  0  0  0  0  0
   18.4450   19.5323   18.9179 H   0  0  0  0  0  0  0  0  0  0  0  0
   18.4250   17.7779   18.6411 H   0  0  0  0  0  0  0  0  0  0  0  0
   19.8934   18.7129   18.2893 H   0  0  0  0  0  0  0  0  0  0  0  0
  1  2  1  0  0  0  0
  1  3  2  0  0  0  0
  1  4  1  0  0  0  0
  4  5  1  0  0  0  0
  4  6  1  0  0  0  0
  4  7  1  0  0  0  0
  7  8  1  0  0  0  0
  7  9  1  0  0  0  0
  7 10  1  0  0  0  0
 10 11  1  0  0  0  0
 10 12  1  0  0  0  0
 10 13  1  0  0  0  0
 13 14  1  0  0  0  0
 13 15  1  0  0  0  0
 13 16  1  0  0  0  0
 16 17  1  0  0  0  0
 16 18  1  0  0  0  0
 16 19  1  0  0  0  0
 19 20  1  0  0  0  0
 19 21  1  0  0  0  0
 19 22  1  0  0  0  0
M  END
> <VM2 Rank>
5

> <Conf_Id>
494

> <Probability>
7.06

> <Sum Probability>
62.91

> <Delta G>
0.910

> <G>
-16.088

> <E>
-35.761

> <-TS>
19.674

> <U+W>
-53.646

> <U>
7.026

> <W>
-60.672

> <W(PB)>
-62.965

> <W(SA)>
2.292

> <Valence>
7.638

> <Coulomb>
-1.489

> <VdW>
0.877

> <VdW6>
-7.165

> <VdW12>
8.042

> <Bond>
0.134

> <Angle>
2.513

> <Pdih>
4.990

> <Idih>
0.001

> <Tether>
0.000

$$$$
VeraChem MOL file


 22 21  0  0  0  0  0  0  0  0999 V2000     
   19.7329   19.2233   26.0947 C   0  0  0  0  0  0  0  0  0  0  0  0
   20.1388   20.2915   26.5078 O   0  5  0  0  0  0  0  0  0  0  0  0
   19.7906   18.1897   26.7310 O   0  0  0  0  0  0  0  0  0  0  0  0
   19.1379   19.1729   24.6920 C   0  0  0  0  0  0  0  0  0  0  0  0
   18.6462   20.1333   24.4957 H   0  0  0  0  0  0  0  0  0  0  0  0
   18.3587   18.4013   24.6798 H   0  0  0  0  0  0  0  0  0  0  0  0
   20.1960   18.8811   23.5996 C   0  0  0  0  0  0  0  0  0  0  0  0
   20.9752   19.6552   23.6329 H   0  0  0  0  0  0  0  0  0  0  0  0
   20.6881   17.9232   23.8182 H   0  0  0  0  0  0  0  0  0  0  0  0
   19.5687   18.8351   22.1893 C   0  0  0  0  0  0  0  0  0  0  0  0
   19.0740   19.7934   21.9842 H   0  0  0  0  0  0  0  0  0  0  0  0
   18.7918   18.0590   22.1583 H   0  0  0  0  0  0  0  0  0  0  0  0
   20.6295   18.5473   21.1021 C   0  0  0  0  0  0  0  0  0  0  0  0
   21.3808   19.3489   21.0964 H   0  0  0  0  0  0  0  0  0  0  0  0
   21.1635   17.6224   21.3597 H   0  0  0  0  0  0  0  0  0  0  0  0
   20.0307   18.3899   19.6851 C   0  0  0  0  0  0  0  0  0  0  0  0
   19.2833   17.5845   19.6854 H   0  0  0  0  0  0  0  0  0  0  0  0
   20.8280   18.0729   18.9988 H   0  0  0  0  0  0  0  0  0  0  0  0
   19.3950   19.6882   19.1424 C   0  0  0  0  0  0  0  0  0  0  0  0
   18.5177   19.9819   19.7321 H   0  0  0  0  0  0  0  0  0  0  0  0
   19.0659   19.5495   18.1044 H   0  0  0  0  0  0  0  0  0  0  0  0
   20.1158   20.5161   19.1606 H   0  0  0  0  0  0  0  0  0  0  0  0
  1  2  1  0  0  0  0
  1  3  2  0  0  0  0
  1  4  1  0  0  0  0
  4  5  1  0  0  0  0
  4  6  1  0  0  0  0
  4  7  1  0  0  0  0
  7  8  1  0  0  0  0
  7  9  1  0  0  0  0
  7 10  1  0  0  0  0
 10 11  1  0  0  0  0
 10 12  1  0  0  0  0
 10 13  1  0  0  0  0
 13 14  1  0  0  0  0
 13 15  1  0  0  0  0
 13 16  1  0  0  0  0
 16 17  1  0  0  0  0
 16 18  1  0  0  0  0
 16 19  1  0  0  0  0
 19 20  1  0  0  0  0
 19 21  1  0  0  0  0
 19 22  1  0  0  0  0
M  END
> <VM2 Rank>
6

> <Conf_Id>
422

> <Probability>
6.48

> <Sum Probability>
69.39

> <Delta G>
0.962

> <G>
-16.036

> <E>
-35.714

> <-TS>
19.677

> <U+W>
-53.599

> <U>
6.751

> <W>
-60.350

> <W(PB)>
-62.659

> <W(SA)>
2.309

> <Valence>
7.602

> <Coulomb>
-1.744

> <VdW>
0.893

> <VdW6>
-7.110

> <VdW12>
8.004

> <Bond>
0.131

> <Angle>
2.489

> <Pdih>
4.981

> <Idih>
0.001

> <Tether>
0.000

$$$$
VeraChem MOL file


 22 21  0  0  0  0  0  0  0  0999 V2000     
   19.7435   19.0279   26.1022 C   0  0  0  0  0  0  0  0  0  0  0  0
   19.6871   20.1073   26.6573 O   0  5  0  0  0  0  0  0  0  0  0  0
   20.2603   18.0443   26.5941 O   0  0  0  0  0  0  0  0  0  0  0  0
   19.1523   18.9066   24.7022 C   0  0  0  0  0  0  0  0  0  0  0  0
   18.2945   19.5865   24.6344 H   0  0  0  0  0  0  0  0  0  0  0  0
   18.7678   17.8866   24.5819 H   0  0  0  0  0  0  0  0  0  0  0  0
   20.1772   19.2265   23.5863 C   0  0  0  0  0  0  0  0  0  0  0  0
   20.5623   20.2458   23.7291 H   0  0  0  0  0  0  0  0  0  0  0  0
   21.0352   18.5458   23.6755 H   0  0  0  0  0  0  0  0  0  0  0  0
   19.5545   19.0968   22.1793 C   0  0  0  0  0  0  0  0  0  0  0  0
   18.6985   19.7799   22.0923 H   0  0  0  0  0  0  0  0  0  0  0  0
   19.1668   18.0778   22.0500 H   0  0  0  0  0  0  0  0  0  0  0  0
   20.5826   19.4134   21.0689 C   0  0  0  0  0  0  0  0  0  0  0  0
   21.0126   20.4075   21.2529 H   0  0  0  0  0  0  0  0  0  0  0  0
   21.4159   18.6994   21.1214 H   0  0  0  0  0  0  0  0  0  0  0  0
   19.9761   19.3966   19.6465 C   0  0  0  0  0  0  0  0  0  0  0  0
   20.7374   19.7445   18.9347 H   0  0  0  0  0  0  0  0  0  0  0  0
   19.1461   20.1143   19.5884 H   0  0  0  0  0  0  0  0  0  0  0  0
   19.4866   17.9996   19.2071 C   0  0  0  0  0  0  0  0  0  0  0  0
   20.2924   17.2582   19.2856 H   0  0  0  0  0  0  0  0  0  0  0  0
   19.1488   18.0223   18.1629 H   0  0  0  0  0  0  0  0  0  0  0  0
   18.6437   17.6589   19.8212 H   0  0  0  0  0  0  0  0  0  0  0  0
  1  2  1  0  0  0  0
  1  3  2  0  0  0  0
  1  4  1  0  0  0  0
  4  5  1  0  0  0  0
  4  6  1  0  0  0  0
  4  7  1  0  0  0  0
  7  8  1  0  0  0  0
  7  9  1  0  0  0  0
  7 10  1  0  0  0  0
 10 11  1  0  0  0  0
 10 12  1  0  0  0  0
 10 13  1  0  0  0  0
 13 14  1  0  0  0  0
 13 15  1  0  0  0  0
 13 16  1  0  0  0  0
 16 17  1  0  0  0  0
 16 18  1  0  0  0  0
 16 19  1  0  0  0  0
 19 20  1  0  0  0  0
 19 21  1  0  0  0  0
 19 22  1  0  0  0  0
M  END
> <VM2 Rank>
7

> <Conf_Id>
421

> <Probability>
6.12

> <Sum Probability>
75.51

> <Delta G>
0.995

> <G>
-16.003

> <E>
-35.680

> <-TS>
19.677

> <U+W>
-53.565

> <U>
6.751

> <W>
-60.316

> <W(PB)>
-62.638

> <W(SA)>
2.321

> <Valence>
7.602

> <Coulomb>
-1.744

> <VdW>
0.893

> <VdW6>
-7.110

> <VdW12>
8.004

> <Bond>
0.131

> <Angle>
2.489

> <Pdih>
4.982

> <Idih>
0.001

> <Tether>
0.000

$$$$
VeraChem MOL file


 22 21  0  0  0  0  0  0  0  0999 V2000     
   19.9960   19.0181   25.8023 C   0  0  0  0  0  0  0  0  0  0  0  0
   20.5946   19.9818   26.2379 O   0  5  0  0  0  0  0  0  0  0  0  0
   20.3757   17.8720   25.9402 O   0  0  0  0  0  0  0  0  0  0  0  0
   18.6863   19.2617   25.0576 C   0  0  0  0  0  0  0  0  0  0  0  0
   18.1021   19.9780   25.6473 H   0  0  0  0  0  0  0  0  0  0  0  0
   18.1150   18.3257   25.0383 H   0  0  0  0  0  0  0  0  0  0  0  0
   18.8715   19.8058   23.6172 C   0  0  0  0  0  0  0  0  0  0  0  0
   17.8887   20.0805   23.2109 H   0  0  0  0  0  0  0  0  0  0  0  0
   19.4689   20.7275   23.6504 H   0  0  0  0  0  0  0  0  0  0  0  0
   19.5431   18.7803   22.6764 C   0  0  0  0  0  0  0  0  0  0  0  0
   18.9492   17.8562   22.6571 H   0  0  0  0  0  0  0  0  0  0  0  0
   20.5347   18.5134   23.0674 H   0  0  0  0  0  0  0  0  0  0  0  0
   19.6887   19.3308   21.2414 C   0  0  0  0  0  0  0  0  0  0  0  0
   18.6981   19.5958   20.8472 H   0  0  0  0  0  0  0  0  0  0  0  0
   20.2827   20.2549   21.2616 H   0  0  0  0  0  0  0  0  0  0  0  0
   20.3600   18.3076   20.3015 C   0  0  0  0  0  0  0  0  0  0  0  0
   19.7678   17.3823   20.2775 H   0  0  0  0  0  0  0  0  0  0  0  0
   21.3522   18.0416   20.6917 H   0  0  0  0  0  0  0  0  0  0  0  0
   20.5041   18.8610   18.8695 C   0  0  0  0  0  0  0  0  0  0  0  0
   19.5227   19.1061   18.4426 H   0  0  0  0  0  0  0  0  0  0  0  0
   20.9830   18.1210   18.2152 H   0  0  0  0  0  0  0  0  0  0  0  0
   21.1191   19.7704   18.8599 H   0  0  0  0  0  0  0  0  0  0  0  0
  1  2  1  0  0  0  0
  1  3  2  0  0  0  0
  1  4  1  0  0  0  0
  4  5  1  0  0  0  0
  4  6  1  0  0  0  0
  4  7  1  0  0  0  0
  7  8  1  0  0  0  0
  7  9  1  0  0  0  0
  7 10  1  0  0  0  0
 10 11  1  0  0  0  0
 10 12  1  0  0  0  0
 10 13  1  0  0  0  0
 13 14  1  0  0  0  0
 13 15  1  0  0  0  0
 13 16  1  0  0  0  0
 16 17  1  0  0  0  0
 16 18  1  0  0  0  0
 16 19  1  0  0  0  0
 19 20  1  0  0  0  0
 19 21  1  0  0  0  0
 19 22  1  0  0  0  0
M  END
> <VM2 Rank>
8

> <Conf_Id>
134

> <Probability>
2.89

> <Sum Probability>
78.40

> <Delta G>
1.443

> <G>
-15.555

> <E>
-35.435

> <-TS>
19.880

> <U+W>
-53.320

> <U>
7.937

> <W>
-61.257

> <W(PB)>
-63.561

> <W(SA)>
2.304

> <Valence>
7.358

> <Coulomb>
-0.021

> <VdW>
0.600

> <VdW6>
-7.363

> <VdW12>
7.964

> <Bond>
0.121

> <Angle>
2.425

> <Pdih>
4.811

> <Idih>
0.001

> <Tether>
0.000

$$$$
VeraChem MOL file


 22 21  0  0  0  0  0  0  0  0999 V2000     
   19.5407   19.1475   25.7849 C   0  0  0  0  0  0  0  0  0  0  0  0
   19.5087   20.2905   26.1966 O   0  5  0  0  0  0  0  0  0  0  0  0
   18.6069   18.3748   25.8728 O   0  0  0  0  0  0  0  0  0  0  0  0
   20.8317   18.6518   25.1394 C   0  0  0  0  0  0  0  0  0  0  0  0
   20.8257   17.5550   25.1417 H   0  0  0  0  0  0  0  0  0  0  0  0
   21.6618   18.9659   25.7831 H   0  0  0  0  0  0  0  0  0  0  0  0
   21.0621   19.1830   23.7008 C   0  0  0  0  0  0  0  0  0  0  0  0
   21.0374   20.2816   23.7102 H   0  0  0  0  0  0  0  0  0  0  0  0
   22.0684   18.8922   23.3703 H   0  0  0  0  0  0  0  0  0  0  0  0
   20.0201   18.6448   22.6946 C   0  0  0  0  0  0  0  0  0  0  0  0
   19.0115   18.9467   23.0092 H   0  0  0  0  0  0  0  0  0  0  0  0
   20.0394   17.5464   22.6987 H   0  0  0  0  0  0  0  0  0  0  0  0
   20.2872   19.1606   21.2642 C   0  0  0  0  0  0  0  0  0  0  0  0
   20.2678   20.2591   21.2609 H   0  0  0  0  0  0  0  0  0  0  0  0
   21.2942   18.8575   20.9462 H   0  0  0  0  0  0  0  0  0  0  0  0
   19.2466   18.6242   20.2590 C   0  0  0  0  0  0  0  0  0  0  0  0
   18.2380   18.9273   20.5728 H   0  0  0  0  0  0  0  0  0  0  0  0
   19.2641   17.5255   20.2584 H   0  0  0  0  0  0  0  0  0  0  0  0
   19.5162   19.1417   18.8318 C   0  0  0  0  0  0  0  0  0  0  0  0
   19.4734   20.2382   18.7969 H   0  0  0  0  0  0  0  0  0  0  0  0
   18.7674   18.7508   18.1306 H   0  0  0  0  0  0  0  0  0  0  0  0
   20.5072   18.8259   18.4801 H   0  0  0  0  0  0  0  0  0  0  0  0
  1  2  1  0  0  0  0
  1  3  2  0  0  0  0
  1  4  1  0  0  0  0
  4  5  1  0  0  0  0
  4  6  1  0  0  0  0
  4  7  1  0  0  0  0
  7  8  1  0  0  0  0
  7  9  1  0  0  0  0
  7 10  1  0  0  0  0
 10 11  1  0  0  0  0
 10 12  1  0  0  0  0
 10 13  1  0  0  0  0
 13 14  1  0  0  0  0
 13 15  1  0  0  0  0
 13 16  1  0  0  0  0
 16 17  1  0  0  0  0
 16 18  1  0  0  0  0
 16 19  1  0  0  0  0
 19 20  1  0  0  0  0
 19 21  1  0  0  0  0
 19 22  1  0  0  0  0
M  END
> <VM2 Rank>
9

> <Conf_Id>
135

> <Probability>
2.75

> <Sum Probability>
81.15

> <Delta G>
1.473

> <G>
-15.525

> <E>
-35.405

> <-TS>
19.880

> <U+W>
-53.290

> <U>
7.937

> <W>
-61.226

> <W(PB)>
-63.524

> <W(SA)>
2.297

> <Valence>
7.358

> <Coulomb>
-0.021

> <VdW>
0.601

> <VdW6>
-7.363

> <VdW12>
7.964

> <Bond>
0.121

> <Angle>
2.425

> <Pdih>
4.811

> <Idih>
0.000

> <Tether>
0.000

$$$$
VeraChem MOL file


 22 21  0  0  0  0  0  0  0  0999 V2000     
   19.5828   19.1072   25.9231 C   0  0  0  0  0  0  0  0  0  0  0  0
   19.6059   20.2419   26.3573 O   0  5  0  0  0  0  0  0  0  0  0  0
   19.7028   18.1182   26.6189 O   0  0  0  0  0  0  0  0  0  0  0  0
   19.4171   18.9143   24.4200 C   0  0  0  0  0  0  0  0  0  0  0  0
   18.7803   19.7248   24.0478 H   0  0  0  0  0  0  0  0  0  0  0  0
   18.8773   17.9742   24.2550 H   0  0  0  0  0  0  0  0  0  0  0  0
   20.7714   18.8930   23.6647 C   0  0  0  0  0  0  0  0  0  0  0  0
   21.2834   19.8554   23.8024 H   0  0  0  0  0  0  0  0  0  0  0  0
   21.4178   18.1299   24.1200 H   0  0  0  0  0  0  0  0  0  0  0  0
   20.6298   18.5868   22.1547 C   0  0  0  0  0  0  0  0  0  0  0  0
   20.1358   17.6145   22.0286 H   0  0  0  0  0  0  0  0  0  0  0  0
   21.6348   18.4852   21.7231 H   0  0  0  0  0  0  0  0  0  0  0  0
   19.8553   19.6797   21.3784 C   0  0  0  0  0  0  0  0  0  0  0  0
   18.8104   19.7114   21.7135 H   0  0  0  0  0  0  0  0  0  0  0  0
   20.2893   20.6612   21.6129 H   0  0  0  0  0  0  0  0  0  0  0  0
   19.8892   19.4803   19.8453 C   0  0  0  0  0  0  0  0  0  0  0  0
   20.9308   19.4641   19.4958 H   0  0  0  0  0  0  0  0  0  0  0  0
   19.4147   20.3476   19.3660 H   0  0  0  0  0  0  0  0  0  0  0  0
   19.1657   18.1975   19.3815 C   0  0  0  0  0  0  0  0  0  0  0  0
   19.1436   18.1441   18.2853 H   0  0  0  0  0  0  0  0  0  0  0  0
   18.1290   18.1791   19.7419 H   0  0  0  0  0  0  0  0  0  0  0  0
   19.6739   17.2967   19.7479 H   0  0  0  0  0  0  0  0  0  0  0  0
  1  2  1  0  0  0  0
  1  3  2  0  0  0  0
  1  4  1  0  0  0  0
  4  5  1  0  0  0  0
  4  6  1  0  0  0  0
  4  7  1  0  0  0  0
  7  8  1  0  0  0  0
  7  9  1  0  0  0  0
  7 10  1  0  0  0  0
 10 11  1  0  0  0  0
 10 12  1  0  0  0  0
 10 13  1  0  0  0  0
 13 14  1  0  0  0  0
 13 15  1  0  0  0  0
 13 16  1  0  0  0  0
 16 17  1  0  0  0  0
 16 18  1  0  0  0  0
 16 19  1  0  0  0  0
 19 20  1  0  0  0  0
 19 21  1  0  0  0  0
 19 22  1  0  0  0  0
M  END
> <VM2 Rank>
10

> <Conf_Id>
297

> <Probability>
1.65

> <Sum Probability>
82.80

> <Delta G>
1.777

> <G>
-15.221

> <E>
-35.031

> <-TS>
19.810

> <U+W>
-52.916

> <U>
7.600

> <W>
-60.516

> <W(PB)>
-62.800

> <W(SA)>
2.284

> <Valence>
8.094

> <Coulomb>
-1.473

> <VdW>
0.979

> <VdW6>
-7.827

> <VdW12>
8.806

> <Bond>
0.173

> <Angle>
2.687

> <Pdih>
5.233

> <Idih>
0.001

> <Tether>
0.000

$$$$
VeraChem MOL file


 22 21  0  0  0  0  0  0  0  0999 V2000     
   19.8254   19.1168   26.2070 C   0  0  0  0  0  0  0  0  0  0  0  0
   20.5310   20.1068   26.2306 O   0  5  0  0  0  0  0  0  0  0  0  0
   19.4086   18.5752   27.2114 O   0  0  0  0  0  0  0  0  0  0  0  0
   19.4267   18.5007   24.8650 C   0  0  0  0  0  0  0  0  0  0  0  0
   18.3312   18.4811   24.8268 H   0  0  0  0  0  0  0  0  0  0  0  0
   19.7664   17.4584   24.8699 H   0  0  0  0  0  0  0  0  0  0  0  0
   19.9822   19.2273   23.6112 C   0  0  0  0  0  0  0  0  0  0  0  0
   19.6433   20.2726   23.6157 H   0  0  0  0  0  0  0  0  0  0  0  0
   21.0798   19.2488   23.6588 H   0  0  0  0  0  0  0  0  0  0  0  0
   19.5322   18.5409   22.3032 C   0  0  0  0  0  0  0  0  0  0  0  0
   18.4346   18.5207   22.2579 H   0  0  0  0  0  0  0  0  0  0  0  0
   19.8719   17.4961   22.3011 H   0  0  0  0  0  0  0  0  0  0  0  0
   20.0859   19.2652   21.0574 C   0  0  0  0  0  0  0  0  0  0  0  0
   19.7464   20.3102   21.0591 H   0  0  0  0  0  0  0  0  0  0  0  0
   21.1835   19.2857   21.1022 H   0  0  0  0  0  0  0  0  0  0  0  0
   19.6365   18.5799   19.7499 C   0  0  0  0  0  0  0  0  0  0  0  0
   18.5390   18.5594   19.7006 H   0  0  0  0  0  0  0  0  0  0  0  0
   19.9760   17.5348   19.7437 H   0  0  0  0  0  0  0  0  0  0  0  0
   20.1916   19.3061   18.5082 C   0  0  0  0  0  0  0  0  0  0  0  0
   19.8416   20.3461   18.4723 H   0  0  0  0  0  0  0  0  0  0  0  0
   19.8625   18.8059   17.5881 H   0  0  0  0  0  0  0  0  0  0  0  0
   21.2895   19.3138   18.5158 H   0  0  0  0  0  0  0  0  0  0  0  0
  1  2  1  0  0  0  0
  1  3  2  0  0  0  0
  1  4  1  0  0  0  0
  4  5  1  0  0  0  0
  4  6  1  0  0  0  0
  4  7  1  0  0  0  0
  7  8  1  0  0  0  0
  7  9  1  0  0  0  0
  7 10  1  0  0  0  0
 10 11  1  0  0  0  0
 10 12  1  0  0  0  0
 10 13  1  0  0  0  0
 13 14  1  0  0  0  0
 13 15  1  0  0  0  0
 13 16  1  0  0  0  0
 16 17  1  0  0  0  0
 16 18  1  0  0  0  0
 16 19  1  0  0  0  0
 19 20  1  0  0  0  0
 19 21  1  0  0  0  0
 19 22  1  0  0  0  0
M  END
> <VM2 Rank>
11

> <Conf_Id>
0

> <Probability>
1.57

> <Sum Probability>
84.36

> <Delta G>
1.808

> <G>
-15.190

> <E>
-35.274

> <-TS>
20.084

> <U+W>
-53.159

> <U>
6.763

> <W>
-59.922

> <W(PB)>
-62.256

> <W(SA)>
2.334

> <Valence>
7.600

> <Coulomb>
-2.139

> <VdW>
1.302

> <VdW6>
-6.786

> <VdW12>
8.088

> <Bond>
0.134

> <Angle>
2.720

> <Pdih>
4.746

> <Idih>
0.000

> <Tether>
0.000

$$$$
VeraChem MOL file


 22 21  0  0  0  0  0  0  0  0999 V2000     
   19.7290   19.2105   25.9882 C   0  0  0  0  0  0  0  0  0  0  0  0
   20.0549   20.3279   26.3374 O   0  5  0  0  0  0  0  0  0  0  0  0
   19.7207   18.2491   26.7314 O   0  0  0  0  0  0  0  0  0  0  0  0
   19.3301   18.9984   24.5322 C   0  0  0  0  0  0  0  0  0  0  0  0
   18.8410   19.9152   24.1846 H   0  0  0  0  0  0  0  0  0  0  0  0
   18.5825   18.1970   24.4978 H   0  0  0  0  0  0  0  0  0  0  0  0
   20.5373   18.6432   23.6255 C   0  0  0  0  0  0  0  0  0  0  0  0
   21.2567   19.4737   23.6290 H   0  0  0  0  0  0  0  0  0  0  0  0
   21.0597   17.7792   24.0593 H   0  0  0  0  0  0  0  0  0  0  0  0
   20.1408   18.3006   22.1694 C   0  0  0  0  0  0  0  0  0  0  0  0
   19.4155   17.4756   22.1700 H   0  0  0  0  0  0  0  0  0  0  0  0
   21.0348   17.9289   21.6528 H   0  0  0  0  0  0  0  0  0  0  0  0
   19.5606   19.5062   21.3898 C   0  0  0  0  0  0  0  0  0  0  0  0
   18.6646   19.8769   21.9036 H   0  0  0  0  0  0  0  0  0  0  0  0
   20.2852   20.3319   21.3910 H   0  0  0  0  0  0  0  0  0  0  0  0
   19.1688   19.1644   19.9332 C   0  0  0  0  0  0  0  0  0  0  0  0
   18.6443   20.0268   19.4990 H   0  0  0  0  0  0  0  0  0  0  0  0
   18.4527   18.3311   19.9271 H   0  0  0  0  0  0  0  0  0  0  0  0
   20.3777   18.8186   19.0369 C   0  0  0  0  0  0  0  0  0  0  0  0
   21.1236   19.6239   19.0550 H   0  0  0  0  0  0  0  0  0  0  0  0
   20.0562   18.6796   17.9966 H   0  0  0  0  0  0  0  0  0  0  0  0
   20.8647   17.8901   19.3597 H   0  0  0  0  0  0  0  0  0  0  0  0
  1  2  1  0  0  0  0
  1  3  2  0  0  0  0
  1  4  1  0  0  0  0
  4  5  1  0  0  0  0
  4  6  1  0  0  0  0
  4  7  1  0  0  0  0
  7  8  1  0  0  0  0
  7  9  1  0  0  0  0
  7 10  1  0  0  0  0
 10 11  1  0  0  0  0
 10 12  1  0  0  0  0
 10 13  1  0  0  0  0
 13 14  1  0  0  0  0
 13 15  1  0  0  0  0
 13 16  1  0  0  0  0
 16 17  1  0  0  0  0
 16 18  1  0  0  0  0
 16 19  1  0  0  0  0
 19 20  1  0  0  0  0
 19 21  1  0  0  0  0
 19 22  1  0  0  0  0
M  END
> <VM2 Rank>
12

> <Conf_Id>
535

> <Probability>
1.56

> <Sum Probability>
85.93

> <Delta G>
1.809

> <G>
-15.190

> <E>
-34.925

> <-TS>
19.735

> <U+W>
-52.810

> <U>
7.689

> <W>
-60.499

> <W(PB)>
-62.767

> <W(SA)>
2.268

> <Valence>
8.197

> <Coulomb>
-1.561

> <VdW>
1.053

> <VdW6>
-7.737

> <VdW12>
8.790

> <Bond>
0.181

> <Angle>
2.780

> <Pdih>
5.235

> <Idih>
0.001

> <Tether>
0.000

$$$$
VeraChem MOL file


 22 21  0  0  0  0  0  0  0  0999 V2000     
   19.5825   19.1135   25.9229 C   0  0  0  0  0  0  0  0  0  0  0  0
   19.5921   20.1599   26.5405 O   0  5  0  0  0  0  0  0  0  0  0  0
   19.7261   18.0244   26.4424 O   0  0  0  0  0  0  0  0  0  0  0  0
   19.4030   19.1719   24.4101 C   0  0  0  0  0  0  0  0  0  0  0  0
   18.7650   20.0325   24.1761 H   0  0  0  0  0  0  0  0  0  0  0  0
   18.8596   18.2710   24.1036 H   0  0  0  0  0  0  0  0  0  0  0  0
   20.7501   19.2824   23.6498 C   0  0  0  0  0  0  0  0  0  0  0  0
   21.3079   20.1437   24.0428 H   0  0  0  0  0  0  0  0  0  0  0  0
   21.3630   18.3947   23.8585 H   0  0  0  0  0  0  0  0  0  0  0  0
   20.5825   19.4552   22.1214 C   0  0  0  0  0  0  0  0  0  0  0  0
   21.5723   19.6320   21.6791 H   0  0  0  0  0  0  0  0  0  0  0  0
   19.9863   20.3556   21.9235 H   0  0  0  0  0  0  0  0  0  0  0  0
   19.9345   18.2286   21.4340 C   0  0  0  0  0  0  0  0  0  0  0  0
   20.4716   17.3208   21.7410 H   0  0  0  0  0  0  0  0  0  0  0  0
   18.8978   18.1093   21.7749 H   0  0  0  0  0  0  0  0  0  0  0  0
   19.9529   18.3129   19.8901 C   0  0  0  0  0  0  0  0  0  0  0  0
   19.5775   17.3650   19.4804 H   0  0  0  0  0  0  0  0  0  0  0  0
   20.9880   18.4155   19.5360 H   0  0  0  0  0  0  0  0  0  0  0  0
   19.0962   19.4703   19.3327 C   0  0  0  0  0  0  0  0  0  0  0  0
   19.5019   20.4462   19.6271 H   0  0  0  0  0  0  0  0  0  0  0  0
   18.0621   19.4033   19.6950 H   0  0  0  0  0  0  0  0  0  0  0  0
   19.0730   19.4371   18.2358 H   0  0  0  0  0  0  0  0  0  0  0  0
  1  2  1  0  0  0  0
  1  3  2  0  0  0  0
  1  4  1  0  0  0  0
  4  5  1  0  0  0  0
  4  6  1  0  0  0  0
  4  7  1  0  0  0  0
  7  8  1  0  0  0  0
  7  9  1  0  0  0  0
  7 10  1  0  0  0  0
 10 11  1  0  0  0  0
 10 12  1  0  0  0  0
 10 13  1  0  0  0  0
 13 14  1  0  0  0  0
 13 15  1  0  0  0  0
 13 16  1  0  0  0  0
 16 17  1  0  0  0  0
 16 18  1  0  0  0  0
 16 19  1  0  0  0  0
 19 20  1  0  0  0  0
 19 21  1  0  0  0  0
 19 22  1  0  0  0  0
M  END
> <VM2 Rank>
13

> <Conf_Id>
89

> <Probability>
1.56

> <Sum Probability>
87.49

> <Delta G>
1.810

> <G>
-15.188

> <E>
-34.998

> <-TS>
19.810

> <U+W>
-52.883

> <U>
7.600

> <W>
-60.483

> <W(PB)>
-62.769

> <W(SA)>
2.286

> <Valence>
8.094

> <Coulomb>
-1.473

> <VdW>
0.979

> <VdW6>
-7.827

> <VdW12>
8.806

> <Bond>
0.173

> <Angle>
2.687

> <Pdih>
5.233

> <Idih>
0.001

> <Tether>
0.000

$$$$
VeraChem MOL file


 22 21  0  0  0  0  0  0  0  0999 V2000     
   19.7386   19.0320   25.9951 C   0  0  0  0  0  0  0  0  0  0  0  0
   19.6239   20.0408   26.6627 O   0  5  0  0  0  0  0  0  0  0  0  0
   20.1815   17.9862   26.4271 O   0  0  0  0  0  0  0  0  0  0  0  0
   19.3253   19.0882   24.5287 C   0  0  0  0  0  0  0  0  0  0  0  0
   18.4958   19.7995   24.4363 H   0  0  0  0  0  0  0  0  0  0  0  0
   18.9392   18.1002   24.2542 H   0  0  0  0  0  0  0  0  0  0  0  0
   20.4910   19.5010   23.5926 C   0  0  0  0  0  0  0  0  0  0  0  0
   20.9154   20.4468   23.9570 H   0  0  0  0  0  0  0  0  0  0  0  0
   21.2956   18.7555   23.6566 H   0  0  0  0  0  0  0  0  0  0  0  0
   20.0660   19.6867   22.1163 C   0  0  0  0  0  0  0  0  0  0  0  0
   20.9169   20.1119   21.5691 H   0  0  0  0  0  0  0  0  0  0  0  0
   19.2561   20.4265   22.0568 H   0  0  0  0  0  0  0  0  0  0  0  0
   19.6220   18.3696   21.4335 C   0  0  0  0  0  0  0  0  0  0  0  0
   20.4312   17.6293   21.4948 H   0  0  0  0  0  0  0  0  0  0  0  0
   18.7690   17.9451   21.9777 H   0  0  0  0  0  0  0  0  0  0  0  0
   19.2017   18.5550   19.9566 C   0  0  0  0  0  0  0  0  0  0  0  0
   18.4002   19.3036   19.8898 H   0  0  0  0  0  0  0  0  0  0  0  0
   18.7748   17.6106   19.5918 H   0  0  0  0  0  0  0  0  0  0  0  0
   20.3701   18.9594   19.0315 C   0  0  0  0  0  0  0  0  0  0  0  0
   20.0398   18.9831   17.9849 H   0  0  0  0  0  0  0  0  0  0  0  0
   21.1982   18.2428   19.1080 H   0  0  0  0  0  0  0  0  0  0  0  0
   20.7531   19.9568   19.2804 H   0  0  0  0  0  0  0  0  0  0  0  0
  1  2  1  0  0  0  0
  1  3  2  0  0  0  0
  1  4  1  0  0  0  0
  4  5  1  0  0  0  0
  4  6  1  0  0  0  0
  4  7  1  0  0  0  0
  7  8  1  0  0  0  0
  7  9  1  0  0  0  0
  7 10  1  0  0  0  0
 10 11  1  0  0  0  0
 10 12  1  0  0  0  0
 10 13  1  0  0  0  0
 13 14  1  0  0  0  0
 13 15  1  0  0  0  0
 13 16  1  0  0  0  0
 16 17  1  0  0  0  0
 16 18  1  0  0  0  0
 16 19  1  0  0  0  0
 19 20  1  0  0  0  0
 19 21  1  0  0  0  0
 19 22  1  0  0  0  0
M  END
> <VM2 Rank>
14

> <Conf_Id>
125

> <Probability>
1.49

> <Sum Probability>
88.98

> <Delta G>
1.836

> <G>
-15.162

> <E>
-34.896

> <-TS>
19.735

> <U+W>
-52.781

> <U>
7.689

> <W>
-60.471

> <W(PB)>
-62.780

> <W(SA)>
2.309

> <Valence>
8.196

> <Coulomb>
-1.561

> <VdW>
1.054

> <VdW6>
-7.737

> <VdW12>
8.791

> <Bond>
0.181

> <Angle>
2.780

> <Pdih>
5.235

> <Idih>
0.001

> <Tether>
0.000

$$$$
VeraChem MOL file


 22 21  0  0  0  0  0  0  0  0999 V2000     
   19.9221   18.7600   25.6882 C   0  0  0  0  0  0  0  0  0  0  0  0
   19.5011   19.3875   26.6399 O   0  5  0  0  0  0  0  0  0  0  0  0
   20.8465   17.9742   25.7564 O   0  0  0  0  0  0  0  0  0  0  0  0
   19.2689   18.9880   24.3299 C   0  0  0  0  0  0  0  0  0  0  0  0
   18.2113   19.2256   24.4954 H   0  0  0  0  0  0  0  0  0  0  0  0
   19.3082   18.0418   23.7782 H   0  0  0  0  0  0  0  0  0  0  0  0
   19.9511   20.1196   23.5184 C   0  0  0  0  0  0  0  0  0  0  0  0
   19.9765   21.0292   24.1342 H   0  0  0  0  0  0  0  0  0  0  0  0
   20.9993   19.8540   23.3275 H   0  0  0  0  0  0  0  0  0  0  0  0
   19.2314   20.4469   22.1857 C   0  0  0  0  0  0  0  0  0  0  0  0
   19.7599   21.2747   21.6936 H   0  0  0  0  0  0  0  0  0  0  0  0
   18.2233   20.8217   22.4093 H   0  0  0  0  0  0  0  0  0  0  0  0
   19.1123   19.2659   21.1897 C   0  0  0  0  0  0  0  0  0  0  0  0
   18.4907   18.4709   21.6220 H   0  0  0  0  0  0  0  0  0  0  0  0
   18.5762   19.6190   20.2983 H   0  0  0  0  0  0  0  0  0  0  0  0
   20.4766   18.6841   20.7563 C   0  0  0  0  0  0  0  0  0  0  0  0
   20.9953   18.2539   21.6234 H   0  0  0  0  0  0  0  0  0  0  0  0
   21.1154   19.4882   20.3660 H   0  0  0  0  0  0  0  0  0  0  0  0
   20.3100   17.5929   19.6796 C   0  0  0  0  0  0  0  0  0  0  0  0
   19.6972   16.7626   20.0543 H   0  0  0  0  0  0  0  0  0  0  0  0
   21.2868   17.1875   19.3855 H   0  0  0  0  0  0  0  0  0  0  0  0
   19.8267   17.9977   18.7808 H   0  0  0  0  0  0  0  0  0  0  0  0
  1  2  1  0  0  0  0
  1  3  2  0  0  0  0
  1  4  1  0  0  0  0
  4  5  1  0  0  0  0
  4  6  1  0  0  0  0
  4  7  1  0  0  0  0
  7  8  1  0  0  0  0
  7  9  1  0  0  0  0
  7 10  1  0  0  0  0
 10 11  1  0  0  0  0
 10 12  1  0  0  0  0
 10 13  1  0  0  0  0
 13 14  1  0  0  0  0
 13 15  1  0  0  0  0
 13 16  1  0  0  0  0
 16 17  1  0  0  0  0
 16 18  1  0  0  0  0
 16 19  1  0  0  0  0
 19 20  1  0  0  0  0
 19 21  1  0  0  0  0
 19 22  1  0  0  0  0
M  END
> <VM2 Rank>
15

> <Conf_Id>
553

> <Probability>
1.32

> <Sum Probability>
90.30

> <Delta G>
1.912

> <G>
-15.086

> <E>
-35.091

> <-TS>
20.005

> <U+W>
-52.976

> <U>
8.061

> <W>
-61.037

> <W(PB)>
-63.311

> <W(SA)>
2.273

> <Valence>
8.062

> <Coulomb>
-0.784

> <VdW>
0.783

> <VdW6>
-8.229

> <VdW12>
9.011

> <Bond>
0.183

> <Angle>
2.910

> <Pdih>
4.970

> <Idih>
0.001

> <Tether>
0.000

$$$$
VeraChem MOL file


 22 21  0  0  0  0  0  0  0  0999 V2000     
   19.9998   18.9457   25.8522 C   0  0  0  0  0  0  0  0  0  0  0  0
   20.0428   19.9724   26.5007 O   0  5  0  0  0  0  0  0  0  0  0  0
   20.6760   17.9662   26.0972 O   0  0  0  0  0  0  0  0  0  0  0  0
   19.0587   18.8898   24.6542 C   0  0  0  0  0  0  0  0  0  0  0  0
   18.1791   19.5034   24.8832 H   0  0  0  0  0  0  0  0  0  0  0  0
   18.7122   17.8555   24.5406 H   0  0  0  0  0  0  0  0  0  0  0  0
   19.7240   19.3765   23.3432 C   0  0  0  0  0  0  0  0  0  0  0  0
   20.0735   20.4097   23.4747 H   0  0  0  0  0  0  0  0  0  0  0  0
   20.6111   18.7602   23.1455 H   0  0  0  0  0  0  0  0  0  0  0  0
   18.7504   19.3034   22.1443 C   0  0  0  0  0  0  0  0  0  0  0  0
   17.8372   19.8616   22.3918 H   0  0  0  0  0  0  0  0  0  0  0  0
   18.4370   18.2636   21.9832 H   0  0  0  0  0  0  0  0  0  0  0  0
   19.3379   19.8875   20.8350 C   0  0  0  0  0  0  0  0  0  0  0  0
   18.5672   19.8444   20.0534 H   0  0  0  0  0  0  0  0  0  0  0  0
   19.5552   20.9535   20.9873 H   0  0  0  0  0  0  0  0  0  0  0  0
   20.6176   19.1881   20.3135 C   0  0  0  0  0  0  0  0  0  0  0  0
   21.4365   19.3087   21.0349 H   0  0  0  0  0  0  0  0  0  0  0  0
   20.9446   19.6967   19.3962 H   0  0  0  0  0  0  0  0  0  0  0  0
   20.4128   17.6894   20.0037 C   0  0  0  0  0  0  0  0  0  0  0  0
   21.3176   17.2635   19.5513 H   0  0  0  0  0  0  0  0  0  0  0  0
   19.5819   17.5432   19.3015 H   0  0  0  0  0  0  0  0  0  0  0  0
   20.1978   17.1197   20.9165 H   0  0  0  0  0  0  0  0  0  0  0  0
  1  2  1  0  0  0  0
  1  3  2  0  0  0  0
  1  4  1  0  0  0  0
  4  5  1  0  0  0  0
  4  6  1  0  0  0  0
  4  7  1  0  0  0  0
  7  8  1  0  0  0  0
  7  9  1  0  0  0  0
  7 10  1  0  0  0  0
 10 11  1  0  0  0  0
 10 12  1  0  0  0  0
 10 13  1  0  0  0  0
 13 14  1  0  0  0  0
 13 15  1  0  0  0  0
 13 16  1  0  0  0  0
 16 17  1  0  0  0  0
 16 18  1  0  0  0  0
 16 19  1  0  0  0  0
 19 20  1  0  0  0  0
 19 21  1  0  0  0  0
 19 22  1  0  0  0  0
M  END
> <VM2 Rank>
16

> <Conf_Id>
190

> <Probability>
1.18

> <Sum Probability>
91.48

> <Delta G>
1.977

> <G>
-15.021

> <E>
-34.995

> <-TS>
19.974

> <U+W>
-52.880

> <U>
8.104

> <W>
-60.984

> <W(PB)>
-63.231

> <W(SA)>
2.248

> <Valence>
8.053

> <Coulomb>
-0.790

> <VdW>
0.841

> <VdW6>
-8.065

> <VdW12>
8.906

> <Bond>
0.172

> <Angle>
2.892

> <Pdih>
4.988

> <Idih>
0.000

> <Tether>
0.000

$$$$
VeraChem MOL file


 22 21  0  0  0  0  0  0  0  0999 V2000     
   19.9800   19.3133   25.8381 C   0  0  0  0  0  0  0  0  0  0  0  0
   20.5455   20.3758   26.0051 O   0  5  0  0  0  0  0  0  0  0  0  0
   20.1310   18.3496   26.5626 O   0  0  0  0  0  0  0  0  0  0  0  0
   19.0432   19.1760   24.6432 C   0  0  0  0  0  0  0  0  0  0  0  0
   18.5879   20.1553   24.4525 H   0  0  0  0  0  0  0  0  0  0  0  0
   18.2338   18.4907   24.9221 H   0  0  0  0  0  0  0  0  0  0  0  0
   19.7623   18.6651   23.3704 C   0  0  0  0  0  0  0  0  0  0  0  0
   20.5788   19.3562   23.1226 H   0  0  0  0  0  0  0  0  0  0  0  0
   20.2204   17.6884   23.5790 H   0  0  0  0  0  0  0  0  0  0  0  0
   18.7914   18.5413   22.1735 C   0  0  0  0  0  0  0  0  0  0  0  0
   18.3689   19.5261   21.9348 H   0  0  0  0  0  0  0  0  0  0  0  0
   17.9424   17.9089   22.4667 H   0  0  0  0  0  0  0  0  0  0  0  0
   19.4437   17.9254   20.9102 C   0  0  0  0  0  0  0  0  0  0  0  0
   19.7735   16.9037   21.1426 H   0  0  0  0  0  0  0  0  0  0  0  0
   18.6760   17.8258   20.1308 H   0  0  0  0  0  0  0  0  0  0  0  0
   20.6430   18.7163   20.3316 C   0  0  0  0  0  0  0  0  0  0  0  0
   21.0264   18.1771   19.4545 H   0  0  0  0  0  0  0  0  0  0  0  0
   21.4671   18.7396   21.0567 H   0  0  0  0  0  0  0  0  0  0  0  0
   20.2799   20.1563   19.9092 C   0  0  0  0  0  0  0  0  0  0  0  0
   21.1356   20.6410   19.4219 H   0  0  0  0  0  0  0  0  0  0  0  0
   20.0013   20.7677   20.7768 H   0  0  0  0  0  0  0  0  0  0  0  0
   19.4409   20.1585   19.2014 H   0  0  0  0  0  0  0  0  0  0  0  0
  1  2  1  0  0  0  0
  1  3  2  0  0  0  0
  1  4  1  0  0  0  0
  4  5  1  0  0  0  0
  4  6  1  0  0  0  0
  4  7  1  0  0  0  0
  7  8  1  0  0  0  0
  7  9  1  0  0  0  0
  7 10  1  0  0  0  0
 10 11  1  0  0  0  0
 10 12  1  0  0  0  0
 10 13  1  0  0  0  0
 13 14  1  0  0  0  0
 13 15  1  0  0  0  0
 13 16  1  0  0  0  0
 16 17  1  0  0  0  0
 16 18  1  0  0  0  0
 16 19  1  0  0  0  0
 19 20  1  0  0  0  0
 19 21  1  0  0  0  0
 19 22  1  0  0  0  0
M  END
> <VM2 Rank>
17

> <Conf_Id>
181

> <Probability>
1.13

> <Sum Probability>
92.61

> <Delta G>
2.002

> <G>
-14.997

> <E>
-34.971

> <-TS>
19.974

> <U+W>
-52.855

> <U>
8.104

> <W>
-60.959

> <W(PB)>
-63.217

> <W(SA)>
2.258

> <Valence>
8.053

> <Coulomb>
-0.790

> <VdW>
0.841

> <VdW6>
-8.065

> <VdW12>
8.906

> <Bond>
0.172

> <Angle>
2.891

> <Pdih>
4.988

> <Idih>
0.000

> <Tether>
0.000

$$$$
VeraChem MOL file


 22 21  0  0  0  0  0  0  0  0999 V2000     
   19.5977   19.2734   25.6792 C   0  0  0  0  0  0  0  0  0  0  0  0
   19.4196   20.4668   25.8236 O   0  5  0  0  0  0  0  0  0  0  0  0
   18.8100   18.4261   26.0516 O   0  0  0  0  0  0  0  0  0  0  0  0
   20.8919   18.8150   25.0129 C   0  0  0  0  0  0  0  0  0  0  0  0
   21.0672   17.7644   25.2744 H   0  0  0  0  0  0  0  0  0  0  0  0
   21.7117   19.3930   25.4555 H   0  0  0  0  0  0  0  0  0  0  0  0
   20.9046   18.9938   23.4725 C   0  0  0  0  0  0  0  0  0  0  0  0
   20.7081   20.0478   23.2354 H   0  0  0  0  0  0  0  0  0  0  0  0
   21.9104   18.7651   23.0951 H   0  0  0  0  0  0  0  0  0  0  0  0
   19.8735   18.0843   22.7626 C   0  0  0  0  0  0  0  0  0  0  0  0
   18.8569   18.3527   23.0818 H   0  0  0  0  0  0  0  0  0  0  0  0
   20.0337   17.0457   23.0826 H   0  0  0  0  0  0  0  0  0  0  0  0
   19.9609   18.1418   21.2190 C   0  0  0  0  0  0  0  0  0  0  0  0
   20.9744   17.8662   20.8969 H   0  0  0  0  0  0  0  0  0  0  0  0
   19.2856   17.3814   20.8038 H   0  0  0  0  0  0  0  0  0  0  0  0
   19.5845   19.5210   20.6322 C   0  0  0  0  0  0  0  0  0  0  0  0
   20.2956   20.2845   20.9739 H   0  0  0  0  0  0  0  0  0  0  0  0
   18.5923   19.8206   20.9971 H   0  0  0  0  0  0  0  0  0  0  0  0
   19.5773   19.4966   19.0904 C   0  0  0  0  0  0  0  0  0  0  0  0
   19.3115   20.4833   18.6893 H   0  0  0  0  0  0  0  0  0  0  0  0
   18.8473   18.7692   18.7119 H   0  0  0  0  0  0  0  0  0  0  0  0
   20.5663   19.2263   18.6977 H   0  0  0  0  0  0  0  0  0  0  0  0
  1  2  1  0  0  0  0
  1  3  2  0  0  0  0
  1  4  1  0  0  0  0
  4  5  1  0  0  0  0
  4  6  1  0  0  0  0
  4  7  1  0  0  0  0
  7  8  1  0  0  0  0
  7  9  1  0  0  0  0
  7 10  1  0  0  0  0
 10 11  1  0  0  0  0
 10 12  1  0  0  0  0
 10 13  1  0  0  0  0
 13 14  1  0  0  0  0
 13 15  1  0  0  0  0
 13 16  1  0  0  0  0
 16 17  1  0  0  0  0
 16 18  1  0  0  0  0
 16 19  1  0  0  0  0
 19 20  1  0  0  0  0
 19 21  1  0  0  0  0
 19 22  1  0  0  0  0
M  END
> <VM2 Rank>
18

> <Conf_Id>
332

> <Probability>
0.73

> <Sum Probability>
93.34

> <Delta G>
2.267

> <G>
-14.731

> <E>
-34.712

> <-TS>
19.980

> <U+W>
-52.596

> <U>
8.925

> <W>
-61.521

> <W(PB)>
-63.790

> <W(SA)>
2.269

> <Valence>
7.882

> <Coulomb>
0.348

> <VdW>
0.695

> <VdW6>
-8.049

> <VdW12>
8.743

> <Bond>
0.156

> <Angle>
2.660

> <Pdih>
5.065

> <Idih>
0.001

> <Tether>
0.000

$$$$
VeraChem MOL file


 22 21  0  0  0  0  0  0  0  0999 V2000     
   20.0082   19.3012   25.6727 C   0  0  0  0  0  0  0  0  0  0  0  0
   20.5934   20.3638   25.5996 O   0  5  0  0  0  0  0  0  0  0  0  0
   20.4103   18.3555   26.3214 O   0  0  0  0  0  0  0  0  0  0  0  0
   18.6853   19.1510   24.9267 C   0  0  0  0  0  0  0  0  0  0  0  0
   18.3026   20.1506   24.6876 H   0  0  0  0  0  0  0  0  0  0  0  0
   17.9685   18.6940   25.6191 H   0  0  0  0  0  0  0  0  0  0  0  0
   18.7811   18.2921   23.6390 C   0  0  0  0  0  0  0  0  0  0  0  0
   19.1910   17.3041   23.8905 H   0  0  0  0  0  0  0  0  0  0  0  0
   17.7691   18.1241   23.2464 H   0  0  0  0  0  0  0  0  0  0  0  0
   19.6474   18.9559   22.5449 C   0  0  0  0  0  0  0  0  0  0  0  0
   20.6678   19.1083   22.9228 H   0  0  0  0  0  0  0  0  0  0  0  0
   19.2396   19.9492   22.3167 H   0  0  0  0  0  0  0  0  0  0  0  0
   19.6981   18.0984   21.2594 C   0  0  0  0  0  0  0  0  0  0  0  0
   20.0418   17.0875   21.5179 H   0  0  0  0  0  0  0  0  0  0  0  0
   18.6856   17.9873   20.8479 H   0  0  0  0  0  0  0  0  0  0  0  0
   20.6371   18.6734   20.1736 C   0  0  0  0  0  0  0  0  0  0  0  0
   20.7076   17.9501   19.3495 H   0  0  0  0  0  0  0  0  0  0  0  0
   21.6523   18.7806   20.5800 H   0  0  0  0  0  0  0  0  0  0  0  0
   20.1590   20.0277   19.6067 C   0  0  0  0  0  0  0  0  0  0  0  0
   20.8076   20.3488   18.7814 H   0  0  0  0  0  0  0  0  0  0  0  0
   20.1827   20.8132   20.3723 H   0  0  0  0  0  0  0  0  0  0  0  0
   19.1338   19.9525   19.2214 H   0  0  0  0  0  0  0  0  0  0  0  0
  1  2  1  0  0  0  0
  1  3  2  0  0  0  0
  1  4  1  0  0  0  0
  4  5  1  0  0  0  0
  4  6  1  0  0  0  0
  4  7  1  0  0  0  0
  7  8  1  0  0  0  0
  7  9  1  0  0  0  0
  7 10  1  0  0  0  0
 10 11  1  0  0  0  0
 10 12  1  0  0  0  0
 10 13  1  0  0  0  0
 13 14  1  0  0  0  0
 13 15  1  0  0  0  0
 13 16  1  0  0  0  0
 16 17  1  0  0  0  0
 16 18  1  0  0  0  0
 16 19  1  0  0  0  0
 19 20  1  0  0  0  0
 19 21  1  0  0  0  0
 19 22  1  0  0  0  0
M  END
> <VM2 Rank>
19

> <Conf_Id>
524

> <Probability>
0.61

> <Sum Probability>
93.95

> <Delta G>
2.367

> <G>
-14.631

> <E>
-34.616

> <-TS>
19.986

> <U+W>
-52.501

> <U>
9.110

> <W>
-61.612

> <W(PB)>
-63.897

> <W(SA)>
2.285

> <Valence>
7.861

> <Coulomb>
0.530

> <VdW>
0.720

> <VdW6>
-7.989

> <VdW12>
8.709

> <Bond>
0.152

> <Angle>
2.653

> <Pdih>
5.055

> <Idih>
0.001

> <Tether>
0.000

$$$$
VeraChem MOL file


 22 21  0  0  0  0  0  0  0  0999 V2000     
   20.1252   19.2696   25.5955 C   0  0  0  0  0  0  0  0  0  0  0  0
   20.5513   20.4053   25.5219 O   0  5  0  0  0  0  0  0  0  0  0  0
   20.7388   18.3530   26.1056 O   0  0  0  0  0  0  0  0  0  0  0  0
   18.7343   18.9811   25.0375 C   0  0  0  0  0  0  0  0  0  0  0  0
   18.1946   19.9303   24.9340 H   0  0  0  0  0  0  0  0  0  0  0  0
   18.1961   18.3902   25.7880 H   0  0  0  0  0  0  0  0  0  0  0  0
   18.7416   18.2195   23.6865 C   0  0  0  0  0  0  0  0  0  0  0  0
   19.3107   17.2860   23.7979 H   0  0  0  0  0  0  0  0  0  0  0  0
   17.7117   17.9336   23.4335 H   0  0  0  0  0  0  0  0  0  0  0  0
   19.3357   19.0596   22.5336 C   0  0  0  0  0  0  0  0  0  0  0  0
   20.3690   19.3359   22.7813 H   0  0  0  0  0  0  0  0  0  0  0  0
   18.7700   19.9958   22.4326 H   0  0  0  0  0  0  0  0  0  0  0  0
   19.3061   18.2901   21.1929 C   0  0  0  0  0  0  0  0  0  0  0  0
   19.9136   17.3785   21.2762 H   0  0  0  0  0  0  0  0  0  0  0  0
   18.2774   17.9613   20.9918 H   0  0  0  0  0  0  0  0  0  0  0  0
   19.7966   19.1302   19.9908 C   0  0  0  0  0  0  0  0  0  0  0  0
   19.1880   20.0407   19.9015 H   0  0  0  0  0  0  0  0  0  0  0  0
   19.6323   18.5556   19.0688 H   0  0  0  0  0  0  0  0  0  0  0  0
   21.2904   19.5106   20.0797 C   0  0  0  0  0  0  0  0  0  0  0  0
   21.4832   20.1823   20.9256 H   0  0  0  0  0  0  0  0  0  0  0  0
   21.6099   20.0275   19.1656 H   0  0  0  0  0  0  0  0  0  0  0  0
   21.9169   18.6171   20.1994 H   0  0  0  0  0  0  0  0  0  0  0  0
  1  2  1  0  0  0  0
  1  3  2  0  0  0  0
  1  4  1  0  0  0  0
  4  5  1  0  0  0  0
  4  6  1  0  0  0  0
  4  7  1  0  0  0  0
  7  8  1  0  0  0  0
  7  9  1  0  0  0  0
  7 10  1  0  0  0  0
 10 11  1  0  0  0  0
 10 12  1  0  0  0  0
 10 13  1  0  0  0  0
 13 14  1  0  0  0  0
 13 15  1  0  0  0  0
 13 16  1  0  0  0  0
 16 17  1  0  0  0  0
 16 18  1  0  0  0  0
 16 19  1  0  0  0  0
 19 20  1  0  0  0  0
 19 21  1  0  0  0  0
 19 22  1  0  0  0  0
M  END
> <VM2 Rank>
20

> <Conf_Id>
521

> <Probability>
0.59

> <Sum Probability>
94.54

> <Delta G>
2.388

> <G>
-14.610

> <E>
-34.607

> <-TS>
19.997

> <U+W>
-52.492

> <U>
9.376

> <W>
-61.868

> <W(PB)>
-64.156

> <W(SA)>
2.288

> <Valence>
7.861

> <Coulomb>
0.810

> <VdW>
0.706

> <VdW6>
-8.019

> <VdW12>
8.725

> <Bond>
0.153

> <Angle>
2.651

> <Pdih>
5.056

> <Idih>
0.001

> <Tether>
0.000

$$$$
VeraChem MOL file


 22 21  0  0  0  0  0  0  0  0999 V2000     
   19.6162   18.9320   25.6923 C   0  0  0  0  0  0  0  0  0  0  0  0
   18.7402   19.7153   26.0022 O   0  5  0  0  0  0  0  0  0  0  0  0
   19.5672   17.7408   25.9281 O   0  0  0  0  0  0  0  0  0  0  0  0
   20.8562   19.4751   24.9876 C   0  0  0  0  0  0  0  0  0  0  0  0
   21.7317   19.0244   25.4696 H   0  0  0  0  0  0  0  0  0  0  0  0
   20.9160   20.5553   25.1673 H   0  0  0  0  0  0  0  0  0  0  0  0
   20.8945   19.1815   23.4653 C   0  0  0  0  0  0  0  0  0  0  0  0
   21.8712   19.4880   23.0674 H   0  0  0  0  0  0  0  0  0  0  0  0
   20.8139   18.0975   23.3102 H   0  0  0  0  0  0  0  0  0  0  0  0
   19.7741   19.9175   22.6923 C   0  0  0  0  0  0  0  0  0  0  0  0
   19.8201   20.9888   22.9314 H   0  0  0  0  0  0  0  0  0  0  0  0
   18.7912   19.5662   23.0353 H   0  0  0  0  0  0  0  0  0  0  0  0
   19.8737   19.7521   21.1573 C   0  0  0  0  0  0  0  0  0  0  0  0
   19.1219   20.4013   20.6879 H   0  0  0  0  0  0  0  0  0  0  0  0
   20.8528   20.1100   20.8108 H   0  0  0  0  0  0  0  0  0  0  0  0
   19.6506   18.2996   20.6791 C   0  0  0  0  0  0  0  0  0  0  0  0
   18.6951   17.9235   21.0699 H   0  0  0  0  0  0  0  0  0  0  0  0
   20.4385   17.6456   21.0752 H   0  0  0  0  0  0  0  0  0  0  0  0
   19.6473   18.2052   19.1400 C   0  0  0  0  0  0  0  0  0  0  0  0
   19.4911   17.1679   18.8165 H   0  0  0  0  0  0  0  0  0  0  0  0
   20.6029   18.5499   18.7236 H   0  0  0  0  0  0  0  0  0  0  0  0
   18.8446   18.8185   18.7100 H   0  0  0  0  0  0  0  0  0  0  0  0
  1  2  1  0  0  0  0
  1  3  2  0  0  0  0
  1  4  1  0  0  0  0
  4  5  1  0  0  0  0
  4  6  1  0  0  0  0
  4  7  1  0  0  0  0
  7  8  1  0  0  0  0
  7  9  1  0  0  0  0
  7 10  1  0  0  0  0
 10 11  1  0  0  0  0
 10 12  1  0  0  0  0
 10 13  1  0  0  0  0
 13 14  1  0  0  0  0
 13 15  1  0  0  0  0
 13 16  1  0  0  0  0
 16 17  1  0  0  0  0
 16 18  1  0  0  0  0
 16 19  1  0  0  0  0
 19 20  1  0  0  0  0
 19 21  1  0  0  0  0
 19 22  1  0  0  0  0
M  END
> <VM2 Rank>
21

> <Conf_Id>
116

> <Probability>
0.59

> <Sum Probability>
95.13

> <Delta G>
2.388

> <G>
-14.610

> <E>
-34.590

> <-TS>
19.980

> <U+W>
-52.475

> <U>
8.925

> <W>
-61.400

> <W(PB)>
-63.682

> <W(SA)>
2.282

> <Valence>
7.881

> <Coulomb>
0.348

> <VdW>
0.695

> <VdW6>
-8.049

> <VdW12>
8.743

> <Bond>
0.156

> <Angle>
2.660

> <Pdih>
5.065

> <Idih>
0.001

> <Tether>
0.000

$$$$
VeraChem MOL file


 22 21  0  0  0  0  0  0  0  0999 V2000     
   20.0274   18.9482   25.6862 C   0  0  0  0  0  0  0  0  0  0  0  0
   20.3224   19.9786   26.2590 O   0  5  0  0  0  0  0  0  0  0  0  0
   20.7242   17.9525   25.6922 O   0  0  0  0  0  0  0  0  0  0  0  0
   18.6991   18.8973   24.9365 C   0  0  0  0  0  0  0  0  0  0  0  0
   17.9343   19.3257   25.5950 H   0  0  0  0  0  0  0  0  0  0  0  0
   18.4275   17.8468   24.7760 H   0  0  0  0  0  0  0  0  0  0  0  0
   18.7068   19.6605   23.5865 C   0  0  0  0  0  0  0  0  0  0  0  0
   17.6842   19.6877   23.1865 H   0  0  0  0  0  0  0  0  0  0  0  0
   19.0066   20.7034   23.7601 H   0  0  0  0  0  0  0  0  0  0  0  0
   19.6443   19.0126   22.5428 C   0  0  0  0  0  0  0  0  0  0  0  0
   19.3472   17.9666   22.3928 H   0  0  0  0  0  0  0  0  0  0  0  0
   20.6736   19.0008   22.9269 H   0  0  0  0  0  0  0  0  0  0  0  0
   19.6072   19.7697   21.1952 C   0  0  0  0  0  0  0  0  0  0  0  0
   18.5903   19.7389   20.7807 H   0  0  0  0  0  0  0  0  0  0  0  0
   19.8384   20.8287   21.3743 H   0  0  0  0  0  0  0  0  0  0  0  0
   20.6074   19.2185   20.1526 C   0  0  0  0  0  0  0  0  0  0  0  0
   21.6266   19.2533   20.5618 H   0  0  0  0  0  0  0  0  0  0  0  0
   20.6025   19.8800   19.2753 H   0  0  0  0  0  0  0  0  0  0  0  0
   20.2811   17.7810   19.6930 C   0  0  0  0  0  0  0  0  0  0  0  0
   20.3867   17.0636   20.5164 H   0  0  0  0  0  0  0  0  0  0  0  0
   20.9641   17.4699   18.8920 H   0  0  0  0  0  0  0  0  0  0  0  0
   19.2554   17.7150   19.3074 H   0  0  0  0  0  0  0  0  0  0  0  0
  1  2  1  0  0  0  0
  1  3  2  0  0  0  0
  1  4  1  0  0  0  0
  4  5  1  0  0  0  0
  4  6  1  0  0  0  0
  4  7  1  0  0  0  0
  7  8  1  0  0  0  0
  7  9  1  0  0  0  0
  7 10  1  0  0  0  0
 10 11  1  0  0  0  0
 10 12  1  0  0  0  0
 10 13  1  0  0  0  0
 13 14  1  0  0  0  0
 13 15  1  0  0  0  0
 13 16  1  0  0  0  0
 16 17  1  0  0  0  0
 16 18  1  0  0  0  0
 16 19  1  0  0  0  0
 19 20  1  0  0  0  0
 19 21  1  0  0  0  0
 19 22  1  0  0  0  0
M  END
> <VM2 Rank>
22

> <Conf_Id>
88

> <Probability>
0.59

> <Sum Probability>
95.72

> <Delta G>
2.391

> <G>
-14.607

> <E>
-34.592

> <-TS>
19.986

> <U+W>
-52.477

> <U>
9.110

> <W>
-61.588

> <W(PB)>
-63.876

> <W(SA)>
2.289

> <Valence>
7.861

> <Coulomb>
0.530

> <VdW>
0.720

> <VdW6>
-7.989

> <VdW12>
8.708

> <Bond>
0.152

> <Angle>
2.653

> <Pdih>
5.055

> <Idih>
0.001

> <Tether>
0.000

$$$$
VeraChem MOL file


 22 21  0  0  0  0  0  0  0  0999 V2000     
   19.4552   19.0243   25.5920 C   0  0  0  0  0  0  0  0  0  0  0  0
   18.3974   19.6170   25.5111 O   0  5  0  0  0  0  0  0  0  0  0  0
   19.5738   17.9266   26.0997 O   0  0  0  0  0  0  0  0  0  0  0  0
   20.7087   19.7037   25.0474 C   0  0  0  0  0  0  0  0  0  0  0  0
   21.4944   19.5972   25.8046 H   0  0  0  0  0  0  0  0  0  0  0  0
   20.5091   20.7774   24.9458 H   0  0  0  0  0  0  0  0  0  0  0  0
   21.2068   19.1218   23.6989 C   0  0  0  0  0  0  0  0  0  0  0  0
   22.1801   19.5693   23.4560 H   0  0  0  0  0  0  0  0  0  0  0  0
   21.3739   18.0412   23.8082 H   0  0  0  0  0  0  0  0  0  0  0  0
   20.2209   19.3837   22.5381 C   0  0  0  0  0  0  0  0  0  0  0  0
   20.0494   20.4642   22.4391 H   0  0  0  0  0  0  0  0  0  0  0  0
   19.2514   18.9267   22.7757 H   0  0  0  0  0  0  0  0  0  0  0  0
   20.7522   18.8195   21.2002 C   0  0  0  0  0  0  0  0  0  0  0  0
   21.7518   19.2334   21.0092 H   0  0  0  0  0  0  0  0  0  0  0  0
   20.8763   17.7310   21.2810 H   0  0  0  0  0  0  0  0  0  0  0  0
   19.8460   19.1483   19.9911 C   0  0  0  0  0  0  0  0  0  0  0  0
   20.3505   18.8186   19.0724 H   0  0  0  0  0  0  0  0  0  0  0  0
   19.7236   20.2368   19.9042 H   0  0  0  0  0  0  0  0  0  0  0  0
   18.4589   18.4740   20.0655 C   0  0  0  0  0  0  0  0  0  0  0  0
   18.5563   17.3868   20.1826 H   0  0  0  0  0  0  0  0  0  0  0  0
   17.8892   18.6654   19.1470 H   0  0  0  0  0  0  0  0  0  0  0  0
   17.8706   18.8598   20.9075 H   0  0  0  0  0  0  0  0  0  0  0  0
  1  2  1  0  0  0  0
  1  3  2  0  0  0  0
  1  4  1  0  0  0  0
  4  5  1  0  0  0  0
  4  6  1  0  0  0  0
  4  7  1  0  0  0  0
  7  8  1  0  0  0  0
  7  9  1  0  0  0  0
  7 10  1  0  0  0  0
 10 11  1  0  0  0  0
 10 12  1  0  0  0  0
 10 13  1  0  0  0  0
 13 14  1  0  0  0  0
 13 15  1  0  0  0  0
 13 16  1  0  0  0  0
 16 17  1  0  0  0  0
 16 18  1  0  0  0  0
 16 19  1  0  0  0  0
 19 20  1  0  0  0  0
 19 21  1  0  0  0  0
 19 22  1  0  0  0  0
M  END
> <VM2 Rank>
23

> <Conf_Id>
172

> <Probability>
0.58

> <Sum Probability>
96.30

> <Delta G>
2.398

> <G>
-14.600

> <E>
-34.597

> <-TS>
19.997

> <U+W>
-52.482

> <U>
9.376

> <W>
-61.858

> <W(PB)>
-64.146

> <W(SA)>
2.288

> <Valence>
7.861

> <Coulomb>
0.809

> <VdW>
0.706

> <VdW6>
-8.019

> <VdW12>
8.725

> <Bond>
0.153

> <Angle>
2.651

> <Pdih>
5.056

> <Idih>
0.001

> <Tether>
0.000

$$$$
VeraChem MOL file


 22 21  0  0  0  0  0  0  0  0999 V2000     
   19.7553   19.0826   25.8400 C   0  0  0  0  0  0  0  0  0  0  0  0
   18.8220   19.8023   26.1365 O   0  5  0  0  0  0  0  0  0  0  0  0
   19.9258   17.9749   26.3100 O   0  0  0  0  0  0  0  0  0  0  0  0
   20.7813   19.6043   24.8377 C   0  0  0  0  0  0  0  0  0  0  0  0
   21.7758   19.3931   25.2480 H   0  0  0  0  0  0  0  0  0  0  0  0
   20.6884   20.6954   24.7765 H   0  0  0  0  0  0  0  0  0  0  0  0
   20.6608   18.9768   23.4244 C   0  0  0  0  0  0  0  0  0  0  0  0
   21.5262   19.2938   22.8288 H   0  0  0  0  0  0  0  0  0  0  0  0
   20.7153   17.8824   23.5065 H   0  0  0  0  0  0  0  0  0  0  0  0
   19.3537   19.3846   22.7031 C   0  0  0  0  0  0  0  0  0  0  0  0
   19.3208   20.4762   22.5843 H   0  0  0  0  0  0  0  0  0  0  0  0
   18.4952   19.1165   23.3341 H   0  0  0  0  0  0  0  0  0  0  0  0
   19.1732   18.7071   21.3239 C   0  0  0  0  0  0  0  0  0  0  0  0
   19.2064   17.6155   21.4431 H   0  0  0  0  0  0  0  0  0  0  0  0
   18.1696   18.9477   20.9474 H   0  0  0  0  0  0  0  0  0  0  0  0
   20.2201   19.1493   20.2766 C   0  0  0  0  0  0  0  0  0  0  0  0
   21.2261   18.8462   20.5951 H   0  0  0  0  0  0  0  0  0  0  0  0
   20.2250   20.2451   20.1971 H   0  0  0  0  0  0  0  0  0  0  0  0
   19.9277   18.5370   18.8919 C   0  0  0  0  0  0  0  0  0  0  0  0
   19.9436   17.4402   18.9366 H   0  0  0  0  0  0  0  0  0  0  0  0
   20.6810   18.8574   18.1605 H   0  0  0  0  0  0  0  0  0  0  0  0
   18.9425   18.8511   18.5230 H   0  0  0  0  0  0  0  0  0  0  0  0
  1  2  1  0  0  0  0
  1  3  2  0  0  0  0
  1  4  1  0  0  0  0
  4  5  1  0  0  0  0
  4  6  1  0  0  0  0
  4  7  1  0  0  0  0
  7  8  1  0  0  0  0
  7  9  1  0  0  0  0
  7 10  1  0  0  0  0
 10 11  1  0  0  0  0
 10 12  1  0  0  0  0
 10 13  1  0  0  0  0
 13 14  1  0  0  0  0
 13 15  1  0  0  0  0
 13 16  1  0  0  0  0
 16 17  1  0  0  0  0
 16 18  1  0  0  0  0
 16 19  1  0  0  0  0
 19 20  1  0  0  0  0
 19 21  1  0  0  0  0
 19 22  1  0  0  0  0
M  END
> <VM2 Rank>
24

> <Conf_Id>
510

> <Probability>
0.58

> <Sum Probability>
96.88

> <Delta G>
2.401

> <G>
-14.597

> <E>
-34.585

> <-TS>
19.988

> <U+W>
-52.470

> <U>
8.586

> <W>
-61.056

> <W(PB)>
-63.353

> <W(SA)>
2.296

> <Valence>
7.933

> <Coulomb>
-0.125

> <VdW>
0.778

> <VdW6>
-7.981

> <VdW12>
8.759

> <Bond>
0.160

> <Angle>
2.698

> <Pdih>
5.074

> <Idih>
0.000

> <Tether>
0.000

$$$$
VeraChem MOL file


 22 21  0  0  0  0  0  0  0  0999 V2000     
   19.8398   19.1151   25.8407 C   0  0  0  0  0  0  0  0  0  0  0  0
   20.0466   20.2729   26.1465 O   0  5  0  0  0  0  0  0  0  0  0  0
   20.4488   18.1758   26.3138 O   0  0  0  0  0  0  0  0  0  0  0  0
   18.7427   18.8209   24.8213 C   0  0  0  0  0  0  0  0  0  0  0  0
   18.0818   19.6937   24.7556 H   0  0  0  0  0  0  0  0  0  0  0  0
   18.1400   17.9958   25.2187 H   0  0  0  0  0  0  0  0  0  0  0  0
   19.2722   18.4432   23.4133 C   0  0  0  0  0  0  0  0  0  0  0  0
   19.9636   17.5936   23.5004 H   0  0  0  0  0  0  0  0  0  0  0  0
   18.4258   18.1023   22.8038 H   0  0  0  0  0  0  0  0  0  0  0  0
   19.9798   19.6254   22.7082 C   0  0  0  0  0  0  0  0  0  0  0  0
   20.7879   19.9979   23.3526 H   0  0  0  0  0  0  0  0  0  0  0  0
   19.2748   20.4586   22.5840 H   0  0  0  0  0  0  0  0  0  0  0  0
   20.5869   19.2506   21.3353 C   0  0  0  0  0  0  0  0  0  0  0  0
   21.1761   20.1035   20.9716 H   0  0  0  0  0  0  0  0  0  0  0  0
   21.2918   18.4172   21.4600 H   0  0  0  0  0  0  0  0  0  0  0  0
   19.5282   18.8832   20.2710 C   0  0  0  0  0  0  0  0  0  0  0  0
   18.7917   19.6941   20.1856 H   0  0  0  0  0  0  0  0  0  0  0  0
   18.9800   17.9827   20.5771 H   0  0  0  0  0  0  0  0  0  0  0  0
   20.1749   18.6319   18.8939 C   0  0  0  0  0  0  0  0  0  0  0  0
   20.7011   19.5270   18.5372 H   0  0  0  0  0  0  0  0  0  0  0  0
   19.4113   18.3691   18.1503 H   0  0  0  0  0  0  0  0  0  0  0  0
   20.8972   17.8066   18.9444 H   0  0  0  0  0  0  0  0  0  0  0  0
  1  2  1  0  0  0  0
  1  3  2  0  0  0  0
  1  4  1  0  0  0  0
  4  5  1  0  0  0  0
  4  6  1  0  0  0  0
  4  7  1  0  0  0  0
  7  8  1  0  0  0  0
  7  9  1  0  0  0  0
  7 10  1  0  0  0  0
 10 11  1  0  0  0  0
 10 12  1  0  0  0  0
 10 13  1  0  0  0  0
 13 14  1  0  0  0  0
 13 15  1  0  0  0  0
 13 16  1  0  0  0  0
 16 17  1  0  0  0  0
 16 18  1  0  0  0  0
 16 19  1  0  0  0  0
 19 20  1  0  0  0  0
 19 21  1  0  0  0  0
 19 22  1  0  0  0  0
M  END
> <VM2 Rank>
25

> <Conf_Id>
404

> <Probability>
0.53

> <Sum Probability>
97.42

> <Delta G>
2.449

> <G>
-14.549

> <E>
-34.537

> <-TS>
19.989

> <U+W>
-52.422

> <U>
8.587

> <W>
-61.009

> <W(PB)>
-63.305

> <W(SA)>
2.296

> <Valence>
7.933

> <Coulomb>
-0.124

> <VdW>
0.778

> <VdW6>
-7.981

> <VdW12>
8.759

> <Bond>
0.160

> <Angle>
2.698

> <Pdih>
5.074

> <Idih>
0.001

> <Tether>
0.000

$$$$
VeraChem MOL file


 22 21  0  0  0  0  0  0  0  0999 V2000     
   19.9752   19.4203   25.4490 C   0  0  0  0  0  0  0  0  0  0  0  0
   20.4060   20.4988   25.0914 O   0  5  0  0  0  0  0  0  0  0  0  0
   19.1599   19.2842   26.3401 O   0  0  0  0  0  0  0  0  0  0  0  0
   20.5070   18.1648   24.7632 C   0  0  0  0  0  0  0  0  0  0  0  0
   20.8267   17.4738   25.5519 H   0  0  0  0  0  0  0  0  0  0  0  0
   21.4083   18.4281   24.1982 H   0  0  0  0  0  0  0  0  0  0  0  0
   19.4727   17.4551   23.8472 C   0  0  0  0  0  0  0  0  0  0  0  0
   19.9174   16.5331   23.4489 H   0  0  0  0  0  0  0  0  0  0  0  0
   18.6154   17.1432   24.4597 H   0  0  0  0  0  0  0  0  0  0  0  0
   18.9566   18.3211   22.6719 C   0  0  0  0  0  0  0  0  0  0  0  0
   18.4681   19.2242   23.0631 H   0  0  0  0  0  0  0  0  0  0  0  0
   18.1800   17.7560   22.1388 H   0  0  0  0  0  0  0  0  0  0  0  0
   20.0641   18.7232   21.6710 C   0  0  0  0  0  0  0  0  0  0  0  0
   20.8017   19.3653   22.1705 H   0  0  0  0  0  0  0  0  0  0  0  0
   20.5961   17.8248   21.3297 H   0  0  0  0  0  0  0  0  0  0  0  0
   19.4863   19.4740   20.4529 C   0  0  0  0  0  0  0  0  0  0  0  0
   18.9542   20.3737   20.7921 H   0  0  0  0  0  0  0  0  0  0  0  0
   18.7487   18.8400   19.9416 H   0  0  0  0  0  0  0  0  0  0  0  0
   20.5923   19.8775   19.4572 C   0  0  0  0  0  0  0  0  0  0  0  0
   20.1641   20.4102   18.5982 H   0  0  0  0  0  0  0  0  0  0  0  0
   21.1214   18.9932   19.0785 H   0  0  0  0  0  0  0  0  0  0  0  0
   21.3275   20.5389   19.9342 H   0  0  0  0  0  0  0  0  0  0  0  0
  1  2  1  0  0  0  0
  1  3  2  0  0  0  0
  1  4  1  0  0  0  0
  4  5  1  0  0  0  0
  4  6  1  0  0  0  0
  4  7  1  0  0  0  0
  7  8  1  0  0  0  0
  7  9  1  0  0  0  0
  7 10  1  0  0  0  0
 10 11  1  0  0  0  0
 10 12  1  0  0  0  0
 10 13  1  0  0  0  0
 13 14  1  0  0  0  0
 13 15  1  0  0  0  0
 13 16  1  0  0  0  0
 16 17  1  0  0  0  0
 16 18  1  0  0  0  0
 16 19  1  0  0  0  0
 19 20  1  0  0  0  0
 19 21  1  0  0  0  0
 19 22  1  0  0  0  0
M  END
> <VM2 Rank>
26

> <Conf_Id>
185

> <Probability>
0.41

> <Sum Probability>
97.82

> <Delta G>
2.612

> <G>
-14.386

> <E>
-34.414

> <-TS>
20.027

> <U+W>
-52.299

> <U>
9.623

> <W>
-61.922

> <W(PB)>
-64.197

> <W(SA)>
2.275

> <Valence>
7.870

> <Coulomb>
1.264

> <VdW>
0.489

> <VdW6>
-8.389

> <VdW12>
8.878

> <Bond>
0.170

> <Angle>
2.768

> <Pdih>
4.931

> <Idih>
0.001

> <Tether>
0.000

$$$$
VeraChem MOL file


 22 21  0  0  0  0  0  0  0  0999 V2000     
   20.0967   19.3343   25.4525 C   0  0  0  0  0  0  0  0  0  0  0  0
   20.9847   20.0888   25.1077 O   0  5  0  0  0  0  0  0  0  0  0  0
   20.2047   18.5439   26.3695 O   0  0  0  0  0  0  0  0  0  0  0  0
   18.7628   19.4006   24.7139 C   0  0  0  0  0  0  0  0  0  0  0  0
   18.7341   20.3229   24.1225 H   0  0  0  0  0  0  0  0  0  0  0  0
   17.9757   19.4938   25.4712 H   0  0  0  0  0  0  0  0  0  0  0  0
   18.4702   18.1653   23.8189 C   0  0  0  0  0  0  0  0  0  0  0  0
   18.4368   17.2698   24.4547 H   0  0  0  0  0  0  0  0  0  0  0  0
   17.4688   18.2680   23.3796 H   0  0  0  0  0  0  0  0  0  0  0  0
   19.5019   17.9348   22.6874 C   0  0  0  0  0  0  0  0  0  0  0  0
   19.2460   17.0007   22.1690 H   0  0  0  0  0  0  0  0  0  0  0  0
   20.5003   17.7843   23.1207 H   0  0  0  0  0  0  0  0  0  0  0  0
   19.5523   19.0858   21.6566 C   0  0  0  0  0  0  0  0  0  0  0  0
   18.5420   19.2803   21.2717 H   0  0  0  0  0  0  0  0  0  0  0  0
   19.8950   20.0077   22.1449 H   0  0  0  0  0  0  0  0  0  0  0  0
   20.4973   18.7576   20.4816 C   0  0  0  0  0  0  0  0  0  0  0  0
   20.1627   17.8382   19.9817 H   0  0  0  0  0  0  0  0  0  0  0  0
   21.5089   18.5635   20.8644 H   0  0  0  0  0  0  0  0  0  0  0  0
   20.5494   19.9079   19.4561 C   0  0  0  0  0  0  0  0  0  0  0  0
   19.5548   20.1033   19.0342 H   0  0  0  0  0  0  0  0  0  0  0  0
   21.2257   19.6580   18.6283 H   0  0  0  0  0  0  0  0  0  0  0  0
   20.9119   20.8334   19.9225 H   0  0  0  0  0  0  0  0  0  0  0  0
  1  2  1  0  0  0  0
  1  3  2  0  0  0  0
  1  4  1  0  0  0  0
  4  5  1  0  0  0  0
  4  6  1  0  0  0  0
  4  7  1  0  0  0  0
  7  8  1  0  0  0  0
  7  9  1  0  0  0  0
  7 10  1  0  0  0  0
 10 11  1  0  0  0  0
 10 12  1  0  0  0  0
 10 13  1  0  0  0  0
 13 14  1  0  0  0  0
 13 15  1  0  0  0  0
 13 16  1  0  0  0  0
 16 17  1  0  0  0  0
 16 18  1  0  0  0  0
 16 19  1  0  0  0  0
 19 20  1  0  0  0  0
 19 21  1  0  0  0  0
 19 22  1  0  0  0  0
M  END
> <VM2 Rank>
27

> <Conf_Id>
480

> <Probability>
0.40

> <Sum Probability>
98.22

> <Delta G>
2.623

> <G>
-14.375

> <E>
-34.402

> <-TS>
20.027

> <U+W>
-52.287

> <U>
9.624

> <W>
-61.911

> <W(PB)>
-64.185

> <W(SA)>
2.274

> <Valence>
7.870

> <Coulomb>
1.265

> <VdW>
0.489

> <VdW6>
-8.389

> <VdW12>
8.878

> <Bond>
0.170

> <Angle>
2.768

> <Pdih>
4.931

> <Idih>
0.001

> <Tether>
0.000

$$$$
VeraChem MOL file


 22 21  0  0  0  0  0  0  0  0999 V2000     
   19.9409   18.8672   25.6813 C   0  0  0  0  0  0  0  0  0  0  0  0
   19.8596   19.7082   26.5546 O   0  5  0  0  0  0  0  0  0  0  0  0
   20.5775   17.8385   25.7953 O   0  0  0  0  0  0  0  0  0  0  0  0
   19.2202   19.1264   24.3632 C   0  0  0  0  0  0  0  0  0  0  0  0
   18.3113   19.7007   24.5785 H   0  0  0  0  0  0  0  0  0  0  0  0
   18.9055   18.1577   23.9588 H   0  0  0  0  0  0  0  0  0  0  0  0
   20.1011   19.8842   23.3364 C   0  0  0  0  0  0  0  0  0  0  0  0
   20.4672   20.8101   23.8008 H   0  0  0  0  0  0  0  0  0  0  0  0
   20.9932   19.2868   23.1058 H   0  0  0  0  0  0  0  0  0  0  0  0
   19.3524   20.2494   22.0301 C   0  0  0  0  0  0  0  0  0  0  0  0
   20.0268   20.8263   21.3837 H   0  0  0  0  0  0  0  0  0  0  0  0
   18.5234   20.9273   22.2745 H   0  0  0  0  0  0  0  0  0  0  0  0
   18.7871   19.0439   21.2337 C   0  0  0  0  0  0  0  0  0  0  0  0
   17.9926   18.5622   21.8184 H   0  0  0  0  0  0  0  0  0  0  0  0
   18.2986   19.4226   20.3257 H   0  0  0  0  0  0  0  0  0  0  0  0
   19.8308   17.9740   20.8286 C   0  0  0  0  0  0  0  0  0  0  0  0
   19.3134   17.1633   20.2977 H   0  0  0  0  0  0  0  0  0  0  0  0
   20.2717   17.5174   21.7248 H   0  0  0  0  0  0  0  0  0  0  0  0
   20.9504   18.5272   19.9208 C   0  0  0  0  0  0  0  0  0  0  0  0
   20.5306   19.0035   19.0253 H   0  0  0  0  0  0  0  0  0  0  0  0
   21.6153   17.7175   19.5938 H   0  0  0  0  0  0  0  0  0  0  0  0
   21.5630   19.2679   20.4500 H   0  0  0  0  0  0  0  0  0  0  0  0
  1  2  1  0  0  0  0
  1  3  2  0  0  0  0
  1  4  1  0  0  0  0
  4  5  1  0  0  0  0
  4  6  1  0  0  0  0
  4  7  1  0  0  0  0
  7  8  1  0  0  0  0
  7  9  1  0  0  0  0
  7 10  1  0  0  0  0
 10 11  1  0  0  0  0
 10 12  1  0  0  0  0
 10 13  1  0  0  0  0
 13 14  1  0  0  0  0
 13 15  1  0  0  0  0
 13 16  1  0  0  0  0
 16 17  1  0  0  0  0
 16 18  1  0  0  0  0
 16 19  1  0  0  0  0
 19 20  1  0  0  0  0
 19 21  1  0  0  0  0
 19 22  1  0  0  0  0
M  END
> <VM2 Rank>
28

> <Conf_Id>
71

> <Probability>
0.26

> <Sum Probability>
98.48

> <Delta G>
2.889

> <G>
-14.109

> <E>
-34.425

> <-TS>
20.316

> <U+W>
-52.310

> <U>
8.874

> <W>
-61.184

> <W(PB)>
-63.414

> <W(SA)>
2.230

> <Valence>
8.479

> <Coulomb>
-0.357

> <VdW>
0.753

> <VdW6>
-9.080

> <VdW12>
9.833

> <Bond>
0.221

> <Angle>
3.208

> <Pdih>
5.050

> <Idih>
0.000

> <Tether>
0.000

$$$$
VeraChem MOL file


 22 21  0  0  0  0  0  0  0  0999 V2000     
   19.9138   19.3717   25.6618 C   0  0  0  0  0  0  0  0  0  0  0  0
   20.4353   20.4688   25.6944 O   0  5  0  0  0  0  0  0  0  0  0  0
   19.9203   18.5959   26.5971 O   0  0  0  0  0  0  0  0  0  0  0  0
   19.2303   18.9367   24.3705 C   0  0  0  0  0  0  0  0  0  0  0  0
   18.8150   19.8322   23.8945 H   0  0  0  0  0  0  0  0  0  0  0  0
   18.3875   18.2863   24.6329 H   0  0  0  0  0  0  0  0  0  0  0  0
   20.1916   18.2015   23.4009 C   0  0  0  0  0  0  0  0  0  0  0  0
   21.0154   18.8717   23.1217 H   0  0  0  0  0  0  0  0  0  0  0  0
   20.6530   17.3584   23.9332 H   0  0  0  0  0  0  0  0  0  0  0  0
   19.4917   17.6594   22.1294 C   0  0  0  0  0  0  0  0  0  0  0  0
   18.7392   16.9172   22.4283 H   0  0  0  0  0  0  0  0  0  0  0  0
   20.2268   17.1105   21.5262 H   0  0  0  0  0  0  0  0  0  0  0  0
   18.8038   18.7331   21.2456 C   0  0  0  0  0  0  0  0  0  0  0  0
   18.3625   18.2360   20.3711 H   0  0  0  0  0  0  0  0  0  0  0  0
   17.9597   19.1700   21.7951 H   0  0  0  0  0  0  0  0  0  0  0  0
   19.7284   19.8747   20.7559 C   0  0  0  0  0  0  0  0  0  0  0  0
   20.1139   20.4431   21.6128 H   0  0  0  0  0  0  0  0  0  0  0  0
   19.1293   20.5824   20.1667 H   0  0  0  0  0  0  0  0  0  0  0  0
   20.9048   19.3771   19.8885 C   0  0  0  0  0  0  0  0  0  0  0  0
   21.4803   20.2262   19.4980 H   0  0  0  0  0  0  0  0  0  0  0  0
   20.5422   18.7916   19.0337 H   0  0  0  0  0  0  0  0  0  0  0  0
   21.5910   18.7491   20.4703 H   0  0  0  0  0  0  0  0  0  0  0  0
  1  2  1  0  0  0  0
  1  3  2  0  0  0  0
  1  4  1  0  0  0  0
  4  5  1  0  0  0  0
  4  6  1  0  0  0  0
  4  7  1  0  0  0  0
  7  8  1  0  0  0  0
  7  9  1  0  0  0  0
  7 10  1  0  0  0  0
 10 11  1  0  0  0  0
 10 12  1  0  0  0  0
 10 13  1  0  0  0  0
 13 14  1  0  0  0  0
 13 15  1  0  0  0  0
 13 16  1  0  0  0  0
 16 17  1  0  0  0  0
 16 18  1  0  0  0  0
 16 19  1  0  0  0  0
 19 20  1  0  0  0  0
 19 21  1  0  0  0  0
 19 22  1  0  0  0  0
M  END
> <VM2 Rank>
29

> <Conf_Id>
449

> <Probability>
0.24

> <Sum Probability>
98.72

> <Delta G>
2.932

> <G>
-14.066

> <E>
-34.382

> <-TS>
20.316

> <U+W>
-52.267

> <U>
8.874

> <W>
-61.141

> <W(PB)>
-63.378

> <W(SA)>
2.237

> <Valence>
8.479

> <Coulomb>
-0.357

> <VdW>
0.753

> <VdW6>
-9.081

> <VdW12>
9.833

> <Bond>
0.221

> <Angle>
3.208

> <Pdih>
5.050

> <Idih>
0.000

> <Tether>
0.000

$$$$
VeraChem MOL file


 22 21  0  0  0  0  0  0  0  0999 V2000     
   19.7589   19.2002   25.7233 C   0  0  0  0  0  0  0  0  0  0  0  0
   20.1899   20.3092   25.9709 O   0  5  0  0  0  0  0  0  0  0  0  0
   20.0847   18.2009   26.3334 O   0  0  0  0  0  0  0  0  0  0  0  0
   18.7363   19.0555   24.5996 C   0  0  0  0  0  0  0  0  0  0  0  0
   18.3027   20.0411   24.3908 H   0  0  0  0  0  0  0  0  0  0  0  0
   17.9229   18.4245   24.9769 H   0  0  0  0  0  0  0  0  0  0  0  0
   19.3096   18.4368   23.2981 C   0  0  0  0  0  0  0  0  0  0  0  0
   19.7756   17.4690   23.5288 H   0  0  0  0  0  0  0  0  0  0  0  0
   18.4762   18.2334   22.6135 H   0  0  0  0  0  0  0  0  0  0  0  0
   20.3370   19.3619   22.6029 C   0  0  0  0  0  0  0  0  0  0  0  0
   21.1371   19.6100   23.3136 H   0  0  0  0  0  0  0  0  0  0  0  0
   19.8601   20.3151   22.3402 H   0  0  0  0  0  0  0  0  0  0  0  0
   20.9864   18.7301   21.3459 C   0  0  0  0  0  0  0  0  0  0  0  0
   21.7382   19.4269   20.9510 H   0  0  0  0  0  0  0  0  0  0  0  0
   21.5376   17.8285   21.6460 H   0  0  0  0  0  0  0  0  0  0  0  0
   20.0046   18.3580   20.2073 C   0  0  0  0  0  0  0  0  0  0  0  0
   19.3075   17.5804   20.5463 H   0  0  0  0  0  0  0  0  0  0  0  0
   20.5783   17.9118   19.3834 H   0  0  0  0  0  0  0  0  0  0  0  0
   19.2126   19.5663   19.6628 C   0  0  0  0  0  0  0  0  0  0  0  0
   18.5353   19.9744   20.4235 H   0  0  0  0  0  0  0  0  0  0  0  0
   18.6029   19.2689   18.7999 H   0  0  0  0  0  0  0  0  0  0  0  0
   19.8905   20.3667   19.3390 H   0  0  0  0  0  0  0  0  0  0  0  0
  1  2  1  0  0  0  0
  1  3  2  0  0  0  0
  1  4  1  0  0  0  0
  4  5  1  0  0  0  0
  4  6  1  0  0  0  0
  4  7  1  0  0  0  0
  7  8  1  0  0  0  0
  7  9  1  0  0  0  0
  7 10  1  0  0  0  0
 10 11  1  0  0  0  0
 10 12  1  0  0  0  0
 10 13  1  0  0  0  0
 13 14  1  0  0  0  0
 13 15  1  0  0  0  0
 13 16  1  0  0  0  0
 16 17  1  0  0  0  0
 16 18  1  0  0  0  0
 16 19  1  0  0  0  0
 19 20  1  0  0  0  0
 19 21  1  0  0  0  0
 19 22  1  0  0  0  0
M  END
> <VM2 Rank>
30

> <Conf_Id>
52

> <Probability>
0.11

> <Sum Probability>
98.83

> <Delta G>
3.402

> <G>
-13.596

> <E>
-33.890

> <-TS>
20.293

> <U+W>
-51.774

> <U>
9.546

> <W>
-61.321

> <W(PB)>
-63.553

> <W(SA)>
2.233

> <Valence>
8.350

> <Coulomb>
0.448

> <VdW>
0.749

> <VdW6>
-8.872

> <VdW12>
9.620

> <Bond>
0.198

> <Angle>
3.089

> <Pdih>
5.062

> <Idih>
0.001

> <Tether>
0.000

$$$$
VeraChem MOL file


 22 21  0  0  0  0  0  0  0  0999 V2000     
   20.1472   19.2037   25.4604 C   0  0  0  0  0  0  0  0  0  0  0  0
   20.7299   20.2667   25.5466 O   0  5  0  0  0  0  0  0  0  0  0  0
   20.6164   18.1473   25.8357 O   0  0  0  0  0  0  0  0  0  0  0  0
   18.7382   19.2016   24.8737 C   0  0  0  0  0  0  0  0  0  0  0  0
   18.1927   20.0380   25.3264 H   0  0  0  0  0  0  0  0  0  0  0  0
   18.2290   18.2828   25.1886 H   0  0  0  0  0  0  0  0  0  0  0  0
   18.6998   19.3338   23.3291 C   0  0  0  0  0  0  0  0  0  0  0  0
   17.6575   19.4577   23.0062 H   0  0  0  0  0  0  0  0  0  0  0  0
   19.2346   20.2474   23.0372 H   0  0  0  0  0  0  0  0  0  0  0  0
   19.3137   18.1065   22.6144 C   0  0  0  0  0  0  0  0  0  0  0  0
   18.8206   17.1962   22.9816 H   0  0  0  0  0  0  0  0  0  0  0  0
   20.3729   18.0069   22.8862 H   0  0  0  0  0  0  0  0  0  0  0  0
   19.1684   18.1531   21.0725 C   0  0  0  0  0  0  0  0  0  0  0  0
   19.5853   17.2279   20.6520 H   0  0  0  0  0  0  0  0  0  0  0  0
   18.1005   18.1485   20.8153 H   0  0  0  0  0  0  0  0  0  0  0  0
   19.8423   19.3641   20.3811 C   0  0  0  0  0  0  0  0  0  0  0  0
   19.3660   20.2988   20.7053 H   0  0  0  0  0  0  0  0  0  0  0  0
   19.6645   19.2926   19.2993 H   0  0  0  0  0  0  0  0  0  0  0  0
   21.3641   19.4421   20.6304 C   0  0  0  0  0  0  0  0  0  0  0  0
   21.8590   18.5076   20.3362 H   0  0  0  0  0  0  0  0  0  0  0  0
   21.5850   19.6314   21.6887 H   0  0  0  0  0  0  0  0  0  0  0  0
   21.8078   20.2590   20.0468 H   0  0  0  0  0  0  0  0  0  0  0  0
  1  2  1  0  0  0  0
  1  3  2  0  0  0  0
  1  4  1  0  0  0  0
  4  5  1  0  0  0  0
  4  6  1  0  0  0  0
  4  7  1  0  0  0  0
  7  8  1  0  0  0  0
  7  9  1  0  0  0  0
  7 10  1  0  0  0  0
 10 11  1  0  0  0  0
 10 12  1  0  0  0  0
 10 13  1  0  0  0  0
 13 14  1  0  0  0  0
 13 15  1  0  0  0  0
 13 16  1  0  0  0  0
 16 17  1  0  0  0  0
 16 18  1  0  0  0  0
 16 19  1  0  0  0  0
 19 20  1  0  0  0  0
 19 21  1  0  0  0  0
 19 22  1  0  0  0  0
M  END
> <VM2 Rank>
31

> <Conf_Id>
275

> <Probability>
0.08

> <Sum Probability>
98.91

> <Delta G>
3.577

> <G>
-13.421

> <E>
-33.724

> <-TS>
20.303

> <U+W>
-51.609

> <U>
10.394

> <W>
-62.003

> <W(PB)>
-64.205

> <W(SA)>
2.203

> <Valence>
8.284

> <Coulomb>
1.521

> <VdW>
0.589

> <VdW6>
-9.071

> <VdW12>
9.660

> <Bond>
0.194

> <Angle>
3.031

> <Pdih>
5.059

> <Idih>
0.001

> <Tether>
0.000

$$$$
VeraChem MOL file


 22 21  0  0  0  0  0  0  0  0999 V2000     
   19.6887   19.4243   25.4459 C   0  0  0  0  0  0  0  0  0  0  0  0
   20.1512   20.5451   25.5284 O   0  5  0  0  0  0  0  0  0  0  0  0
   18.5526   19.1401   25.7706 O   0  0  0  0  0  0  0  0  0  0  0  0
   20.5948   18.3085   24.9325 C   0  0  0  0  0  0  0  0  0  0  0  0
   20.1784   17.3450   25.2504 H   0  0  0  0  0  0  0  0  0  0  0  0
   21.5642   18.4161   25.4331 H   0  0  0  0  0  0  0  0  0  0  0  0
   20.8012   18.3229   23.3957 C   0  0  0  0  0  0  0  0  0  0  0  0
   21.1965   19.3036   23.0993 H   0  0  0  0  0  0  0  0  0  0  0  0
   21.5636   17.5784   23.1299 H   0  0  0  0  0  0  0  0  0  0  0  0
   19.4974   18.0183   22.6203 C   0  0  0  0  0  0  0  0  0  0  0  0
   18.7462   18.7900   22.8345 H   0  0  0  0  0  0  0  0  0  0  0  0
   19.0748   17.0741   22.9898 H   0  0  0  0  0  0  0  0  0  0  0  0
   19.7036   17.8956   21.0895 C   0  0  0  0  0  0  0  0  0  0  0  0
   20.3781   17.0525   20.8876 H   0  0  0  0  0  0  0  0  0  0  0  0
   18.7432   17.6330   20.6254 H   0  0  0  0  0  0  0  0  0  0  0  0
   20.2650   19.1606   20.3944 C   0  0  0  0  0  0  0  0  0  0  0  0
   20.3755   18.9501   19.3217 H   0  0  0  0  0  0  0  0  0  0  0  0
   21.2747   19.3803   20.7657 H   0  0  0  0  0  0  0  0  0  0  0  0
   19.3656   20.4037   20.5667 C   0  0  0  0  0  0  0  0  0  0  0  0
   19.7571   21.2455   19.9813 H   0  0  0  0  0  0  0  0  0  0  0  0
   19.3213   20.7207   21.6165 H   0  0  0  0  0  0  0  0  0  0  0  0
   18.3428   20.1992   20.2244 H   0  0  0  0  0  0  0  0  0  0  0  0
  1  2  1  0  0  0  0
  1  3  2  0  0  0  0
  1  4  1  0  0  0  0
  4  5  1  0  0  0  0
  4  6  1  0  0  0  0
  4  7  1  0  0  0  0
  7  8  1  0  0  0  0
  7  9  1  0  0  0  0
  7 10  1  0  0  0  0
 10 11  1  0  0  0  0
 10 12  1  0  0  0  0
 10 13  1  0  0  0  0
 13 14  1  0  0  0  0
 13 15  1  0  0  0  0
 13 16  1  0  0  0  0
 16 17  1  0  0  0  0
 16 18  1  0  0  0  0
 16 19  1  0  0  0  0
 19 20  1  0  0  0  0
 19 21  1  0  0  0  0
 19 22  1  0  0  0  0
M  END
> <VM2 Rank>
32

> <Conf_Id>
316

> <Probability>
0.08

> <Sum Probability>
98.99

> <Delta G>
3.583

> <G>
-13.415

> <E>
-33.718

> <-TS>
20.302

> <U+W>
-51.603

> <U>
10.393

> <W>
-61.996

> <W(PB)>
-64.210

> <W(SA)>
2.214

> <Valence>
8.285

> <Coulomb>
1.520

> <VdW>
0.589

> <VdW6>
-9.071

> <VdW12>
9.660

> <Bond>
0.194

> <Angle>
3.031

> <Pdih>
5.059

> <Idih>
0.001

> <Tether>
0.000

$$$$
VeraChem MOL file


 22 21  0  0  0  0  0  0  0  0999 V2000     
   19.9081   18.8057   25.4498 C   0  0  0  0  0  0  0  0  0  0  0  0
   19.7496   19.5643   26.3861 O   0  5  0  0  0  0  0  0  0  0  0  0
   20.8541   18.0492   25.3511 O   0  0  0  0  0  0  0  0  0  0  0  0
   18.8448   18.7831   24.3552 C   0  0  0  0  0  0  0  0  0  0  0  0
   17.8711   18.6809   24.8482 H   0  0  0  0  0  0  0  0  0  0  0  0
   18.9826   17.8798   23.7498 H   0  0  0  0  0  0  0  0  0  0  0  0
   18.8346   20.0483   23.4544 C   0  0  0  0  0  0  0  0  0  0  0  0
   17.9980   19.9819   22.7470 H   0  0  0  0  0  0  0  0  0  0  0  0
   18.6282   20.9256   24.0827 H   0  0  0  0  0  0  0  0  0  0  0  0
   20.1552   20.2937   22.6797 C   0  0  0  0  0  0  0  0  0  0  0  0
   20.9606   20.4922   23.4001 H   0  0  0  0  0  0  0  0  0  0  0  0
   20.0499   21.2113   22.0851 H   0  0  0  0  0  0  0  0  0  0  0  0
   20.5995   19.1396   21.7464 C   0  0  0  0  0  0  0  0  0  0  0  0
   21.5484   19.4250   21.2724 H   0  0  0  0  0  0  0  0  0  0  0  0
   20.8161   18.2413   22.3399 H   0  0  0  0  0  0  0  0  0  0  0  0
   19.5691   18.8046   20.6446 C   0  0  0  0  0  0  0  0  0  0  0  0
   19.3210   19.7141   20.0805 H   0  0  0  0  0  0  0  0  0  0  0  0
   18.6367   18.4434   21.0982 H   0  0  0  0  0  0  0  0  0  0  0  0
   20.1049   17.7305   19.6768 C   0  0  0  0  0  0  0  0  0  0  0  0
   19.3606   17.5008   18.9033 H   0  0  0  0  0  0  0  0  0  0  0  0
   20.3357   16.8003   20.2124 H   0  0  0  0  0  0  0  0  0  0  0  0
   21.0195   18.0737   19.1757 H   0  0  0  0  0  0  0  0  0  0  0  0
  1  2  1  0  0  0  0
  1  3  2  0  0  0  0
  1  4  1  0  0  0  0
  4  5  1  0  0  0  0
  4  6  1  0  0  0  0
  4  7  1  0  0  0  0
  7  8  1  0  0  0  0
  7  9  1  0  0  0  0
  7 10  1  0  0  0  0
 10 11  1  0  0  0  0
 10 12  1  0  0  0  0
 10 13  1  0  0  0  0
 13 14  1  0  0  0  0
 13 15  1  0  0  0  0
 13 16  1  0  0  0  0
 16 17  1  0  0  0  0
 16 18  1  0  0  0  0
 16 19  1  0  0  0  0
 19 20  1  0  0  0  0
 19 21  1  0  0  0  0
 19 22  1  0  0  0  0
M  END
> <VM2 Rank>
33

> <Conf_Id>
292

> <Probability>
0.08

> <Sum Probability>
99.06

> <Delta G>
3.588

> <G>
-13.410

> <E>
-33.815

> <-TS>
20.405

> <U+W>
-51.700

> <U>
10.054

> <W>
-61.754

> <W(PB)>
-63.978

> <W(SA)>
2.224

> <Valence>
8.321

> <Coulomb>
1.289

> <VdW>
0.445

> <VdW6>
-9.398

> <VdW12>
9.842

> <Bond>
0.210

> <Angle>
3.153

> <Pdih>
4.957

> <Idih>
0.001

> <Tether>
0.000

$$$$
VeraChem MOL file


 22 21  0  0  0  0  0  0  0  0999 V2000     
   20.0207   18.9478   25.5175 C   0  0  0  0  0  0  0  0  0  0  0  0
   20.3769   19.8723   26.2216 O   0  5  0  0  0  0  0  0  0  0  0  0
   20.6451   17.9117   25.4022 O   0  0  0  0  0  0  0  0  0  0  0  0
   18.7022   19.0863   24.7615 C   0  0  0  0  0  0  0  0  0  0  0  0
   17.9453   19.4117   25.4846 H   0  0  0  0  0  0  0  0  0  0  0  0
   18.3907   18.0949   24.4137 H   0  0  0  0  0  0  0  0  0  0  0  0
   18.7495   20.0941   23.5804 C   0  0  0  0  0  0  0  0  0  0  0  0
   17.7494   20.1726   23.1331 H   0  0  0  0  0  0  0  0  0  0  0  0
   18.9867   21.0903   23.9789 H   0  0  0  0  0  0  0  0  0  0  0  0
   19.7761   19.7444   22.4748 C   0  0  0  0  0  0  0  0  0  0  0  0
   20.7853   19.6985   22.9066 H   0  0  0  0  0  0  0  0  0  0  0  0
   19.7869   20.5683   21.7502 H   0  0  0  0  0  0  0  0  0  0  0  0
   19.4642   18.4166   21.7418 C   0  0  0  0  0  0  0  0  0  0  0  0
   19.4793   17.5913   22.4654 H   0  0  0  0  0  0  0  0  0  0  0  0
   18.4484   18.4509   21.3254 H   0  0  0  0  0  0  0  0  0  0  0  0
   20.4737   18.0834   20.6184 C   0  0  0  0  0  0  0  0  0  0  0  0
   20.2680   17.0684   20.2515 H   0  0  0  0  0  0  0  0  0  0  0  0
   21.4925   18.0636   21.0295 H   0  0  0  0  0  0  0  0  0  0  0  0
   20.4115   19.0624   19.4258 C   0  0  0  0  0  0  0  0  0  0  0  0
   20.7287   20.0713   19.7170 H   0  0  0  0  0  0  0  0  0  0  0  0
   19.3930   19.1243   19.0209 H   0  0  0  0  0  0  0  0  0  0  0  0
   21.0757   18.7263   18.6191 H   0  0  0  0  0  0  0  0  0  0  0  0
  1  2  1  0  0  0  0
  1  3  2  0  0  0  0
  1  4  1  0  0  0  0
  4  5  1  0  0  0  0
  4  6  1  0  0  0  0
  4  7  1  0  0  0  0
  7  8  1  0  0  0  0
  7  9  1  0  0  0  0
  7 10  1  0  0  0  0
 10 11  1  0  0  0  0
 10 12  1  0  0  0  0
 10 13  1  0  0  0  0
 13 14  1  0  0  0  0
 13 15  1  0  0  0  0
 13 16  1  0  0  0  0
 16 17  1  0  0  0  0
 16 18  1  0  0  0  0
 16 19  1  0  0  0  0
 19 20  1  0  0  0  0
 19 21  1  0  0  0  0
 19 22  1  0  0  0  0
M  END
> <VM2 Rank>
34

> <Conf_Id>
455

> <Probability>
0.08

> <Sum Probability>
99.14

> <Delta G>
3.608

> <G>
-13.390

> <E>
-33.472

> <-TS>
20.083

> <U+W>
-51.357

> <U>
10.427

> <W>
-61.784

> <W(PB)>
-64.013

> <W(SA)>
2.228

> <Valence>
8.446

> <Coulomb>
1.305

> <VdW>
0.676

> <VdW6>
-8.928

> <VdW12>
9.604

> <Bond>
0.209

> <Angle>
3.066

> <Pdih>
5.170

> <Idih>
0.001

> <Tether>
0.000

$$$$
VeraChem MOL file


 22 21  0  0  0  0  0  0  0  0999 V2000     
   19.6730   18.8804   25.5139 C   0  0  0  0  0  0  0  0  0  0  0  0
   18.9841   19.6023   26.2078 O   0  5  0  0  0  0  0  0  0  0  0  0
   19.4835   17.6863   25.3912 O   0  0  0  0  0  0  0  0  0  0  0  0
   20.8581   19.5042   24.7822 C   0  0  0  0  0  0  0  0  0  0  0  0
   21.5239   18.7023   24.4438 H   0  0  0  0  0  0  0  0  0  0  0  0
   21.4250   20.0862   25.5181 H   0  0  0  0  0  0  0  0  0  0  0  0
   20.4598   20.4257   23.5967 C   0  0  0  0  0  0  0  0  0  0  0  0
   19.8604   21.2597   23.9872 H   0  0  0  0  0  0  0  0  0  0  0  0
   21.3663   20.8735   23.1678 H   0  0  0  0  0  0  0  0  0  0  0  0
   19.6586   19.7218   22.4736 C   0  0  0  0  0  0  0  0  0  0  0  0
   19.3544   20.4847   21.7460 H   0  0  0  0  0  0  0  0  0  0  0  0
   18.7318   19.3009   22.8869 H   0  0  0  0  0  0  0  0  0  0  0  0
   20.4572   18.6091   21.7514 C   0  0  0  0  0  0  0  0  0  0  0  0
   21.3941   19.0218   21.3534 H   0  0  0  0  0  0  0  0  0  0  0  0
   20.7383   17.8354   22.4775 H   0  0  0  0  0  0  0  0  0  0  0  0
   19.6660   17.9268   20.6110 C   0  0  0  0  0  0  0  0  0  0  0  0
   18.7210   17.5265   21.0035 H   0  0  0  0  0  0  0  0  0  0  0  0
   20.2426   17.0634   20.2516 H   0  0  0  0  0  0  0  0  0  0  0  0
   19.3797   18.8623   19.4161 C   0  0  0  0  0  0  0  0  0  0  0  0
   20.3085   19.3015   19.0295 H   0  0  0  0  0  0  0  0  0  0  0  0
   18.7034   19.6787   19.6979 H   0  0  0  0  0  0  0  0  0  0  0  0
   18.9038   18.3052   18.5987 H   0  0  0  0  0  0  0  0  0  0  0  0
  1  2  1  0  0  0  0
  1  3  2  0  0  0  0
  1  4  1  0  0  0  0
  4  5  1  0  0  0  0
  4  6  1  0  0  0  0
  4  7  1  0  0  0  0
  7  8  1  0  0  0  0
  7  9  1  0  0  0  0
  7 10  1  0  0  0  0
 10 11  1  0  0  0  0
 10 12  1  0  0  0  0
 10 13  1  0  0  0  0
 13 14  1  0  0  0  0
 13 15  1  0  0  0  0
 13 16  1  0  0  0  0
 16 17  1  0  0  0  0
 16 18  1  0  0  0  0
 16 19  1  0  0  0  0
 19 20  1  0  0  0  0
 19 21  1  0  0  0  0
 19 22  1  0  0  0  0
M  END
> <VM2 Rank>
35

> <Conf_Id>
247

> <Probability>
0.08

> <Sum Probability>
99.22

> <Delta G>
3.611

> <G>
-13.387

> <E>
-33.469

> <-TS>
20.083

> <U+W>
-51.354

> <U>
10.427

> <W>
-61.781

> <W(PB)>
-64.012

> <W(SA)>
2.231

> <Valence>
8.446

> <Coulomb>
1.305

> <VdW>
0.676

> <VdW6>
-8.928

> <VdW12>
9.604

> <Bond>
0.209

> <Angle>
3.066

> <Pdih>
5.170

> <Idih>
0.001

> <Tether>
0.000

$$$$
VeraChem MOL file


 22 21  0  0  0  0  0  0  0  0999 V2000     
   20.1428   19.0122   25.4413 C   0  0  0  0  0  0  0  0  0  0  0  0
   19.4496   19.3005   26.3972 O   0  5  0  0  0  0  0  0  0  0  0  0
   20.7683   17.9739   25.3542 O   0  0  0  0  0  0  0  0  0  0  0  0
   20.2557   20.0238   24.3042 C   0  0  0  0  0  0  0  0  0  0  0  0
   21.1087   19.7496   23.6730 H   0  0  0  0  0  0  0  0  0  0  0  0
   20.5006   20.9934   24.7531 H   0  0  0  0  0  0  0  0  0  0  0  0
   18.9664   20.1641   23.4496 C   0  0  0  0  0  0  0  0  0  0  0  0
   18.1486   20.5038   24.1000 H   0  0  0  0  0  0  0  0  0  0  0  0
   19.1096   20.9593   22.7067 H   0  0  0  0  0  0  0  0  0  0  0  0
   18.5241   18.8590   22.7386 C   0  0  0  0  0  0  0  0  0  0  0  0
   17.6038   19.0597   22.1735 H   0  0  0  0  0  0  0  0  0  0  0  0
   18.2546   18.1120   23.4978 H   0  0  0  0  0  0  0  0  0  0  0  0
   19.5735   18.2371   21.7834 C   0  0  0  0  0  0  0  0  0  0  0  0
   20.4605   17.9285   22.3526 H   0  0  0  0  0  0  0  0  0  0  0  0
   19.1509   17.3163   21.3590 H   0  0  0  0  0  0  0  0  0  0  0  0
   19.9913   19.1759   20.6293 C   0  0  0  0  0  0  0  0  0  0  0  0
   20.4862   20.0698   21.0313 H   0  0  0  0  0  0  0  0  0  0  0  0
   19.0984   19.5185   20.0886 H   0  0  0  0  0  0  0  0  0  0  0  0
   20.9483   18.4724   19.6461 C   0  0  0  0  0  0  0  0  0  0  0  0
   20.4716   17.5922   19.1952 H   0  0  0  0  0  0  0  0  0  0  0  0
   21.8628   18.1434   20.1569 H   0  0  0  0  0  0  0  0  0  0  0  0
   21.2389   19.1530   18.8353 H   0  0  0  0  0  0  0  0  0  0  0  0
  1  2  1  0  0  0  0
  1  3  2  0  0  0  0
  1  4  1  0  0  0  0
  4  5  1  0  0  0  0
  4  6  1  0  0  0  0
  4  7  1  0  0  0  0
  7  8  1  0  0  0  0
  7  9  1  0  0  0  0
  7 10  1  0  0  0  0
 10 11  1  0  0  0  0
 10 12  1  0  0  0  0
 10 13  1  0  0  0  0
 13 14  1  0  0  0  0
 13 15  1  0  0  0  0
 13 16  1  0  0  0  0
 16 17  1  0  0  0  0
 16 18  1  0  0  0  0
 16 19  1  0  0  0  0
 19 20  1  0  0  0  0
 19 21  1  0  0  0  0
 19 22  1  0  0  0  0
M  END
> <VM2 Rank>
36

> <Conf_Id>
304

> <Probability>
0.08

> <Sum Probability>
99.29

> <Delta G>
3.616

> <G>
-13.382

> <E>
-33.787

> <-TS>
20.405

> <U+W>
-51.672

> <U>
10.053

> <W>
-61.726

> <W(PB)>
-63.943

> <W(SA)>
2.217

> <Valence>
8.321

> <Coulomb>
1.288

> <VdW>
0.445

> <VdW6>
-9.397

> <VdW12>
9.842

> <Bond>
0.210

> <Angle>
3.152

> <Pdih>
4.957

> <Idih>
0.001

> <Tether>
0.000

$$$$
VeraChem MOL file


 22 21  0  0  0  0  0  0  0  0999 V2000     
   19.5612   19.4552   25.6327 C   0  0  0  0  0  0  0  0  0  0  0  0
   20.2022   20.4412   25.9387 O   0  5  0  0  0  0  0  0  0  0  0  0
   18.9725   18.7596   26.4365 O   0  0  0  0  0  0  0  0  0  0  0  0
   19.5117   19.0556   24.1624 C   0  0  0  0  0  0  0  0  0  0  0  0
   19.5361   19.9759   23.5681 H   0  0  0  0  0  0  0  0  0  0  0  0
   18.5489   18.5657   23.9744 H   0  0  0  0  0  0  0  0  0  0  0  0
   20.6780   18.1203   23.7549 C   0  0  0  0  0  0  0  0  0  0  0  0
   21.6296   18.6564   23.8745 H   0  0  0  0  0  0  0  0  0  0  0  0
   20.7118   17.2743   24.4553 H   0  0  0  0  0  0  0  0  0  0  0  0
   20.5746   17.5610   22.3137 C   0  0  0  0  0  0  0  0  0  0  0  0
   19.6737   16.9403   22.2134 H   0  0  0  0  0  0  0  0  0  0  0  0
   21.4238   16.8807   22.1615 H   0  0  0  0  0  0  0  0  0  0  0  0
   20.6129   18.6371   21.1991 C   0  0  0  0  0  0  0  0  0  0  0  0
   21.1770   19.5154   21.5416 H   0  0  0  0  0  0  0  0  0  0  0  0
   21.1694   18.2317   20.3429 H   0  0  0  0  0  0  0  0  0  0  0  0
   19.2096   19.0573   20.7042 C   0  0  0  0  0  0  0  0  0  0  0  0
   18.6061   19.4422   21.5348 H   0  0  0  0  0  0  0  0  0  0  0  0
   18.6799   18.1782   20.3119 H   0  0  0  0  0  0  0  0  0  0  0  0
   19.2973   20.1318   19.6019 C   0  0  0  0  0  0  0  0  0  0  0  0
   19.7944   21.0368   19.9751 H   0  0  0  0  0  0  0  0  0  0  0  0
   18.2944   20.4142   19.2562 H   0  0  0  0  0  0  0  0  0  0  0  0
   19.8625   19.7620   18.7364 H   0  0  0  0  0  0  0  0  0  0  0  0
  1  2  1  0  0  0  0
  1  3  2  0  0  0  0
  1  4  1  0  0  0  0
  4  5  1  0  0  0  0
  4  6  1  0  0  0  0
  4  7  1  0  0  0  0
  7  8  1  0  0  0  0
  7  9  1  0  0  0  0
  7 10  1  0  0  0  0
 10 11  1  0  0  0  0
 10 12  1  0  0  0  0
 10 13  1  0  0  0  0
 13 14  1  0  0  0  0
 13 15  1  0  0  0  0
 13 16  1  0  0  0  0
 16 17  1  0  0  0  0
 16 18  1  0  0  0  0
 16 19  1  0  0  0  0
 19 20  1  0  0  0  0
 19 21  1  0  0  0  0
 19 22  1  0  0  0  0
M  END
> <VM2 Rank>
37

> <Conf_Id>
6

> <Probability>
0.06

> <Sum Probability>
99.35

> <Delta G>
3.781

> <G>
-13.217

> <E>
-33.157

> <-TS>
19.940

> <U+W>
-51.042

> <U>
10.045

> <W>
-61.086

> <W(PB)>
-63.356

> <W(SA)>
2.270

> <Valence>
10.100

> <Coulomb>
-0.883

> <VdW>
0.828

> <VdW6>
-8.177

> <VdW12>
9.004

> <Bond>
0.182

> <Angle>
2.988

> <Pdih>
6.930

> <Idih>
0.001

> <Tether>
0.000

$$$$
VeraChem MOL file


 22 21  0  0  0  0  0  0  0  0999 V2000     
   20.0533   18.7869   25.3436 C   0  0  0  0  0  0  0  0  0  0  0  0
   19.1664   18.4787   26.1155 O   0  5  0  0  0  0  0  0  0  0  0  0
   20.9814   18.0554   25.0599 O   0  0  0  0  0  0  0  0  0  0  0  0
   20.0162   20.1820   24.7258 C   0  0  0  0  0  0  0  0  0  0  0  0
   20.9913   20.3908   24.2710 H   0  0  0  0  0  0  0  0  0  0  0  0
   19.8970   20.8984   25.5469 H   0  0  0  0  0  0  0  0  0  0  0  0
   18.8746   20.3899   23.6932 C   0  0  0  0  0  0  0  0  0  0  0  0
   17.9103   20.2397   24.1980 H   0  0  0  0  0  0  0  0  0  0  0  0
   18.8835   21.4339   23.3519 H   0  0  0  0  0  0  0  0  0  0  0  0
   18.9459   19.4509   22.4641 C   0  0  0  0  0  0  0  0  0  0  0  0
   18.0641   19.6323   21.8349 H   0  0  0  0  0  0  0  0  0  0  0  0
   18.8792   18.4074   22.7995 H   0  0  0  0  0  0  0  0  0  0  0  0
   20.2239   19.6502   21.6137 C   0  0  0  0  0  0  0  0  0  0  0  0
   20.3499   20.7201   21.3993 H   0  0  0  0  0  0  0  0  0  0  0  0
   21.1068   19.3382   22.1875 H   0  0  0  0  0  0  0  0  0  0  0  0
   20.1930   18.8790   20.2737 C   0  0  0  0  0  0  0  0  0  0  0  0
   21.0829   19.1511   19.6895 H   0  0  0  0  0  0  0  0  0  0  0  0
   19.3238   19.1972   19.6818 H   0  0  0  0  0  0  0  0  0  0  0  0
   20.1653   17.3459   20.4544 C   0  0  0  0  0  0  0  0  0  0  0  0
   21.0089   17.0082   21.0707 H   0  0  0  0  0  0  0  0  0  0  0  0
   20.2336   16.8426   19.4813 H   0  0  0  0  0  0  0  0  0  0  0  0
   19.2355   17.0168   20.9351 H   0  0  0  0  0  0  0  0  0  0  0  0
  1  2  1  0  0  0  0
  1  3  2  0  0  0  0
  1  4  1  0  0  0  0
  4  5  1  0  0  0  0
  4  6  1  0  0  0  0
  4  7  1  0  0  0  0
  7  8  1  0  0  0  0
  7  9  1  0  0  0  0
  7 10  1  0  0  0  0
 10 11  1  0  0  0  0
 10 12  1  0  0  0  0
 10 13  1  0  0  0  0
 13 14  1  0  0  0  0
 13 15  1  0  0  0  0
 13 16  1  0  0  0  0
 16 17  1  0  0  0  0
 16 18  1  0  0  0  0
 16 19  1  0  0  0  0
 19 20  1  0  0  0  0
 19 21  1  0  0  0  0
 19 22  1  0  0  0  0
M  END
> <VM2 Rank>
38

> <Conf_Id>
92

> <Probability>
0.06

> <Sum Probability>
99.41

> <Delta G>
3.789

> <G>
-13.209

> <E>
-33.371

> <-TS>
20.162

> <U+W>
-51.256

> <U>
10.893

> <W>
-62.149

> <W(PB)>
-64.367

> <W(SA)>
2.218

> <Valence>
8.348

> <Coulomb>
2.011

> <VdW>
0.534

> <VdW6>
-9.124

> <VdW12>
9.658

> <Bond>
0.201

> <Angle>
2.939

> <Pdih>
5.207

> <Idih>
0.002

> <Tether>
0.000

$$$$
VeraChem MOL file


 22 21  0  0  0  0  0  0  0  0999 V2000     
   20.2732   18.9625   25.2360 C   0  0  0  0  0  0  0  0  0  0  0  0
   20.7592   20.0453   25.4983 O   0  5  0  0  0  0  0  0  0  0  0  0
   20.9149   17.9309   25.1997 O   0  0  0  0  0  0  0  0  0  0  0  0
   18.7649   18.8803   25.0091 C   0  0  0  0  0  0  0  0  0  0  0  0
   18.2946   19.1805   25.9527 H   0  0  0  0  0  0  0  0  0  0  0  0
   18.4863   17.8333   24.8390 H   0  0  0  0  0  0  0  0  0  0  0  0
   18.2162   19.7765   23.8633 C   0  0  0  0  0  0  0  0  0  0  0  0
   17.1402   19.9199   24.0310 H   0  0  0  0  0  0  0  0  0  0  0  0
   18.6669   20.7770   23.9216 H   0  0  0  0  0  0  0  0  0  0  0  0
   18.3978   19.1942   22.4396 C   0  0  0  0  0  0  0  0  0  0  0  0
   17.8409   19.8292   21.7370 H   0  0  0  0  0  0  0  0  0  0  0  0
   17.9380   18.1980   22.3862 H   0  0  0  0  0  0  0  0  0  0  0  0
   19.8696   19.1127   21.9750 C   0  0  0  0  0  0  0  0  0  0  0  0
   20.3584   20.0851   22.1250 H   0  0  0  0  0  0  0  0  0  0  0  0
   20.4138   18.3817   22.5863 H   0  0  0  0  0  0  0  0  0  0  0  0
   19.9775   18.7031   20.4909 C   0  0  0  0  0  0  0  0  0  0  0  0
   19.4439   19.4316   19.8649 H   0  0  0  0  0  0  0  0  0  0  0  0
   19.4875   17.7314   20.3390 H   0  0  0  0  0  0  0  0  0  0  0  0
   21.4468   18.6135   20.0321 C   0  0  0  0  0  0  0  0  0  0  0  0
   21.5053   18.3204   18.9758 H   0  0  0  0  0  0  0  0  0  0  0  0
   21.9973   17.8689   20.6219 H   0  0  0  0  0  0  0  0  0  0  0  0
   21.9527   19.5814   20.1442 H   0  0  0  0  0  0  0  0  0  0  0  0
  1  2  1  0  0  0  0
  1  3  2  0  0  0  0
  1  4  1  0  0  0  0
  4  5  1  0  0  0  0
  4  6  1  0  0  0  0
  4  7  1  0  0  0  0
  7  8  1  0  0  0  0
  7  9  1  0  0  0  0
  7 10  1  0  0  0  0
 10 11  1  0  0  0  0
 10 12  1  0  0  0  0
 10 13  1  0  0  0  0
 13 14  1  0  0  0  0
 13 15  1  0  0  0  0
 13 16  1  0  0  0  0
 16 17  1  0  0  0  0
 16 18  1  0  0  0  0
 16 19  1  0  0  0  0
 19 20  1  0  0  0  0
 19 21  1  0  0  0  0
 19 22  1  0  0  0  0
M  END
> <VM2 Rank>
39

> <Conf_Id>
64

> <Probability>
0.06

> <Sum Probability>
99.46

> <Delta G>
3.798

> <G>
-13.200

> <E>
-33.389

> <-TS>
20.189

> <U+W>
-51.274

> <U>
11.237

> <W>
-62.511

> <W(PB)>
-64.778

> <W(SA)>
2.267

> <Valence>
9.029

> <Coulomb>
1.667

> <VdW>
0.540

> <VdW6>
-8.825

> <VdW12>
9.364

> <Bond>
0.186

> <Angle>
3.195

> <Pdih>
5.641

> <Idih>
0.007

> <Tether>
0.000

$$$$
VeraChem MOL file


 22 21  0  0  0  0  0  0  0  0999 V2000     
   19.5997   18.7443   25.6600 C   0  0  0  0  0  0  0  0  0  0  0  0
   18.9363   19.4320   26.4107 O   0  5  0  0  0  0  0  0  0  0  0  0
   20.3416   17.8592   26.0377 O   0  0  0  0  0  0  0  0  0  0  0  0
   19.5134   19.0228   24.1636 C   0  0  0  0  0  0  0  0  0  0  0  0
   18.5043   19.3904   23.9428 H   0  0  0  0  0  0  0  0  0  0  0  0
   19.6393   18.0677   23.6413 H   0  0  0  0  0  0  0  0  0  0  0  0
   20.5740   20.0443   23.6811 C   0  0  0  0  0  0  0  0  0  0  0  0
   20.5137   20.9400   24.3147 H   0  0  0  0  0  0  0  0  0  0  0  0
   21.5773   19.6244   23.8374 H   0  0  0  0  0  0  0  0  0  0  0  0
   20.4170   20.4775   22.2018 C   0  0  0  0  0  0  0  0  0  0  0  0
   21.1887   21.2315   21.9946 H   0  0  0  0  0  0  0  0  0  0  0  0
   19.4550   20.9882   22.0581 H   0  0  0  0  0  0  0  0  0  0  0  0
   20.5755   19.3298   21.1725 C   0  0  0  0  0  0  0  0  0  0  0  0
   21.0887   19.7261   20.2857 H   0  0  0  0  0  0  0  0  0  0  0  0
   21.2293   18.5459   21.5789 H   0  0  0  0  0  0  0  0  0  0  0  0
   19.2276   18.7245   20.7169 C   0  0  0  0  0  0  0  0  0  0  0  0
   18.6081   19.5090   20.2608 H   0  0  0  0  0  0  0  0  0  0  0  0
   18.6656   18.3415   21.5770 H   0  0  0  0  0  0  0  0  0  0  0  0
   19.4349   17.5846   19.6996 C   0  0  0  0  0  0  0  0  0  0  0  0
   19.9606   17.9459   18.8060 H   0  0  0  0  0  0  0  0  0  0  0  0
   18.4696   17.1704   19.3807 H   0  0  0  0  0  0  0  0  0  0  0  0
   20.0250   16.7696   20.1388 H   0  0  0  0  0  0  0  0  0  0  0  0
  1  2  1  0  0  0  0
  1  3  2  0  0  0  0
  1  4  1  0  0  0  0
  4  5  1  0  0  0  0
  4  6  1  0  0  0  0
  4  7  1  0  0  0  0
  7  8  1  0  0  0  0
  7  9  1  0  0  0  0
  7 10  1  0  0  0  0
 10 11  1  0  0  0  0
 10 12  1  0  0  0  0
 10 13  1  0  0  0  0
 13 14  1  0  0  0  0
 13 15  1  0  0  0  0
 13 16  1  0  0  0  0
 16 17  1  0  0  0  0
 16 18  1  0  0  0  0
 16 19  1  0  0  0  0
 19 20  1  0  0  0  0
 19 21  1  0  0  0  0
 19 22  1  0  0  0  0
M  END
> <VM2 Rank>
40

> <Conf_Id>
537

> <Probability>
0.05

> <Sum Probability>
99.52

> <Delta G>
3.828

> <G>
-13.170

> <E>
-33.110

> <-TS>
19.940

> <U+W>
-50.994

> <U>
10.045

> <W>
-61.039

> <W(PB)>
-63.312

> <W(SA)>
2.273

> <Valence>
10.100

> <Coulomb>
-0.883

> <VdW>
0.828

> <VdW6>
-8.177

> <VdW12>
9.005

> <Bond>
0.182

> <Angle>
2.988

> <Pdih>
6.930

> <Idih>
0.001

> <Tether>
0.000

$$$$
VeraChem MOL file


 22 21  0  0  0  0  0  0  0  0999 V2000     
   20.1990   18.9450   25.3360 C   0  0  0  0  0  0  0  0  0  0  0  0
   20.4693   19.8936   26.0464 O   0  5  0  0  0  0  0  0  0  0  0  0
   20.9907   18.0655   25.0595 O   0  0  0  0  0  0  0  0  0  0  0  0
   18.7773   18.8367   24.7913 C   0  0  0  0  0  0  0  0  0  0  0  0
   18.0941   18.9406   25.6422 H   0  0  0  0  0  0  0  0  0  0  0  0
   18.6288   17.8254   24.3959 H   0  0  0  0  0  0  0  0  0  0  0  0
   18.4252   19.9019   23.7170 C   0  0  0  0  0  0  0  0  0  0  0  0
   17.3703   19.7906   23.4319 H   0  0  0  0  0  0  0  0  0  0  0  0
   18.5187   20.9004   24.1659 H   0  0  0  0  0  0  0  0  0  0  0  0
   19.3063   19.8421   22.4451 C   0  0  0  0  0  0  0  0  0  0  0  0
   20.3556   20.0106   22.7215 H   0  0  0  0  0  0  0  0  0  0  0  0
   19.0216   20.6721   21.7843 H   0  0  0  0  0  0  0  0  0  0  0  0
   19.1732   18.5092   21.6693 C   0  0  0  0  0  0  0  0  0  0  0  0
   19.5853   17.6859   22.2680 H   0  0  0  0  0  0  0  0  0  0  0  0
   18.1085   18.2860   21.5178 H   0  0  0  0  0  0  0  0  0  0  0  0
   19.8733   18.5318   20.2906 C   0  0  0  0  0  0  0  0  0  0  0  0
   19.4553   19.3401   19.6748 H   0  0  0  0  0  0  0  0  0  0  0  0
   19.6485   17.5933   19.7654 H   0  0  0  0  0  0  0  0  0  0  0  0
   21.4057   18.6931   20.3888 C   0  0  0  0  0  0  0  0  0  0  0  0
   21.6790   19.6705   20.8058 H   0  0  0  0  0  0  0  0  0  0  0  0
   21.8652   18.6146   19.3950 H   0  0  0  0  0  0  0  0  0  0  0  0
   21.8421   17.9133   21.0266 H   0  0  0  0  0  0  0  0  0  0  0  0
  1  2  1  0  0  0  0
  1  3  2  0  0  0  0
  1  4  1  0  0  0  0
  4  5  1  0  0  0  0
  4  6  1  0  0  0  0
  4  7  1  0  0  0  0
  7  8  1  0  0  0  0
  7  9  1  0  0  0  0
  7 10  1  0  0  0  0
 10 11  1  0  0  0  0
 10 12  1  0  0  0  0
 10 13  1  0  0  0  0
 13 14  1  0  0  0  0
 13 15  1  0  0  0  0
 13 16  1  0  0  0  0
 16 17  1  0  0  0  0
 16 18  1  0  0  0  0
 16 19  1  0  0  0  0
 19 20  1  0  0  0  0
 19 21  1  0  0  0  0
 19 22  1  0  0  0  0
M  END
> <VM2 Rank>
41

> <Conf_Id>
468

> <Probability>
0.05

> <Sum Probability>
99.57

> <Delta G>
3.830

> <G>
-13.168

> <E>
-33.331

> <-TS>
20.163

> <U+W>
-51.215

> <U>
10.893

> <W>
-62.109

> <W(PB)>
-64.322

> <W(SA)>
2.214

> <Valence>
8.348

> <Coulomb>
2.011

> <VdW>
0.534

> <VdW6>
-9.124

> <VdW12>
9.658

> <Bond>
0.201

> <Angle>
2.939

> <Pdih>
5.206

> <Idih>
0.002

> <Tether>
0.000

$$$$
VeraChem MOL file


 22 21  0  0  0  0  0  0  0  0999 V2000     
   20.2561   19.2791   25.2238 C   0  0  0  0  0  0  0  0  0  0  0  0
   20.7830   20.3680   25.1064 O   0  5  0  0  0  0  0  0  0  0  0  0
   20.8549   18.2781   25.5659 O   0  0  0  0  0  0  0  0  0  0  0  0
   18.7486   19.1807   24.9976 C   0  0  0  0  0  0  0  0  0  0  0  0
   18.3596   20.1756   24.7492 H   0  0  0  0  0  0  0  0  0  0  0  0
   18.3096   18.9046   25.9633 H   0  0  0  0  0  0  0  0  0  0  0  0
   18.3043   18.1459   23.9258 C   0  0  0  0  0  0  0  0  0  0  0  0
   18.8599   17.2071   24.0585 H   0  0  0  0  0  0  0  0  0  0  0  0
   17.2493   17.9007   24.1084 H   0  0  0  0  0  0  0  0  0  0  0  0
   18.4281   18.6339   22.4611 C   0  0  0  0  0  0  0  0  0  0  0  0
   17.8640   19.5679   22.3337 H   0  0  0  0  0  0  0  0  0  0  0  0
   17.9456   17.8909   21.8114 H   0  0  0  0  0  0  0  0  0  0  0  0
   19.8844   18.8376   21.9856 C   0  0  0  0  0  0  0  0  0  0  0  0
   20.3443   19.6674   22.5370 H   0  0  0  0  0  0  0  0  0  0  0  0
   20.4744   17.9377   22.2073 H   0  0  0  0  0  0  0  0  0  0  0  0
   19.9537   19.1420   20.4741 C   0  0  0  0  0  0  0  0  0  0  0  0
   19.3627   20.0409   20.2505 H   0  0  0  0  0  0  0  0  0  0  0  0
   19.5042   18.3147   19.9076 H   0  0  0  0  0  0  0  0  0  0  0  0
   21.4067   19.3538   20.0037 C   0  0  0  0  0  0  0  0  0  0  0  0
   21.8715   20.1962   20.5327 H   0  0  0  0  0  0  0  0  0  0  0  0
   21.4378   19.5701   18.9279 H   0  0  0  0  0  0  0  0  0  0  0  0
   22.0134   18.4574   20.1873 H   0  0  0  0  0  0  0  0  0  0  0  0
  1  2  1  0  0  0  0
  1  3  2  0  0  0  0
  1  4  1  0  0  0  0
  4  5  1  0  0  0  0
  4  6  1  0  0  0  0
  4  7  1  0  0  0  0
  7  8  1  0  0  0  0
  7  9  1  0  0  0  0
  7 10  1  0  0  0  0
 10 11  1  0  0  0  0
 10 12  1  0  0  0  0
 10 13  1  0  0  0  0
 13 14  1  0  0  0  0
 13 15  1  0  0  0  0
 13 16  1  0  0  0  0
 16 17  1  0  0  0  0
 16 18  1  0  0  0  0
 16 19  1  0  0  0  0
 19 20  1  0  0  0  0
 19 21  1  0  0  0  0
 19 22  1  0  0  0  0
M  END
> <VM2 Rank>
42

> <Conf_Id>
268

> <Probability>
0.05

> <Sum Probability>
99.62

> <Delta G>
3.841

> <G>
-13.157

> <E>
-33.345

> <-TS>
20.188

> <U+W>
-51.230

> <U>
11.237

> <W>
-62.466

> <W(PB)>
-64.732

> <W(SA)>
2.265

> <Valence>
9.029

> <Coulomb>
1.667

> <VdW>
0.540

> <VdW6>
-8.824

> <VdW12>
9.364

> <Bond>
0.186

> <Angle>
3.195

> <Pdih>
5.641

> <Idih>
0.007

> <Tether>
0.000

$$$$
VeraChem MOL file


 22 21  0  0  0  0  0  0  0  0999 V2000     
   20.2410   19.0743   25.6525 C   0  0  0  0  0  0  0  0  0  0  0  0
   19.6695   19.5004   26.6365 O   0  5  0  0  0  0  0  0  0  0  0  0
   21.0468   18.1654   25.6831 O   0  0  0  0  0  0  0  0  0  0  0  0
   19.9138   19.7015   24.3022 C   0  0  0  0  0  0  0  0  0  0  0  0
   20.8166   19.6589   23.6850 H   0  0  0  0  0  0  0  0  0  0  0  0
   19.6902   20.7622   24.4674 H   0  0  0  0  0  0  0  0  0  0  0  0
   18.7185   19.0109   23.5936 C   0  0  0  0  0  0  0  0  0  0  0  0
   18.9119   17.9345   23.4871 H   0  0  0  0  0  0  0  0  0  0  0  0
   17.8404   19.1001   24.2481 H   0  0  0  0  0  0  0  0  0  0  0  0
   18.3760   19.6335   22.2163 C   0  0  0  0  0  0  0  0  0  0  0  0
   18.6501   20.6973   22.2002 H   0  0  0  0  0  0  0  0  0  0  0  0
   17.2851   19.6048   22.0901 H   0  0  0  0  0  0  0  0  0  0  0  0
   19.0042   18.9041   21.0023 C   0  0  0  0  0  0  0  0  0  0  0  0
   18.6443   17.8665   20.9739 H   0  0  0  0  0  0  0  0  0  0  0  0
   18.6352   19.3827   20.0848 H   0  0  0  0  0  0  0  0  0  0  0  0
   20.5482   18.9110   20.9844 C   0  0  0  0  0  0  0  0  0  0  0  0
   20.9330   18.3245   21.8291 H   0  0  0  0  0  0  0  0  0  0  0  0
   20.9172   19.9387   21.1053 H   0  0  0  0  0  0  0  0  0  0  0  0
   21.1020   18.3179   19.6732 C   0  0  0  0  0  0  0  0  0  0  0  0
   20.7676   17.2807   19.5397 H   0  0  0  0  0  0  0  0  0  0  0  0
   22.1997   18.3219   19.6805 H   0  0  0  0  0  0  0  0  0  0  0  0
   20.7670   18.9008   18.8053 H   0  0  0  0  0  0  0  0  0  0  0  0
  1  2  1  0  0  0  0
  1  3  2  0  0  0  0
  1  4  1  0  0  0  0
  4  5  1  0  0  0  0
  4  6  1  0  0  0  0
  4  7  1  0  0  0  0
  7  8  1  0  0  0  0
  7  9  1  0  0  0  0
  7 10  1  0  0  0  0
 10 11  1  0  0  0  0
 10 12  1  0  0  0  0
 10 13  1  0  0  0  0
 13 14  1  0  0  0  0
 13 15  1  0  0  0  0
 13 16  1  0  0  0  0
 16 17  1  0  0  0  0
 16 18  1  0  0  0  0
 16 19  1  0  0  0  0
 19 20  1  0  0  0  0
 19 21  1  0  0  0  0
 19 22  1  0  0  0  0
M  END
> <VM2 Rank>
43

> <Conf_Id>
69

> <Probability>
0.05

> <Sum Probability>
99.67

> <Delta G>
3.884

> <G>
-13.115

> <E>
-33.060

> <-TS>
19.946

> <U+W>
-50.945

> <U>
10.205

> <W>
-61.150

> <W(PB)>
-63.413

> <W(SA)>
2.262

> <Valence>
10.107

> <Coulomb>
-0.699

> <VdW>
0.797

> <VdW6>
-8.211

> <VdW12>
9.008

> <Bond>
0.191

> <Angle>
3.004

> <Pdih>
6.912

> <Idih>
0.001

> <Tether>
0.000

$$$$
VeraChem MOL file


 22 21  0  0  0  0  0  0  0  0999 V2000     
   20.2344   19.1968   25.6477 C   0  0  0  0  0  0  0  0  0  0  0  0
   20.9372   20.1870   25.6055 O   0  5  0  0  0  0  0  0  0  0  0  0
   19.7080   18.7879   26.6638 O   0  0  0  0  0  0  0  0  0  0  0  0
   19.9824   18.4365   24.3507 C   0  0  0  0  0  0  0  0  0  0  0  0
   19.8741   17.3736   24.5974 H   0  0  0  0  0  0  0  0  0  0  0  0
   20.8779   18.5292   23.7283 H   0  0  0  0  0  0  0  0  0  0  0  0
   18.7225   18.9377   23.5964 C   0  0  0  0  0  0  0  0  0  0  0  0
   17.8565   18.8043   24.2595 H   0  0  0  0  0  0  0  0  0  0  0  0
   18.7987   20.0174   23.4073 H   0  0  0  0  0  0  0  0  0  0  0  0
   18.4550   18.1783   22.2721 C   0  0  0  0  0  0  0  0  0  0  0  0
   17.3679   18.0792   22.1485 H   0  0  0  0  0  0  0  0  0  0  0  0
   18.8425   17.1524   22.3362 H   0  0  0  0  0  0  0  0  0  0  0  0
   19.0057   18.8766   21.0033 C   0  0  0  0  0  0  0  0  0  0  0  0
   18.6945   18.2922   20.1267 H   0  0  0  0  0  0  0  0  0  0  0  0
   18.5359   19.8639   20.8973 H   0  0  0  0  0  0  0  0  0  0  0  0
   20.5414   19.0353   20.9797 C   0  0  0  0  0  0  0  0  0  0  0  0
   21.0189   18.0657   21.1772 H   0  0  0  0  0  0  0  0  0  0  0  0
   20.8571   19.7227   21.7756 H   0  0  0  0  0  0  0  0  0  0  0  0
   21.0334   19.5829   19.6248 C   0  0  0  0  0  0  0  0  0  0  0  0
   22.1251   19.6981   19.6278 H   0  0  0  0  0  0  0  0  0  0  0  0
   20.5894   20.5646   19.4138 H   0  0  0  0  0  0  0  0  0  0  0  0
   20.7670   18.9026   18.8053 H   0  0  0  0  0  0  0  0  0  0  0  0
  1  2  1  0  0  0  0
  1  3  2  0  0  0  0
  1  4  1  0  0  0  0
  4  5  1  0  0  0  0
  4  6  1  0  0  0  0
  4  7  1  0  0  0  0
  7  8  1  0  0  0  0
  7  9  1  0  0  0  0
  7 10  1  0  0  0  0
 10 11  1  0  0  0  0
 10 12  1  0  0  0  0
 10 13  1  0  0  0  0
 13 14  1  0  0  0  0
 13 15  1  0  0  0  0
 13 16  1  0  0  0  0
 16 17  1  0  0  0  0
 16 18  1  0  0  0  0
 16 19  1  0  0  0  0
 19 20  1  0  0  0  0
 19 21  1  0  0  0  0
 19 22  1  0  0  0  0
M  END
> <VM2 Rank>
44

> <Conf_Id>
567

> <Probability>
0.05

> <Sum Probability>
99.71

> <Delta G>
3.908

> <G>
-13.090

> <E>
-33.035

> <-TS>
19.945

> <U+W>
-50.920

> <U>
10.205

> <W>
-61.125

> <W(PB)>
-63.384

> <W(SA)>
2.259

> <Valence>
10.107

> <Coulomb>
-0.699

> <VdW>
0.797

> <VdW6>
-8.212

> <VdW12>
9.009

> <Bond>
0.191

> <Angle>
3.004

> <Pdih>
6.911

> <Idih>
0.001

> <Tether>
0.000

$$$$
VeraChem MOL file


 22 21  0  0  0  0  0  0  0  0999 V2000     
   19.6478   19.3697   25.7715 C   0  0  0  0  0  0  0  0  0  0  0  0
   20.4778   20.1189   26.2472 O   0  5  0  0  0  0  0  0  0  0  0  0
   18.4651   19.4137   26.0467 O   0  0  0  0  0  0  0  0  0  0  0  0
   20.1137   18.3277   24.7608 C   0  0  0  0  0  0  0  0  0  0  0  0
   19.4702   17.4452   24.8596 H   0  0  0  0  0  0  0  0  0  0  0  0
   21.1304   18.0201   25.0331 H   0  0  0  0  0  0  0  0  0  0  0  0
   20.0845   18.8491   23.3029 C   0  0  0  0  0  0  0  0  0  0  0  0
   19.0614   19.1661   23.0624 H   0  0  0  0  0  0  0  0  0  0  0  0
   20.7278   19.7361   23.2208 H   0  0  0  0  0  0  0  0  0  0  0  0
   20.5486   17.7714   22.2979 C   0  0  0  0  0  0  0  0  0  0  0  0
   19.8465   16.9267   22.3184 H   0  0  0  0  0  0  0  0  0  0  0  0
   21.5191   17.3735   22.6246 H   0  0  0  0  0  0  0  0  0  0  0  0
   20.6987   18.2807   20.8424 C   0  0  0  0  0  0  0  0  0  0  0  0
   21.4675   19.0641   20.7945 H   0  0  0  0  0  0  0  0  0  0  0  0
   21.0845   17.4473   20.2395 H   0  0  0  0  0  0  0  0  0  0  0  0
   19.3845   18.7784   20.1905 C   0  0  0  0  0  0  0  0  0  0  0  0
   18.5207   18.2623   20.6319 H   0  0  0  0  0  0  0  0  0  0  0  0
   19.3940   18.5026   19.1270 H   0  0  0  0  0  0  0  0  0  0  0  0
   19.1992   20.3094   20.2841 C   0  0  0  0  0  0  0  0  0  0  0  0
   20.0238   20.8335   19.7835 H   0  0  0  0  0  0  0  0  0  0  0  0
   19.1617   20.6537   21.3238 H   0  0  0  0  0  0  0  0  0  0  0  0
   18.2638   20.6132   19.7968 H   0  0  0  0  0  0  0  0  0  0  0  0
  1  2  1  0  0  0  0
  1  3  2  0  0  0  0
  1  4  1  0  0  0  0
  4  5  1  0  0  0  0
  4  6  1  0  0  0  0
  4  7  1  0  0  0  0
  7  8  1  0  0  0  0
  7  9  1  0  0  0  0
  7 10  1  0  0  0  0
 10 11  1  0  0  0  0
 10 12  1  0  0  0  0
 10 13  1  0  0  0  0
 13 14  1  0  0  0  0
 13 15  1  0  0  0  0
 13 16  1  0  0  0  0
 16 17  1  0  0  0  0
 16 18  1  0  0  0  0
 16 19  1  0  0  0  0
 19 20  1  0  0  0  0
 19 21  1  0  0  0  0
 19 22  1  0  0  0  0
M  END
> <VM2 Rank>
45

> <Conf_Id>
536

> <Probability>
0.04

> <Sum Probability>
99.76

> <Delta G>
3.937

> <G>
-13.061

> <E>
-32.970

> <-TS>
19.909

> <U+W>
-50.855

> <U>
10.452

> <W>
-61.308

> <W(PB)>
-63.579

> <W(SA)>
2.272

> <Valence>
10.097

> <Coulomb>
-0.504

> <VdW>
0.859

> <VdW6>
-8.064

> <VdW12>
8.923

> <Bond>
0.175

> <Angle>
2.998

> <Pdih>
6.924

> <Idih>
0.000

> <Tether>
0.000

$$$$
VeraChem MOL file


 22 21  0  0  0  0  0  0  0  0999 V2000     
   20.0182   19.3277   25.8196 C   0  0  0  0  0  0  0  0  0  0  0  0
   20.5360   20.4188   25.9528 O   0  5  0  0  0  0  0  0  0  0  0  0
   20.2274   18.3883   26.5615 O   0  0  0  0  0  0  0  0  0  0  0  0
   19.0675   19.1201   24.6459 C   0  0  0  0  0  0  0  0  0  0  0  0
   18.5653   20.0734   24.4414 H   0  0  0  0  0  0  0  0  0  0  0  0
   18.2948   18.4062   24.9555 H   0  0  0  0  0  0  0  0  0  0  0  0
   19.7862   18.6119   23.3719 C   0  0  0  0  0  0  0  0  0  0  0  0
   20.5693   19.3273   23.0933 H   0  0  0  0  0  0  0  0  0  0  0  0
   20.2932   17.6637   23.5979 H   0  0  0  0  0  0  0  0  0  0  0  0
   18.7980   18.4041   22.1999 C   0  0  0  0  0  0  0  0  0  0  0  0
   18.2439   19.3309   21.9977 H   0  0  0  0  0  0  0  0  0  0  0  0
   18.0503   17.6617   22.5107 H   0  0  0  0  0  0  0  0  0  0  0  0
   19.4810   17.9000   20.9033 C   0  0  0  0  0  0  0  0  0  0  0  0
   20.3759   17.3115   21.1477 H   0  0  0  0  0  0  0  0  0  0  0  0
   18.7934   17.2038   20.4040 H   0  0  0  0  0  0  0  0  0  0  0  0
   19.8372   19.0120   19.8858 C   0  0  0  0  0  0  0  0  0  0  0  0
   18.9224   19.5385   19.5806 H   0  0  0  0  0  0  0  0  0  0  0  0
   20.2364   18.5387   18.9781 H   0  0  0  0  0  0  0  0  0  0  0  0
   20.8685   20.0360   20.4032 C   0  0  0  0  0  0  0  0  0  0  0  0
   20.4478   20.6473   21.2114 H   0  0  0  0  0  0  0  0  0  0  0  0
   21.1708   20.7170   19.5972 H   0  0  0  0  0  0  0  0  0  0  0  0
   21.7695   19.5332   20.7779 H   0  0  0  0  0  0  0  0  0  0  0  0
  1  2  1  0  0  0  0
  1  3  2  0  0  0  0
  1  4  1  0  0  0  0
  4  5  1  0  0  0  0
  4  6  1  0  0  0  0
  4  7  1  0  0  0  0
  7  8  1  0  0  0  0
  7  9  1  0  0  0  0
  7 10  1  0  0  0  0
 10 11  1  0  0  0  0
 10 12  1  0  0  0  0
 10 13  1  0  0  0  0
 13 14  1  0  0  0  0
 13 15  1  0  0  0  0
 13 16  1  0  0  0  0
 16 17  1  0  0  0  0
 16 18  1  0  0  0  0
 16 19  1  0  0  0  0
 19 20  1  0  0  0  0
 19 21  1  0  0  0  0
 19 22  1  0  0  0  0
M  END
> <VM2 Rank>
46

> <Conf_Id>
464

> <Probability>
0.04

> <Sum Probability>
99.80

> <Delta G>
3.974

> <G>
-13.024

> <E>
-32.932

> <-TS>
19.908

> <U+W>
-50.817

> <U>
10.295

> <W>
-61.112

> <W(PB)>
-63.368

> <W(SA)>
2.256

> <Valence>
10.075

> <Coulomb>
-0.615

> <VdW>
0.835

> <VdW6>
-8.072

> <VdW12>
8.907

> <Bond>
0.176

> <Angle>
2.976

> <Pdih>
6.922

> <Idih>
0.000

> <Tether>
0.000

$$$$
VeraChem MOL file


 22 21  0  0  0  0  0  0  0  0999 V2000     
   19.6755   18.8493   25.7914 C   0  0  0  0  0  0  0  0  0  0  0  0
   18.5030   18.7016   26.0740 O   0  5  0  0  0  0  0  0  0  0  0  0
   20.5781   18.2306   26.3196 O   0  0  0  0  0  0  0  0  0  0  0  0
   20.0327   19.8545   24.7022 C   0  0  0  0  0  0  0  0  0  0  0  0
   21.0101   20.2878   24.9462 H   0  0  0  0  0  0  0  0  0  0  0  0
   19.2990   20.6689   24.7359 H   0  0  0  0  0  0  0  0  0  0  0  0
   20.0647   19.2230   23.2885 C   0  0  0  0  0  0  0  0  0  0  0  0
   20.7985   18.4055   23.2718 H   0  0  0  0  0  0  0  0  0  0  0  0
   19.0818   18.7822   23.0771 H   0  0  0  0  0  0  0  0  0  0  0  0
   20.4161   20.2639   22.2023 C   0  0  0  0  0  0  0  0  0  0  0  0
   21.3378   20.7860   22.4937 H   0  0  0  0  0  0  0  0  0  0  0  0
   19.6285   21.0287   22.1611 H   0  0  0  0  0  0  0  0  0  0  0  0
   20.6252   19.6637   20.7894 C   0  0  0  0  0  0  0  0  0  0  0  0
   20.9231   20.4847   20.1230 H   0  0  0  0  0  0  0  0  0  0  0  0
   21.4727   18.9647   20.7983 H   0  0  0  0  0  0  0  0  0  0  0  0
   19.3736   18.9814   20.1827 C   0  0  0  0  0  0  0  0  0  0  0  0
   19.3583   19.1746   19.1012 H   0  0  0  0  0  0  0  0  0  0  0  0
   18.4584   19.4354   20.5869 H   0  0  0  0  0  0  0  0  0  0  0  0
   19.3510   17.4510   20.3937 C   0  0  0  0  0  0  0  0  0  0  0  0
   20.2285   16.9804   19.9314 H   0  0  0  0  0  0  0  0  0  0  0  0
   18.4550   17.0136   19.9348 H   0  0  0  0  0  0  0  0  0  0  0  0
   19.3458   17.1851   21.4568 H   0  0  0  0  0  0  0  0  0  0  0  0
  1  2  1  0  0  0  0
  1  3  2  0  0  0  0
  1  4  1  0  0  0  0
  4  5  1  0  0  0  0
  4  6  1  0  0  0  0
  4  7  1  0  0  0  0
  7  8  1  0  0  0  0
  7  9  1  0  0  0  0
  7 10  1  0  0  0  0
 10 11  1  0  0  0  0
 10 12  1  0  0  0  0
 10 13  1  0  0  0  0
 13 14  1  0  0  0  0
 13 15  1  0  0  0  0
 13 16  1  0  0  0  0
 16 17  1  0  0  0  0
 16 18  1  0  0  0  0
 16 19  1  0  0  0  0
 19 20  1  0  0  0  0
 19 21  1  0  0  0  0
 19 22  1  0  0  0  0
M  END
> <VM2 Rank>
47

> <Conf_Id>
160

> <Probability>
0.04

> <Sum Probability>
99.84

> <Delta G>
3.996

> <G>
-13.002

> <E>
-32.911

> <-TS>
19.909

> <U+W>
-50.795

> <U>
10.452

> <W>
-61.248

> <W(PB)>
-63.526

> <W(SA)>
2.278

> <Valence>
10.097

> <Coulomb>
-0.504

> <VdW>
0.859

> <VdW6>
-8.064

> <VdW12>
8.923

> <Bond>
0.175

> <Angle>
2.998

> <Pdih>
6.924

> <Idih>
0.000

> <Tether>
0.000

$$$$
VeraChem MOL file


 22 21  0  0  0  0  0  0  0  0999 V2000     
   19.9960   19.3430   25.8191 C   0  0  0  0  0  0  0  0  0  0  0  0
   20.8250   20.2203   25.9591 O   0  5  0  0  0  0  0  0  0  0  0  0
   19.0233   19.2156   26.5361 O   0  0  0  0  0  0  0  0  0  0  0  0
   20.1767   18.3581   24.6694 C   0  0  0  0  0  0  0  0  0  0  0  0
   19.7784   17.3870   24.9868 H   0  0  0  0  0  0  0  0  0  0  0  0
   21.2520   18.2276   24.4983 H   0  0  0  0  0  0  0  0  0  0  0  0
   19.4815   18.8213   23.3655 C   0  0  0  0  0  0  0  0  0  0  0  0
   18.4085   18.9586   23.5580 H   0  0  0  0  0  0  0  0  0  0  0  0
   19.8766   19.8033   23.0786 H   0  0  0  0  0  0  0  0  0  0  0  0
   19.6753   17.8014   22.2185 C   0  0  0  0  0  0  0  0  0  0  0  0
   19.2414   16.8433   22.5359 H   0  0  0  0  0  0  0  0  0  0  0  0
   20.7445   17.6129   22.0506 H   0  0  0  0  0  0  0  0  0  0  0  0
   18.9975   18.2322   20.8930 C   0  0  0  0  0  0  0  0  0  0  0  0
   18.6085   17.3308   20.4000 H   0  0  0  0  0  0  0  0  0  0  0  0
   18.1207   18.8609   21.0999 H   0  0  0  0  0  0  0  0  0  0  0  0
   19.9368   18.9435   19.8879 C   0  0  0  0  0  0  0  0  0  0  0  0
   19.3783   19.1283   18.9599 H   0  0  0  0  0  0  0  0  0  0  0  0
   20.7647   18.2728   19.6196 H   0  0  0  0  0  0  0  0  0  0  0  0
   20.5080   20.2837   20.3956 C   0  0  0  0  0  0  0  0  0  0  0  0
   21.2058   20.1265   21.2274 H   0  0  0  0  0  0  0  0  0  0  0  0
   19.7052   20.9514   20.7341 H   0  0  0  0  0  0  0  0  0  0  0  0
   21.0584   20.7942   19.5948 H   0  0  0  0  0  0  0  0  0  0  0  0
  1  2  1  0  0  0  0
  1  3  2  0  0  0  0
  1  4  1  0  0  0  0
  4  5  1  0  0  0  0
  4  6  1  0  0  0  0
  4  7  1  0  0  0  0
  7  8  1  0  0  0  0
  7  9  1  0  0  0  0
  7 10  1  0  0  0  0
 10 11  1  0  0  0  0
 10 12  1  0  0  0  0
 10 13  1  0  0  0  0
 13 14  1  0  0  0  0
 13 15  1  0  0  0  0
 13 16  1  0  0  0  0
 16 17  1  0  0  0  0
 16 18  1  0  0  0  0
 16 19  1  0  0  0  0
 19 20  1  0  0  0  0
 19 21  1  0  0  0  0
 19 22  1  0  0  0  0
M  END
> <VM2 Rank>
48

> <Conf_Id>
568

> <Probability>
0.03

> <Sum Probability>
99.87

> <Delta G>
4.092

> <G>
-12.907

> <E>
-32.814

> <-TS>
19.908

> <U+W>
-50.699

> <U>
10.295

> <W>
-60.994

> <W(PB)>
-63.271

> <W(SA)>
2.277

> <Valence>
10.075

> <Coulomb>
-0.616

> <VdW>
0.835

> <VdW6>
-8.072

> <VdW12>
8.907

> <Bond>
0.176

> <Angle>
2.976

> <Pdih>
6.922

> <Idih>
0.000

> <Tether>
0.000

$$$$
VeraChem MOL file


 22 21  0  0  0  0  0  0  0  0999 V2000     
   19.9453   18.9963   25.4997 C   0  0  0  0  0  0  0  0  0  0  0  0
   19.4134   19.7567   26.2849 O   0  5  0  0  0  0  0  0  0  0  0  0
   19.9195   17.7867   25.6142 O   0  0  0  0  0  0  0  0  0  0  0  0
   20.7128   19.5968   24.3253 C   0  0  0  0  0  0  0  0  0  0  0  0
   21.3537   18.8210   23.8911 H   0  0  0  0  0  0  0  0  0  0  0  0
   21.3836   20.3629   24.7312 H   0  0  0  0  0  0  0  0  0  0  0  0
   19.8080   20.2317   23.2342 C   0  0  0  0  0  0  0  0  0  0  0  0
   19.2244   21.0437   23.6893 H   0  0  0  0  0  0  0  0  0  0  0  0
   20.4391   20.7051   22.4711 H   0  0  0  0  0  0  0  0  0  0  0  0
   18.8303   19.2373   22.5565 C   0  0  0  0  0  0  0  0  0  0  0  0
   18.2174   19.7833   21.8274 H   0  0  0  0  0  0  0  0  0  0  0  0
   18.1262   18.8595   23.3104 H   0  0  0  0  0  0  0  0  0  0  0  0
   19.5006   18.0256   21.8573 C   0  0  0  0  0  0  0  0  0  0  0  0
   19.9794   17.3906   22.6148 H   0  0  0  0  0  0  0  0  0  0  0  0
   18.7157   17.4050   21.4045 H   0  0  0  0  0  0  0  0  0  0  0  0
   20.5423   18.3851   20.7694 C   0  0  0  0  0  0  0  0  0  0  0  0
   20.9660   17.4539   20.3691 H   0  0  0  0  0  0  0  0  0  0  0  0
   21.3820   18.9335   21.2164 H   0  0  0  0  0  0  0  0  0  0  0  0
   19.9479   19.2028   19.6024 C   0  0  0  0  0  0  0  0  0  0  0  0
   19.0954   18.6794   19.1505 H   0  0  0  0  0  0  0  0  0  0  0  0
   20.7018   19.3607   18.8205 H   0  0  0  0  0  0  0  0  0  0  0  0
   19.6067   20.1894   19.9403 H   0  0  0  0  0  0  0  0  0  0  0  0
  1  2  1  0  0  0  0
  1  3  2  0  0  0  0
  1  4  1  0  0  0  0
  4  5  1  0  0  0  0
  4  6  1  0  0  0  0
  4  7  1  0  0  0  0
  7  8  1  0  0  0  0
  7  9  1  0  0  0  0
  7 10  1  0  0  0  0
 10 11  1  0  0  0  0
 10 12  1  0  0  0  0
 10 13  1  0  0  0  0
 13 14  1  0  0  0  0
 13 15  1  0  0  0  0
 13 16  1  0  0  0  0
 16 17  1  0  0  0  0
 16 18  1  0  0  0  0
 16 19  1  0  0  0  0
 19 20  1  0  0  0  0
 19 21  1  0  0  0  0
 19 22  1  0  0  0  0
M  END
> <VM2 Rank>
49

> <Conf_Id>
158

> <Probability>
0.02

> <Sum Probability>
99.89

> <Delta G>
4.562

> <G>
-12.436

> <E>
-33.139

> <-TS>
20.703

> <U+W>
-51.024

> <U>
10.565

> <W>
-61.589

> <W(PB)>
-63.775

> <W(SA)>
2.185

> <Valence>
8.743

> <Coulomb>
1.384

> <VdW>
0.439

> <VdW6>
-10.218

> <VdW12>
10.656

> <Bond>
0.248

> <Angle>
3.454

> <Pdih>
5.040

> <Idih>
0.001

> <Tether>
0.000

$$$$
VeraChem MOL file


 22 21  0  0  0  0  0  0  0  0999 V2000     
   19.7564   18.9566   25.4992 C   0  0  0  0  0  0  0  0  0  0  0  0
   19.9335   19.8659   26.2861 O   0  5  0  0  0  0  0  0  0  0  0  0
   20.2665   17.8595   25.6149 O   0  0  0  0  0  0  0  0  0  0  0  0
   18.8180   19.1987   24.3203 C   0  0  0  0  0  0  0  0  0  0  0  0
   17.8936   19.6294   24.7220 H   0  0  0  0  0  0  0  0  0  0  0  0
   18.5459   18.2309   23.8836 H   0  0  0  0  0  0  0  0  0  0  0  0
   19.3963   20.1453   23.2332 C   0  0  0  0  0  0  0  0  0  0  0  0
   18.6318   20.3254   22.4663 H   0  0  0  0  0  0  0  0  0  0  0  0
   19.6012   21.1230   23.6903 H   0  0  0  0  0  0  0  0  0  0  0  0
   20.6950   19.6294   22.5615 C   0  0  0  0  0  0  0  0  0  0  0  0
   21.4878   19.5664   23.3194 H   0  0  0  0  0  0  0  0  0  0  0  0
   21.0398   20.3767   21.8349 H   0  0  0  0  0  0  0  0  0  0  0  0
   20.5729   18.2511   21.8604 C   0  0  0  0  0  0  0  0  0  0  0  0
   21.5436   17.9994   21.4122 H   0  0  0  0  0  0  0  0  0  0  0  0
   20.3865   17.4763   22.6161 H   0  0  0  0  0  0  0  0  0  0  0  0
   19.4803   18.1618   20.7667 C   0  0  0  0  0  0  0  0  0  0  0  0
   18.4886   18.3252   21.2088 H   0  0  0  0  0  0  0  0  0  0  0  0
   19.4694   17.1392   20.3653 H   0  0  0  0  0  0  0  0  0  0  0  0
   19.7011   19.1508   19.6018 C   0  0  0  0  0  0  0  0  0  0  0  0
   18.9516   18.9924   18.8158 H   0  0  0  0  0  0  0  0  0  0  0  0
   20.6946   19.0155   19.1550 H   0  0  0  0  0  0  0  0  0  0  0  0
   19.6142   20.1909   19.9402 H   0  0  0  0  0  0  0  0  0  0  0  0
  1  2  1  0  0  0  0
  1  3  2  0  0  0  0
  1  4  1  0  0  0  0
  4  5  1  0  0  0  0
  4  6  1  0  0  0  0
  4  7  1  0  0  0  0
  7  8  1  0  0  0  0
  7  9  1  0  0  0  0
  7 10  1  0  0  0  0
 10 11  1  0  0  0  0
 10 12  1  0  0  0  0
 10 13  1  0  0  0  0
 13 14  1  0  0  0  0
 13 15  1  0  0  0  0
 13 16  1  0  0  0  0
 16 17  1  0  0  0  0
 16 18  1  0  0  0  0
 16 19  1  0  0  0  0
 19 20  1  0  0  0  0
 19 21  1  0  0  0  0
 19 22  1  0  0  0  0
M  END
> <VM2 Rank>
50

> <Conf_Id>
364

> <Probability>
0.02

> <Sum Probability>
99.90

> <Delta G>
4.573

> <G>
-12.425

> <E>
-33.128

> <-TS>
20.703

> <U+W>
-51.013

> <U>
10.566

> <W>
-61.579

> <W(PB)>
-63.767

> <W(SA)>
2.187

> <Valence>
8.743

> <Coulomb>
1.385

> <VdW>
0.439

> <VdW6>
-10.218

> <VdW12>
10.657

> <Bond>
0.248

> <Angle>
3.454

> <Pdih>
5.040

> <Idih>
0.001

> <Tether>
0.000

$$$$
VeraChem MOL file


 22 21  0  0  0  0  0  0  0  0999 V2000     
   20.1223   18.9748   25.3946 C   0  0  0  0  0  0  0  0  0  0  0  0
   20.7179   19.9992   25.6655 O   0  5  0  0  0  0  0  0  0  0  0  0
   20.5950   17.8653   25.5452 O   0  0  0  0  0  0  0  0  0  0  0  0
   18.6802   19.0825   24.9027 C   0  0  0  0  0  0  0  0  0  0  0  0
   18.1093   19.5362   25.7212 H   0  0  0  0  0  0  0  0  0  0  0  0
   18.2753   18.0733   24.7600 H   0  0  0  0  0  0  0  0  0  0  0  0
   18.4788   19.9311   23.6155 C   0  0  0  0  0  0  0  0  0  0  0  0
   17.4289   20.2522   23.5837 H   0  0  0  0  0  0  0  0  0  0  0  0
   19.0742   20.8527   23.6765 H   0  0  0  0  0  0  0  0  0  0  0  0
   18.7833   19.1887   22.2904 C   0  0  0  0  0  0  0  0  0  0  0  0
   18.4422   19.8266   21.4655 H   0  0  0  0  0  0  0  0  0  0  0  0
   18.1859   18.2684   22.2368 H   0  0  0  0  0  0  0  0  0  0  0  0
   20.2799   18.8499   22.0875 C   0  0  0  0  0  0  0  0  0  0  0  0
   20.8868   19.7585   22.2002 H   0  0  0  0  0  0  0  0  0  0  0  0
   20.6045   18.1578   22.8740 H   0  0  0  0  0  0  0  0  0  0  0  0
   20.5819   18.1890   20.7220 C   0  0  0  0  0  0  0  0  0  0  0  0
   19.9574   17.2937   20.5963 H   0  0  0  0  0  0  0  0  0  0  0  0
   21.6243   17.8417   20.7241 H   0  0  0  0  0  0  0  0  0  0  0  0
   20.3807   19.1385   19.5207 C   0  0  0  0  0  0  0  0  0  0  0  0
   20.7026   18.6527   18.5904 H   0  0  0  0  0  0  0  0  0  0  0  0
   20.9694   20.0570   19.6431 H   0  0  0  0  0  0  0  0  0  0  0  0
   19.3269   19.4179   19.4003 H   0  0  0  0  0  0  0  0  0  0  0  0
  1  2  1  0  0  0  0
  1  3  2  0  0  0  0
  1  4  1  0  0  0  0
  4  5  1  0  0  0  0
  4  6  1  0  0  0  0
  4  7  1  0  0  0  0
  7  8  1  0  0  0  0
  7  9  1  0  0  0  0
  7 10  1  0  0  0  0
 10 11  1  0  0  0  0
 10 12  1  0  0  0  0
 10 13  1  0  0  0  0
 13 14  1  0  0  0  0
 13 15  1  0  0  0  0
 13 16  1  0  0  0  0
 16 17  1  0  0  0  0
 16 18  1  0  0  0  0
 16 19  1  0  0  0  0
 19 20  1  0  0  0  0
 19 21  1  0  0  0  0
 19 22  1  0  0  0  0
M  END
> <VM2 Rank>
51

> <Conf_Id>
303

> <Probability>
0.01

> <Sum Probability>
99.92

> <Delta G>
4.679

> <G>
-12.319

> <E>
-32.511

> <-TS>
20.192

> <U+W>
-50.396

> <U>
11.649

> <W>
-62.044

> <W(PB)>
-64.291

> <W(SA)>
2.247

> <Valence>
9.667

> <Coulomb>
1.202

> <VdW>
0.779

> <VdW6>
-9.278

> <VdW12>
10.057

> <Bond>
0.225

> <Angle>
3.506

> <Pdih>
5.930

> <Idih>
0.006

> <Tether>
0.000

$$$$
VeraChem MOL file


 22 21  0  0  0  0  0  0  0  0999 V2000     
   20.1773   18.9382   25.3008 C   0  0  0  0  0  0  0  0  0  0  0  0
   20.4599   20.0369   25.7371 O   0  5  0  0  0  0  0  0  0  0  0  0
   20.9595   18.0085   25.2689 O   0  0  0  0  0  0  0  0  0  0  0  0
   18.7448   18.6906   24.8315 C   0  0  0  0  0  0  0  0  0  0  0  0
   18.1053   18.8158   25.7129 H   0  0  0  0  0  0  0  0  0  0  0  0
   18.6481   17.6436   24.5195 H   0  0  0  0  0  0  0  0  0  0  0  0
   18.2433   19.6363   23.7040 C   0  0  0  0  0  0  0  0  0  0  0  0
   17.1452   19.6135   23.7051 H   0  0  0  0  0  0  0  0  0  0  0  0
   18.5242   20.6737   23.9329 H   0  0  0  0  0  0  0  0  0  0  0  0
   18.7219   19.2579   22.2803 C   0  0  0  0  0  0  0  0  0  0  0  0
   18.1941   19.8972   21.5596 H   0  0  0  0  0  0  0  0  0  0  0  0
   18.4206   18.2257   22.0584 H   0  0  0  0  0  0  0  0  0  0  0  0
   20.2460   19.4196   22.0662 C   0  0  0  0  0  0  0  0  0  0  0  0
   20.5625   20.3983   22.4520 H   0  0  0  0  0  0  0  0  0  0  0  0
   20.7884   18.6632   22.6477 H   0  0  0  0  0  0  0  0  0  0  0  0
   20.6691   19.3116   20.5827 C   0  0  0  0  0  0  0  0  0  0  0  0
   21.7430   19.5303   20.5053 H   0  0  0  0  0  0  0  0  0  0  0  0
   20.1524   20.0807   19.9922 H   0  0  0  0  0  0  0  0  0  0  0  0
   20.3983   17.9194   19.9724 C   0  0  0  0  0  0  0  0  0  0  0  0
   19.3233   17.7035   19.9306 H   0  0  0  0  0  0  0  0  0  0  0  0
   20.8853   17.1314   20.5616 H   0  0  0  0  0  0  0  0  0  0  0  0
   20.7887   17.8663   18.9480 H   0  0  0  0  0  0  0  0  0  0  0  0
  1  2  1  0  0  0  0
  1  3  2  0  0  0  0
  1  4  1  0  0  0  0
  4  5  1  0  0  0  0
  4  6  1  0  0  0  0
  4  7  1  0  0  0  0
  7  8  1  0  0  0  0
  7  9  1  0  0  0  0
  7 10  1  0  0  0  0
 10 11  1  0  0  0  0
 10 12  1  0  0  0  0
 10 13  1  0  0  0  0
 13 14  1  0  0  0  0
 13 15  1  0  0  0  0
 13 16  1  0  0  0  0
 16 17  1  0  0  0  0
 16 18  1  0  0  0  0
 16 19  1  0  0  0  0
 19 20  1  0  0  0  0
 19 21  1  0  0  0  0
 19 22  1  0  0  0  0
M  END
> <VM2 Rank>
52

> <Conf_Id>
159

> <Probability>
0.01

> <Sum Probability>
99.93

> <Delta G>
4.683

> <G>
-12.315

> <E>
-32.675

> <-TS>
20.360

> <U+W>
-50.560

> <U>
11.687

> <W>
-62.247

> <W(PB)>
-64.461

> <W(SA)>
2.214

> <Valence>
9.469

> <Coulomb>
1.564

> <VdW>
0.654

> <VdW6>
-9.494

> <VdW12>
10.148

> <Bond>
0.216

> <Angle>
3.352

> <Pdih>
5.895

> <Idih>
0.007

> <Tether>
0.000

$$$$
VeraChem MOL file


 22 21  0  0  0  0  0  0  0  0999 V2000     
   20.1578   19.2978   25.2870 C   0  0  0  0  0  0  0  0  0  0  0  0
   20.8354   20.3012   25.1810 O   0  5  0  0  0  0  0  0  0  0  0  0
   20.5554   18.2724   25.8049 O   0  0  0  0  0  0  0  0  0  0  0  0
   18.7090   19.3530   24.8061 C   0  0  0  0  0  0  0  0  0  0  0  0
   18.5013   20.3565   24.4154 H   0  0  0  0  0  0  0  0  0  0  0  0
   18.0830   19.2273   25.6971 H   0  0  0  0  0  0  0  0  0  0  0  0
   18.3169   18.2755   23.7562 C   0  0  0  0  0  0  0  0  0  0  0  0
   18.7070   17.2949   24.0625 H   0  0  0  0  0  0  0  0  0  0  0  0
   17.2228   18.1798   23.7601 H   0  0  0  0  0  0  0  0  0  0  0  0
   18.7579   18.5933   22.3058 C   0  0  0  0  0  0  0  0  0  0  0  0
   18.3480   19.5670   22.0069 H   0  0  0  0  0  0  0  0  0  0  0  0
   18.3051   17.8477   21.6382 H   0  0  0  0  0  0  0  0  0  0  0  0
   20.2914   18.5811   22.0984 C   0  0  0  0  0  0  0  0  0  0  0  0
   20.7467   19.4338   22.6182 H   0  0  0  0  0  0  0  0  0  0  0  0
   20.7100   17.6746   22.5566 H   0  0  0  0  0  0  0  0  0  0  0  0
   20.7065   18.6203   20.6093 C   0  0  0  0  0  0  0  0  0  0  0  0
   20.2783   17.7571   20.0815 H   0  0  0  0  0  0  0  0  0  0  0  0
   21.7981   18.5135   20.5444 H   0  0  0  0  0  0  0  0  0  0  0  0
   20.2897   19.9245   19.8955 C   0  0  0  0  0  0  0  0  0  0  0  0
   20.6765   19.9409   18.8683 H   0  0  0  0  0  0  0  0  0  0  0  0
   20.6863   20.8031   20.4207 H   0  0  0  0  0  0  0  0  0  0  0  0
   19.1979   20.0193   19.8416 H   0  0  0  0  0  0  0  0  0  0  0  0
  1  2  1  0  0  0  0
  1  3  2  0  0  0  0
  1  4  1  0  0  0  0
  4  5  1  0  0  0  0
  4  6  1  0  0  0  0
  4  7  1  0  0  0  0
  7  8  1  0  0  0  0
  7  9  1  0  0  0  0
  7 10  1  0  0  0  0
 10 11  1  0  0  0  0
 10 12  1  0  0  0  0
 10 13  1  0  0  0  0
 13 14  1  0  0  0  0
 13 15  1  0  0  0  0
 13 16  1  0  0  0  0
 16 17  1  0  0  0  0
 16 18  1  0  0  0  0
 16 19  1  0  0  0  0
 19 20  1  0  0  0  0
 19 21  1  0  0  0  0
 19 22  1  0  0  0  0
M  END
> <VM2 Rank>
53

> <Conf_Id>
558

> <Probability>
0.01

> <Sum Probability>
99.94

> <Delta G>
4.730

> <G>
-12.268

> <E>
-32.628

> <-TS>
20.360

> <U+W>
-50.513

> <U>
11.687

> <W>
-62.200

> <W(PB)>
-64.428

> <W(SA)>
2.228

> <Valence>
9.470

> <Coulomb>
1.563

> <VdW>
0.654

> <VdW6>
-9.494

> <VdW12>
10.148

> <Bond>
0.216

> <Angle>
3.352

> <Pdih>
5.895

> <Idih>
0.007

> <Tether>
0.000

$$$$
VeraChem MOL file


 22 21  0  0  0  0  0  0  0  0999 V2000     
   20.1068   19.2627   25.3836 C   0  0  0  0  0  0  0  0  0  0  0  0
   20.4565   20.4249   25.4472 O   0  5  0  0  0  0  0  0  0  0  0  0
   20.8081   18.3321   25.7293 O   0  0  0  0  0  0  0  0  0  0  0  0
   18.6867   18.9631   24.9073 C   0  0  0  0  0  0  0  0  0  0  0  0
   18.1760   19.9090   24.6895 H   0  0  0  0  0  0  0  0  0  0  0  0
   18.1646   18.5145   25.7603 H   0  0  0  0  0  0  0  0  0  0  0  0
   18.5832   18.0019   23.6895 C   0  0  0  0  0  0  0  0  0  0  0  0
   19.2742   17.1571   23.8182 H   0  0  0  0  0  0  0  0  0  0  0  0
   17.5742   17.5680   23.6867 H   0  0  0  0  0  0  0  0  0  0  0  0
   18.8113   18.6694   22.3103 C   0  0  0  0  0  0  0  0  0  0  0  0
   18.1185   19.5130   22.1890 H   0  0  0  0  0  0  0  0  0  0  0  0
   18.5445   17.9372   21.5379 H   0  0  0  0  0  0  0  0  0  0  0  0
   20.2636   19.1510   22.0759 C   0  0  0  0  0  0  0  0  0  0  0  0
   20.5083   19.9322   22.8059 H   0  0  0  0  0  0  0  0  0  0  0  0
   20.9645   18.3244   22.2553 H   0  0  0  0  0  0  0  0  0  0  0  0
   20.4983   19.7343   20.6627 C   0  0  0  0  0  0  0  0  0  0  0  0
   21.4971   20.1910   20.6339 H   0  0  0  0  0  0  0  0  0  0  0  0
   19.7815   20.5448   20.4715 H   0  0  0  0  0  0  0  0  0  0  0  0
   20.4056   18.6796   19.5383 C   0  0  0  0  0  0  0  0  0  0  0  0
   20.6772   19.1247   18.5723 H   0  0  0  0  0  0  0  0  0  0  0  0
   19.3885   18.2799   19.4440 H   0  0  0  0  0  0  0  0  0  0  0  0
   21.0893   17.8420   19.7281 H   0  0  0  0  0  0  0  0  0  0  0  0
  1  2  1  0  0  0  0
  1  3  2  0  0  0  0
  1  4  1  0  0  0  0
  4  5  1  0  0  0  0
  4  6  1  0  0  0  0
  4  7  1  0  0  0  0
  7  8  1  0  0  0  0
  7  9  1  0  0  0  0
  7 10  1  0  0  0  0
 10 11  1  0  0  0  0
 10 12  1  0  0  0  0
 10 13  1  0  0  0  0
 13 14  1  0  0  0  0
 13 15  1  0  0  0  0
 13 16  1  0  0  0  0
 16 17  1  0  0  0  0
 16 18  1  0  0  0  0
 16 19  1  0  0  0  0
 19 20  1  0  0  0  0
 19 21  1  0  0  0  0
 19 22  1  0  0  0  0
M  END
> <VM2 Rank>
54

> <Conf_Id>
183

> <Probability>
0.01

> <Sum Probability>
99.95

> <Delta G>
4.750

> <G>
-12.248

> <E>
-32.441

> <-TS>
20.193

> <U+W>
-50.326

> <U>
11.648

> <W>
-61.974

> <W(PB)>
-64.190

> <W(SA)>
2.216

> <Valence>
9.667

> <Coulomb>
1.202

> <VdW>
0.779

> <VdW6>
-9.278

> <VdW12>
10.057

> <Bond>
0.225

> <Angle>
3.506

> <Pdih>
5.930

> <Idih>
0.006

> <Tether>
0.000

$$$$
VeraChem MOL file


 22 21  0  0  0  0  0  0  0  0999 V2000     
   20.0458   18.9133   25.7242 C   0  0  0  0  0  0  0  0  0  0  0  0
   19.9321   19.7861   26.5621 O   0  5  0  0  0  0  0  0  0  0  0  0
   20.8132   17.9770   25.8282 O   0  0  0  0  0  0  0  0  0  0  0  0
   19.1921   19.0093   24.4647 C   0  0  0  0  0  0  0  0  0  0  0  0
   18.2356   19.4703   24.7381 H   0  0  0  0  0  0  0  0  0  0  0  0
   18.9751   17.9891   24.1299 H   0  0  0  0  0  0  0  0  0  0  0  0
   19.8766   19.8264   23.3375 C   0  0  0  0  0  0  0  0  0  0  0  0
   20.1257   20.8211   23.7320 H   0  0  0  0  0  0  0  0  0  0  0  0
   20.8300   19.3534   23.0724 H   0  0  0  0  0  0  0  0  0  0  0  0
   18.9863   20.0024   22.0811 C   0  0  0  0  0  0  0  0  0  0  0  0
   19.4077   20.7897   21.4414 H   0  0  0  0  0  0  0  0  0  0  0  0
   18.0050   20.3766   22.4033 H   0  0  0  0  0  0  0  0  0  0  0  0
   18.7814   18.7127   21.2424 C   0  0  0  0  0  0  0  0  0  0  0  0
   18.8324   17.8194   21.8770 H   0  0  0  0  0  0  0  0  0  0  0  0
   17.7611   18.7302   20.8358 H   0  0  0  0  0  0  0  0  0  0  0  0
   19.7552   18.5613   20.0477 C   0  0  0  0  0  0  0  0  0  0  0  0
   19.6383   19.4148   19.3657 H   0  0  0  0  0  0  0  0  0  0  0  0
   19.4681   17.6688   19.4748 H   0  0  0  0  0  0  0  0  0  0  0  0
   21.2372   18.4306   20.4562 C   0  0  0  0  0  0  0  0  0  0  0  0
   21.3740   17.6248   21.1891 H   0  0  0  0  0  0  0  0  0  0  0  0
   21.6113   19.3653   20.8917 H   0  0  0  0  0  0  0  0  0  0  0  0
   21.8582   18.2018   19.5805 H   0  0  0  0  0  0  0  0  0  0  0  0
  1  2  1  0  0  0  0
  1  3  2  0  0  0  0
  1  4  1  0  0  0  0
  4  5  1  0  0  0  0
  4  6  1  0  0  0  0
  4  7  1  0  0  0  0
  7  8  1  0  0  0  0
  7  9  1  0  0  0  0
  7 10  1  0  0  0  0
 10 11  1  0  0  0  0
 10 12  1  0  0  0  0
 10 13  1  0  0  0  0
 13 14  1  0  0  0  0
 13 15  1  0  0  0  0
 13 16  1  0  0  0  0
 16 17  1  0  0  0  0
 16 18  1  0  0  0  0
 16 19  1  0  0  0  0
 19 20  1  0  0  0  0
 19 21  1  0  0  0  0
 19 22  1  0  0  0  0
M  END
> <VM2 Rank>
55

> <Conf_Id>
495

> <Probability>
0.01

> <Sum Probability>
99.96

> <Delta G>
5.066

> <G>
-11.933

> <E>
-31.907

> <-TS>
19.974

> <U+W>
-49.792

> <U>
11.399

> <W>
-61.191

> <W(PB)>
-63.435

> <W(SA)>
2.244

> <Valence>
10.805

> <Coulomb>
-0.349

> <VdW>
0.943

> <VdW6>
-8.654

> <VdW12>
9.597

> <Bond>
0.233

> <Angle>
3.235

> <Pdih>
7.337

> <Idih>
0.000

> <Tether>
0.000

$$$$
VeraChem MOL file


 22 21  0  0  0  0  0  0  0  0999 V2000     
   19.6129   18.7745   25.5636 C   0  0  0  0  0  0  0  0  0  0  0  0
   19.2499   19.5350   26.4391 O   0  5  0  0  0  0  0  0  0  0  0  0
   20.2110   17.7387   25.7779 O   0  0  0  0  0  0  0  0  0  0  0  0
   19.3197   19.1512   24.1159 C   0  0  0  0  0  0  0  0  0  0  0  0
   18.3769   19.7107   24.0961 H   0  0  0  0  0  0  0  0  0  0  0  0
   19.1536   18.2249   23.5582 H   0  0  0  0  0  0  0  0  0  0  0  0
   20.4529   19.9945   23.4743 C   0  0  0  0  0  0  0  0  0  0  0  0
   20.5903   20.8950   24.0887 H   0  0  0  0  0  0  0  0  0  0  0  0
   21.4038   19.4461   23.5202 H   0  0  0  0  0  0  0  0  0  0  0  0
   20.1557   20.4341   22.0176 C   0  0  0  0  0  0  0  0  0  0  0  0
   20.5955   21.4303   21.8722 H   0  0  0  0  0  0  0  0  0  0  0  0
   19.0764   20.5675   21.8677 H   0  0  0  0  0  0  0  0  0  0  0  0
   20.7516   19.5080   20.9247 C   0  0  0  0  0  0  0  0  0  0  0  0
   20.5949   19.9791   19.9448 H   0  0  0  0  0  0  0  0  0  0  0  0
   21.8404   19.4558   21.0607 H   0  0  0  0  0  0  0  0  0  0  0  0
   20.1886   18.0680   20.8733 C   0  0  0  0  0  0  0  0  0  0  0  0
   20.3996   17.5453   21.8147 H   0  0  0  0  0  0  0  0  0  0  0  0
   20.7277   17.5114   20.0945 H   0  0  0  0  0  0  0  0  0  0  0  0
   18.6777   18.0150   20.5578 C   0  0  0  0  0  0  0  0  0  0  0  0
   18.0849   18.4913   21.3481 H   0  0  0  0  0  0  0  0  0  0  0  0
   18.3402   16.9744   20.4686 H   0  0  0  0  0  0  0  0  0  0  0  0
   18.4576   18.5244   19.6107 H   0  0  0  0  0  0  0  0  0  0  0  0
  1  2  1  0  0  0  0
  1  3  2  0  0  0  0
  1  4  1  0  0  0  0
  4  5  1  0  0  0  0
  4  6  1  0  0  0  0
  4  7  1  0  0  0  0
  7  8  1  0  0  0  0
  7  9  1  0  0  0  0
  7 10  1  0  0  0  0
 10 11  1  0  0  0  0
 10 12  1  0  0  0  0
 10 13  1  0  0  0  0
 13 14  1  0  0  0  0
 13 15  1  0  0  0  0
 13 16  1  0  0  0  0
 16 17  1  0  0  0  0
 16 18  1  0  0  0  0
 16 19  1  0  0  0  0
 19 20  1  0  0  0  0
 19 21  1  0  0  0  0
 19 22  1  0  0  0  0
M  END
> <VM2 Rank>
56

> <Conf_Id>
191

> <Probability>
0.01

> <Sum Probability>
99.96

> <Delta G>
5.105

> <G>
-11.893

> <E>
-32.268

> <-TS>
20.375

> <U+W>
-50.152

> <U>
11.249

> <W>
-61.401

> <W(PB)>
-63.600

> <W(SA)>
2.199

> <Valence>
10.690

> <Coulomb>
-0.062

> <VdW>
0.621

> <VdW6>
-9.203

> <VdW12>
9.824

> <Bond>
0.231

> <Angle>
3.571

> <Pdih>
6.888

> <Idih>
0.001

> <Tether>
0.000

$$$$
VeraChem MOL file


 22 21  0  0  0  0  0  0  0  0999 V2000     
   20.0731   18.7795   25.5052 C   0  0  0  0  0  0  0  0  0  0  0  0
   19.7223   19.3878   26.4970 O   0  5  0  0  0  0  0  0  0  0  0  0
   21.0554   18.0652   25.4664 O   0  0  0  0  0  0  0  0  0  0  0  0
   19.2460   18.9373   24.2345 C   0  0  0  0  0  0  0  0  0  0  0  0
   18.2003   19.0926   24.5250 H   0  0  0  0  0  0  0  0  0  0  0  0
   19.2922   17.9898   23.6868 H   0  0  0  0  0  0  0  0  0  0  0  0
   19.7326   20.1104   23.3443 C   0  0  0  0  0  0  0  0  0  0  0  0
   19.7163   21.0321   23.9420 H   0  0  0  0  0  0  0  0  0  0  0  0
   20.7808   19.9567   23.0589 H   0  0  0  0  0  0  0  0  0  0  0  0
   18.8638   20.3277   22.0820 C   0  0  0  0  0  0  0  0  0  0  0  0
   19.2241   21.2228   21.5569 H   0  0  0  0  0  0  0  0  0  0  0  0
   17.8377   20.5593   22.3987 H   0  0  0  0  0  0  0  0  0  0  0  0
   18.8157   19.1458   21.0779 C   0  0  0  0  0  0  0  0  0  0  0  0
   18.3798   18.2540   21.5466 H   0  0  0  0  0  0  0  0  0  0  0  0
   18.1143   19.4276   20.2807 H   0  0  0  0  0  0  0  0  0  0  0  0
   20.1724   18.8014   20.4129 C   0  0  0  0  0  0  0  0  0  0  0  0
   20.8022   19.6990   20.3444 H   0  0  0  0  0  0  0  0  0  0  0  0
   19.9817   18.4834   19.3786 H   0  0  0  0  0  0  0  0  0  0  0  0
   20.9387   17.6638   21.1238 C   0  0  0  0  0  0  0  0  0  0  0  0
   21.2182   17.9357   22.1479 H   0  0  0  0  0  0  0  0  0  0  0  0
   21.8619   17.4260   20.5800 H   0  0  0  0  0  0  0  0  0  0  0  0
   20.3310   16.7508   21.1685 H   0  0  0  0  0  0  0  0  0  0  0  0
  1  2  1  0  0  0  0
  1  3  2  0  0  0  0
  1  4  1  0  0  0  0
  4  5  1  0  0  0  0
  4  6  1  0  0  0  0
  4  7  1  0  0  0  0
  7  8  1  0  0  0  0
  7  9  1  0  0  0  0
  7 10  1  0  0  0  0
 10 11  1  0  0  0  0
 10 12  1  0  0  0  0
 10 13  1  0  0  0  0
 13 14  1  0  0  0  0
 13 15  1  0  0  0  0
 13 16  1  0  0  0  0
 16 17  1  0  0  0  0
 16 18  1  0  0  0  0
 16 19  1  0  0  0  0
 19 20  1  0  0  0  0
 19 21  1  0  0  0  0
 19 22  1  0  0  0  0
M  END
> <VM2 Rank>
57

> <Conf_Id>
507

> <Probability>
0.00

> <Sum Probability>
99.97

> <Delta G>
5.324

> <G>
-11.674

> <E>
-32.088

> <-TS>
20.414

> <U+W>
-49.973

> <U>
11.583

> <W>
-61.556

> <W(PB)>
-63.747

> <W(SA)>
2.191

> <Valence>
10.661

> <Coulomb>
0.424

> <VdW>
0.498

> <VdW6>
-9.423

> <VdW12>
9.921

> <Bond>
0.226

> <Angle>
3.568

> <Pdih>
6.867

> <Idih>
0.000

> <Tether>
0.000

$$$$
VeraChem MOL file


 22 21  0  0  0  0  0  0  0  0999 V2000     
   20.2486   18.9666   25.4929 C   0  0  0  0  0  0  0  0  0  0  0  0
   19.6840   19.3469   26.4996 O   0  5  0  0  0  0  0  0  0  0  0  0
   21.0231   18.0306   25.4687 O   0  0  0  0  0  0  0  0  0  0  0  0
   19.9538   19.6923   24.1852 C   0  0  0  0  0  0  0  0  0  0  0  0
   20.8647   19.6671   23.5772 H   0  0  0  0  0  0  0  0  0  0  0  0
   19.7486   20.7441   24.4172 H   0  0  0  0  0  0  0  0  0  0  0  0
   18.7602   19.0736   23.4120 C   0  0  0  0  0  0  0  0  0  0  0  0
   18.9643   18.0195   23.1855 H   0  0  0  0  0  0  0  0  0  0  0  0
   17.8803   19.0742   24.0699 H   0  0  0  0  0  0  0  0  0  0  0  0
   18.4041   19.8376   22.1140 C   0  0  0  0  0  0  0  0  0  0  0  0
   18.1261   20.8669   22.3786 H   0  0  0  0  0  0  0  0  0  0  0  0
   17.5026   19.3870   21.6769 H   0  0  0  0  0  0  0  0  0  0  0  0
   19.5123   19.8887   21.0293 C   0  0  0  0  0  0  0  0  0  0  0  0
   19.1334   20.5143   20.2096 H   0  0  0  0  0  0  0  0  0  0  0  0
   20.4019   20.4104   21.4056 H   0  0  0  0  0  0  0  0  0  0  0  0
   19.9020   18.5130   20.4318 C   0  0  0  0  0  0  0  0  0  0  0  0
   20.1386   18.6507   19.3677 H   0  0  0  0  0  0  0  0  0  0  0  0
   19.0456   17.8257   20.4670 H   0  0  0  0  0  0  0  0  0  0  0  0
   21.1318   17.8697   21.1105 C   0  0  0  0  0  0  0  0  0  0  0  0
   22.0035   18.5342   21.0518 H   0  0  0  0  0  0  0  0  0  0  0  0
   21.3943   16.9273   20.6129 H   0  0  0  0  0  0  0  0  0  0  0  0
   20.9463   17.6459   22.1670 H   0  0  0  0  0  0  0  0  0  0  0  0
  1  2  1  0  0  0  0
  1  3  2  0  0  0  0
  1  4  1  0  0  0  0
  4  5  1  0  0  0  0
  4  6  1  0  0  0  0
  4  7  1  0  0  0  0
  7  8  1  0  0  0  0
  7  9  1  0  0  0  0
  7 10  1  0  0  0  0
 10 11  1  0  0  0  0
 10 12  1  0  0  0  0
 10 13  1  0  0  0  0
 13 14  1  0  0  0  0
 13 15  1  0  0  0  0
 13 16  1  0  0  0  0
 16 17  1  0  0  0  0
 16 18  1  0  0  0  0
 16 19  1  0  0  0  0
 19 20  1  0  0  0  0
 19 21  1  0  0  0  0
 19 22  1  0  0  0  0
M  END
> <VM2 Rank>
58

> <Conf_Id>
179

> <Probability>
0.00

> <Sum Probability>
99.97

> <Delta G>
5.361

> <G>
-11.637

> <E>
-32.051

> <-TS>
20.414

> <U+W>
-49.936

> <U>
11.583

> <W>
-61.520

> <W(PB)>
-63.732

> <W(SA)>
2.212

> <Valence>
10.661

> <Coulomb>
0.424

> <VdW>
0.498

> <VdW6>
-9.424

> <VdW12>
9.922

> <Bond>
0.226

> <Angle>
3.567

> <Pdih>
6.867

> <Idih>
0.001

> <Tether>
0.000

$$$$
VeraChem MOL file


 22 21  0  0  0  0  0  0  0  0999 V2000     
   19.9047   19.0460   25.7127 C   0  0  0  0  0  0  0  0  0  0  0  0
   18.9043   19.5659   26.1664 O   0  5  0  0  0  0  0  0  0  0  0  0
   20.3380   17.9763   26.0936 O   0  0  0  0  0  0  0  0  0  0  0  0
   20.6733   19.7859   24.6213 C   0  0  0  0  0  0  0  0  0  0  0  0
   21.7356   19.7533   24.8905 H   0  0  0  0  0  0  0  0  0  0  0  0
   20.3745   20.8411   24.6354 H   0  0  0  0  0  0  0  0  0  0  0  0
   20.4820   19.1943   23.2004 C   0  0  0  0  0  0  0  0  0  0  0  0
   21.1884   19.6891   22.5222 H   0  0  0  0  0  0  0  0  0  0  0  0
   20.7399   18.1263   23.2118 H   0  0  0  0  0  0  0  0  0  0  0  0
   19.0432   19.3827   22.6660 C   0  0  0  0  0  0  0  0  0  0  0  0
   18.8246   20.4555   22.5771 H   0  0  0  0  0  0  0  0  0  0  0  0
   18.3303   18.9847   23.4011 H   0  0  0  0  0  0  0  0  0  0  0  0
   18.7726   18.6873   21.3082 C   0  0  0  0  0  0  0  0  0  0  0  0
   18.8982   17.6007   21.4101 H   0  0  0  0  0  0  0  0  0  0  0  0
   17.7130   18.8430   21.0635 H   0  0  0  0  0  0  0  0  0  0  0  0
   19.6225   19.2175   20.1265 C   0  0  0  0  0  0  0  0  0  0  0  0
   19.9043   20.2653   20.2994 H   0  0  0  0  0  0  0  0  0  0  0  0
   19.0030   19.2140   19.2190 H   0  0  0  0  0  0  0  0  0  0  0  0
   20.8795   18.3631   19.8489 C   0  0  0  0  0  0  0  0  0  0  0  0
   20.6021   17.3299   19.6029 H   0  0  0  0  0  0  0  0  0  0  0  0
   21.5534   18.3353   20.7126 H   0  0  0  0  0  0  0  0  0  0  0  0
   21.4409   18.7713   18.9986 H   0  0  0  0  0  0  0  0  0  0  0  0
  1  2  1  0  0  0  0
  1  3  2  0  0  0  0
  1  4  1  0  0  0  0
  4  5  1  0  0  0  0
  4  6  1  0  0  0  0
  4  7  1  0  0  0  0
  7  8  1  0  0  0  0
  7  9  1  0  0  0  0
  7 10  1  0  0  0  0
 10 11  1  0  0  0  0
 10 12  1  0  0  0  0
 10 13  1  0  0  0  0
 13 14  1  0  0  0  0
 13 15  1  0  0  0  0
 13 16  1  0  0  0  0
 16 17  1  0  0  0  0
 16 18  1  0  0  0  0
 16 19  1  0  0  0  0
 19 20  1  0  0  0  0
 19 21  1  0  0  0  0
 19 22  1  0  0  0  0
M  END
> <VM2 Rank>
59

> <Conf_Id>
250

> <Probability>
0.00

> <Sum Probability>
99.98

> <Delta G>
5.399

> <G>
-11.599

> <E>
-31.837

> <-TS>
20.238

> <U+W>
-49.721

> <U>
11.773

> <W>
-61.495

> <W(PB)>
-63.749

> <W(SA)>
2.254

> <Valence>
10.419

> <Coulomb>
0.566

> <VdW>
0.789

> <VdW6>
-8.847

> <VdW12>
9.636

> <Bond>
0.200

> <Angle>
3.187

> <Pdih>
7.032

> <Idih>
0.001

> <Tether>
0.000

$$$$
VeraChem MOL file


 22 21  0  0  0  0  0  0  0  0999 V2000     
   19.7160   19.1506   25.7186 C   0  0  0  0  0  0  0  0  0  0  0  0
   19.8239   20.3367   25.9602 O   0  5  0  0  0  0  0  0  0  0  0  0
   20.2896   18.2820   26.3459 O   0  0  0  0  0  0  0  0  0  0  0  0
   18.7948   18.7251   24.5786 C   0  0  0  0  0  0  0  0  0  0  0  0
   18.1109   19.5523   24.3535 H   0  0  0  0  0  0  0  0  0  0  0  0
   18.1794   17.8958   24.9466 H   0  0  0  0  0  0  0  0  0  0  0  0
   19.5420   18.2844   23.2930 C   0  0  0  0  0  0  0  0  0  0  0  0
   20.2428   17.4753   23.5411 H   0  0  0  0  0  0  0  0  0  0  0  0
   18.8145   17.8605   22.5911 H   0  0  0  0  0  0  0  0  0  0  0  0
   20.3095   19.4502   22.6232 C   0  0  0  0  0  0  0  0  0  0  0  0
   21.0674   19.8159   23.3296 H   0  0  0  0  0  0  0  0  0  0  0  0
   19.6338   20.2960   22.4370 H   0  0  0  0  0  0  0  0  0  0  0  0
   21.0230   19.0399   21.3100 C   0  0  0  0  0  0  0  0  0  0  0  0
   21.9749   19.5855   21.2540 H   0  0  0  0  0  0  0  0  0  0  0  0
   21.2909   17.9749   21.3385 H   0  0  0  0  0  0  0  0  0  0  0  0
   20.2292   19.3549   20.0179 C   0  0  0  0  0  0  0  0  0  0  0  0
   20.8573   19.1021   19.1526 H   0  0  0  0  0  0  0  0  0  0  0  0
   20.0414   20.4356   19.9558 H   0  0  0  0  0  0  0  0  0  0  0  0
   18.8919   18.5953   19.8964 C   0  0  0  0  0  0  0  0  0  0  0  0
   18.4413   18.7669   18.9104 H   0  0  0  0  0  0  0  0  0  0  0  0
   18.1733   18.9364   20.6519 H   0  0  0  0  0  0  0  0  0  0  0  0
   19.0402   17.5144   20.0177 H   0  0  0  0  0  0  0  0  0  0  0  0
  1  2  1  0  0  0  0
  1  3  2  0  0  0  0
  1  4  1  0  0  0  0
  4  5  1  0  0  0  0
  4  6  1  0  0  0  0
  4  7  1  0  0  0  0
  7  8  1  0  0  0  0
  7  9  1  0  0  0  0
  7 10  1  0  0  0  0
 10 11  1  0  0  0  0
 10 12  1  0  0  0  0
 10 13  1  0  0  0  0
 13 14  1  0  0  0  0
 13 15  1  0  0  0  0
 13 16  1  0  0  0  0
 16 17  1  0  0  0  0
 16 18  1  0  0  0  0
 16 19  1  0  0  0  0
 19 20  1  0  0  0  0
 19 21  1  0  0  0  0
 19 22  1  0  0  0  0
M  END
> <VM2 Rank>
60

> <Conf_Id>
557

> <Probability>
0.00

> <Sum Probability>
99.98

> <Delta G>
5.402

> <G>
-11.596

> <E>
-31.810

> <-TS>
20.214

> <U+W>
-49.695

> <U>
11.659

> <W>
-61.354

> <W(PB)>
-63.612

> <W(SA)>
2.259

> <Valence>
10.364

> <Coulomb>
0.563

> <VdW>
0.732

> <VdW6>
-8.874

> <VdW12>
9.606

> <Bond>
0.201

> <Angle>
3.127

> <Pdih>
7.036

> <Idih>
0.001

> <Tether>
0.000

$$$$
VeraChem MOL file


 22 21  0  0  0  0  0  0  0  0999 V2000     
   19.9884   18.9829   25.6007 C   0  0  0  0  0  0  0  0  0  0  0  0
   20.0637   20.1067   26.0570 O   0  5  0  0  0  0  0  0  0  0  0  0
   20.8165   18.1173   25.8055 O   0  0  0  0  0  0  0  0  0  0  0  0
   18.7767   18.6303   24.7424 C   0  0  0  0  0  0  0  0  0  0  0  0
   17.9786   19.3533   24.9498 H   0  0  0  0  0  0  0  0  0  0  0  0
   18.4120   17.6513   25.0751 H   0  0  0  0  0  0  0  0  0  0  0  0
   19.0751   18.5820   23.2213 C   0  0  0  0  0  0  0  0  0  0  0  0
   19.8895   17.8677   23.0432 H   0  0  0  0  0  0  0  0  0  0  0  0
   18.1899   18.2008   22.6947 H   0  0  0  0  0  0  0  0  0  0  0  0
   19.4554   19.9665   22.6480 C   0  0  0  0  0  0  0  0  0  0  0  0
   20.4017   20.3017   23.0946 H   0  0  0  0  0  0  0  0  0  0  0  0
   18.6962   20.6994   22.9531 H   0  0  0  0  0  0  0  0  0  0  0  0
   19.5757   20.0048   21.1038 C   0  0  0  0  0  0  0  0  0  0  0  0
   18.6084   19.7608   20.6437 H   0  0  0  0  0  0  0  0  0  0  0  0
   19.7894   21.0431   20.8156 H   0  0  0  0  0  0  0  0  0  0  0  0
   20.6914   19.1035   20.5184 C   0  0  0  0  0  0  0  0  0  0  0  0
   21.5024   18.9781   21.2491 H   0  0  0  0  0  0  0  0  0  0  0  0
   21.1363   19.6135   19.6528 H   0  0  0  0  0  0  0  0  0  0  0  0
   20.1772   17.7250   20.0470 C   0  0  0  0  0  0  0  0  0  0  0  0
   20.9997   17.1321   19.6265 H   0  0  0  0  0  0  0  0  0  0  0  0
   19.4131   17.8392   19.2671 H   0  0  0  0  0  0  0  0  0  0  0  0
   19.7374   17.1500   20.8697 H   0  0  0  0  0  0  0  0  0  0  0  0
  1  2  1  0  0  0  0
  1  3  2  0  0  0  0
  1  4  1  0  0  0  0
  4  5  1  0  0  0  0
  4  6  1  0  0  0  0
  4  7  1  0  0  0  0
  7  8  1  0  0  0  0
  7  9  1  0  0  0  0
  7 10  1  0  0  0  0
 10 11  1  0  0  0  0
 10 12  1  0  0  0  0
 10 13  1  0  0  0  0
 13 14  1  0  0  0  0
 13 15  1  0  0  0  0
 13 16  1  0  0  0  0
 16 17  1  0  0  0  0
 16 18  1  0  0  0  0
 16 19  1  0  0  0  0
 19 20  1  0  0  0  0
 19 21  1  0  0  0  0
 19 22  1  0  0  0  0
M  END
> <VM2 Rank>
61

> <Conf_Id>
161

> <Probability>
0.00

> <Sum Probability>
99.98

> <Delta G>
5.417

> <G>
-11.581

> <E>
-31.784

> <-TS>
20.203

> <U+W>
-49.669

> <U>
12.072

> <W>
-61.741

> <W(PB)>
-63.969

> <W(SA)>
2.228

> <Valence>
10.343

> <Coulomb>
1.037

> <VdW>
0.692

> <VdW6>
-8.924

> <VdW12>
9.616

> <Bond>
0.196

> <Angle>
3.145

> <Pdih>
7.001

> <Idih>
0.001

> <Tether>
0.000

$$$$
VeraChem MOL file


 22 21  0  0  0  0  0  0  0  0999 V2000     
   19.8968   19.1930   25.7071 C   0  0  0  0  0  0  0  0  0  0  0  0
   20.2105   20.3291   26.0033 O   0  5  0  0  0  0  0  0  0  0  0  0
   18.9565   18.6044   26.2034 O   0  0  0  0  0  0  0  0  0  0  0  0
   20.7451   18.4590   24.6722 C   0  0  0  0  0  0  0  0  0  0  0  0
   20.5617   17.3820   24.7680 H   0  0  0  0  0  0  0  0  0  0  0  0
   21.7966   18.6264   24.9337 H   0  0  0  0  0  0  0  0  0  0  0  0
   20.4970   18.9164   23.2110 C   0  0  0  0  0  0  0  0  0  0  0  0
   20.6384   20.0037   23.1398 H   0  0  0  0  0  0  0  0  0  0  0  0
   21.2555   18.4502   22.5697 H   0  0  0  0  0  0  0  0  0  0  0  0
   19.0891   18.5339   22.6986 C   0  0  0  0  0  0  0  0  0  0  0  0
   18.3345   18.9078   23.4041 H   0  0  0  0  0  0  0  0  0  0  0  0
   18.9877   17.4401   22.6928 H   0  0  0  0  0  0  0  0  0  0  0  0
   18.7508   19.0903   21.2927 C   0  0  0  0  0  0  0  0  0  0  0  0
   17.7151   18.8032   21.0650 H   0  0  0  0  0  0  0  0  0  0  0  0
   18.7583   20.1887   21.3108 H   0  0  0  0  0  0  0  0  0  0  0  0
   19.6577   18.5659   20.1515 C   0  0  0  0  0  0  0  0  0  0  0  0
   19.0451   18.4334   19.2490 H   0  0  0  0  0  0  0  0  0  0  0  0
   20.0499   17.5708   20.4028 H   0  0  0  0  0  0  0  0  0  0  0  0
   20.8166   19.5269   19.8042 C   0  0  0  0  0  0  0  0  0  0  0  0
   21.4800   19.6932   20.6605 H   0  0  0  0  0  0  0  0  0  0  0  0
   20.4306   20.5025   19.4810 H   0  0  0  0  0  0  0  0  0  0  0  0
   21.4222   19.1178   18.9854 H   0  0  0  0  0  0  0  0  0  0  0  0
  1  2  1  0  0  0  0
  1  3  2  0  0  0  0
  1  4  1  0  0  0  0
  4  5  1  0  0  0  0
  4  6  1  0  0  0  0
  4  7  1  0  0  0  0
  7  8  1  0  0  0  0
  7  9  1  0  0  0  0
  7 10  1  0  0  0  0
 10 11  1  0  0  0  0
 10 12  1  0  0  0  0
 10 13  1  0  0  0  0
 13 14  1  0  0  0  0
 13 15  1  0  0  0  0
 13 16  1  0  0  0  0
 16 17  1  0  0  0  0
 16 18  1  0  0  0  0
 16 19  1  0  0  0  0
 19 20  1  0  0  0  0
 19 21  1  0  0  0  0
 19 22  1  0  0  0  0
M  END
> <VM2 Rank>
62

> <Conf_Id>
252

> <Probability>
0.00

> <Sum Probability>
99.99

> <Delta G>
5.423

> <G>
-11.575

> <E>
-31.812

> <-TS>
20.237

> <U+W>
-49.697

> <U>
11.773

> <W>
-61.471

> <W(PB)>
-63.719

> <W(SA)>
2.248

> <Valence>
10.419

> <Coulomb>
0.566

> <VdW>
0.789

> <VdW6>
-8.847

> <VdW12>
9.636

> <Bond>
0.200

> <Angle>
3.187

> <Pdih>
7.032

> <Idih>
0.001

> <Tether>
0.000

$$$$
VeraChem MOL file


 22 21  0  0  0  0  0  0  0  0999 V2000     
   19.7203   19.0694   25.7217 C   0  0  0  0  0  0  0  0  0  0  0  0
   20.1943   20.0400   26.2786 O   0  5  0  0  0  0  0  0  0  0  0  0
   19.9545   17.9237   26.0526 O   0  0  0  0  0  0  0  0  0  0  0  0
   18.7634   19.3048   24.5563 C   0  0  0  0  0  0  0  0  0  0  0  0
   18.0606   20.0886   24.8625 H   0  0  0  0  0  0  0  0  0  0  0  0
   18.1736   18.3939   24.3978 H   0  0  0  0  0  0  0  0  0  0  0  0
   19.4641   19.7242   23.2378 C   0  0  0  0  0  0  0  0  0  0  0  0
   18.6980   20.0122   22.5086 H   0  0  0  0  0  0  0  0  0  0  0  0
   20.0724   20.6208   23.4205 H   0  0  0  0  0  0  0  0  0  0  0  0
   20.3558   18.6003   22.6558 C   0  0  0  0  0  0  0  0  0  0  0  0
   19.7761   17.6747   22.5377 H   0  0  0  0  0  0  0  0  0  0  0  0
   21.1459   18.3738   23.3849 H   0  0  0  0  0  0  0  0  0  0  0  0
   21.0261   18.9837   21.3121 C   0  0  0  0  0  0  0  0  0  0  0  0
   21.1772   20.0705   21.2579 H   0  0  0  0  0  0  0  0  0  0  0  0
   22.0315   18.5416   21.2939 H   0  0  0  0  0  0  0  0  0  0  0  0
   20.2763   18.4869   20.0513 C   0  0  0  0  0  0  0  0  0  0  0  0
   20.2066   17.3906   20.0727 H   0  0  0  0  0  0  0  0  0  0  0  0
   20.8768   18.7392   19.1665 H   0  0  0  0  0  0  0  0  0  0  0  0
   18.8652   19.0859   19.8778 C   0  0  0  0  0  0  0  0  0  0  0  0
   18.8952   20.1826   19.9153 H   0  0  0  0  0  0  0  0  0  0  0  0
   18.1846   18.7279   20.6602 H   0  0  0  0  0  0  0  0  0  0  0  0
   18.4397   18.7915   18.9097 H   0  0  0  0  0  0  0  0  0  0  0  0
  1  2  1  0  0  0  0
  1  3  2  0  0  0  0
  1  4  1  0  0  0  0
  4  5  1  0  0  0  0
  4  6  1  0  0  0  0
  4  7  1  0  0  0  0
  7  8  1  0  0  0  0
  7  9  1  0  0  0  0
  7 10  1  0  0  0  0
 10 11  1  0  0  0  0
 10 12  1  0  0  0  0
 10 13  1  0  0  0  0
 13 14  1  0  0  0  0
 13 15  1  0  0  0  0
 13 16  1  0  0  0  0
 16 17  1  0  0  0  0
 16 18  1  0  0  0  0
 16 19  1  0  0  0  0
 19 20  1  0  0  0  0
 19 21  1  0  0  0  0
 19 22  1  0  0  0  0
M  END
> <VM2 Rank>
63

> <Conf_Id>
285

> <Probability>
0.00

> <Sum Probability>
99.99

> <Delta G>
5.466

> <G>
-11.532

> <E>
-31.747

> <-TS>
20.214

> <U+W>
-49.631

> <U>
11.659

> <W>
-61.290

> <W(PB)>
-63.516

> <W(SA)>
2.225

> <Valence>
10.364

> <Coulomb>
0.563

> <VdW>
0.732

> <VdW6>
-8.874

> <VdW12>
9.607

> <Bond>
0.201

> <Angle>
3.127

> <Pdih>
7.036

> <Idih>
0.001

> <Tether>
0.000

$$$$
VeraChem MOL file


 22 21  0  0  0  0  0  0  0  0999 V2000     
   19.7819   18.7638   25.4947 C   0  0  0  0  0  0  0  0  0  0  0  0
   19.7334   19.4973   26.4626 O   0  5  0  0  0  0  0  0  0  0  0  0
   20.5200   17.8014   25.4179 O   0  0  0  0  0  0  0  0  0  0  0  0
   18.8467   19.0550   24.3241 C   0  0  0  0  0  0  0  0  0  0  0  0
   17.8467   19.2196   24.7422 H   0  0  0  0  0  0  0  0  0  0  0  0
   18.7822   18.1561   23.7030 H   0  0  0  0  0  0  0  0  0  0  0  0
   19.2599   20.2919   23.4789 C   0  0  0  0  0  0  0  0  0  0  0  0
   18.4479   20.5604   22.7898 H   0  0  0  0  0  0  0  0  0  0  0  0
   19.3716   21.1465   24.1606 H   0  0  0  0  0  0  0  0  0  0  0  0
   20.5811   20.1095   22.6870 C   0  0  0  0  0  0  0  0  0  0  0  0
   21.2542   19.4198   23.2142 H   0  0  0  0  0  0  0  0  0  0  0  0
   21.1026   21.0762   22.6677 H   0  0  0  0  0  0  0  0  0  0  0  0
   20.3981   19.6506   21.2186 C   0  0  0  0  0  0  0  0  0  0  0  0
   19.8024   20.3956   20.6737 H   0  0  0  0  0  0  0  0  0  0  0  0
   21.3860   19.6354   20.7381 H   0  0  0  0  0  0  0  0  0  0  0  0
   19.7458   18.2596   21.0645 C   0  0  0  0  0  0  0  0  0  0  0  0
   18.7081   18.2937   21.4205 H   0  0  0  0  0  0  0  0  0  0  0  0
   20.2802   17.5277   21.6860 H   0  0  0  0  0  0  0  0  0  0  0  0
   19.7531   17.7898   19.5957 C   0  0  0  0  0  0  0  0  0  0  0  0
   19.2780   16.8046   19.5027 H   0  0  0  0  0  0  0  0  0  0  0  0
   20.7792   17.7083   19.2139 H   0  0  0  0  0  0  0  0  0  0  0  0
   19.2037   18.4930   18.9562 H   0  0  0  0  0  0  0  0  0  0  0  0
  1  2  1  0  0  0  0
  1  3  2  0  0  0  0
  1  4  1  0  0  0  0
  4  5  1  0  0  0  0
  4  6  1  0  0  0  0
  4  7  1  0  0  0  0
  7  8  1  0  0  0  0
  7  9  1  0  0  0  0
  7 10  1  0  0  0  0
 10 11  1  0  0  0  0
 10 12  1  0  0  0  0
 10 13  1  0  0  0  0
 13 14  1  0  0  0  0
 13 15  1  0  0  0  0
 13 16  1  0  0  0  0
 16 17  1  0  0  0  0
 16 18  1  0  0  0  0
 16 19  1  0  0  0  0
 19 20  1  0  0  0  0
 19 21  1  0  0  0  0
 19 22  1  0  0  0  0
M  END
> <VM2 Rank>
64

> <Conf_Id>
347

> <Probability>
0.00

> <Sum Probability>
99.99

> <Delta G>
5.547

> <G>
-11.451

> <E>
-31.750

> <-TS>
20.300

> <U+W>
-49.635

> <U>
11.909

> <W>
-61.544

> <W(PB)>
-63.770

> <W(SA)>
2.225

> <Valence>
10.449

> <Coulomb>
0.769

> <VdW>
0.691

> <VdW6>
-9.054

> <VdW12>
9.745

> <Bond>
0.222

> <Angle>
3.228

> <Pdih>
6.998

> <Idih>
0.001

> <Tether>
0.000

$$$$
VeraChem MOL file


 22 21  0  0  0  0  0  0  0  0999 V2000     
   20.1638   19.1739   25.4236 C   0  0  0  0  0  0  0  0  0  0  0  0
   20.9317   20.1147   25.4710 O   0  5  0  0  0  0  0  0  0  0  0  0
   20.4400   18.0596   25.8225 O   0  0  0  0  0  0  0  0  0  0  0  0
   18.7665   19.4139   24.8583 C   0  0  0  0  0  0  0  0  0  0  0  0
   18.3865   20.3396   25.3062 H   0  0  0  0  0  0  0  0  0  0  0  0
   18.1078   18.6042   25.1949 H   0  0  0  0  0  0  0  0  0  0  0  0
   18.7253   19.5319   23.3127 C   0  0  0  0  0  0  0  0  0  0  0  0
   17.7190   19.8485   23.0074 H   0  0  0  0  0  0  0  0  0  0  0  0
   19.4109   20.3272   22.9959 H   0  0  0  0  0  0  0  0  0  0  0  0
   19.0722   18.1983   22.6070 C   0  0  0  0  0  0  0  0  0  0  0  0
   18.3420   17.4422   22.9264 H   0  0  0  0  0  0  0  0  0  0  0  0
   20.0542   17.8314   22.9361 H   0  0  0  0  0  0  0  0  0  0  0  0
   19.0363   18.2960   21.0607 C   0  0  0  0  0  0  0  0  0  0  0  0
   18.6474   17.3469   20.6672 H   0  0  0  0  0  0  0  0  0  0  0  0
   18.3203   19.0664   20.7436 H   0  0  0  0  0  0  0  0  0  0  0  0
   20.4139   18.5453   20.3983 C   0  0  0  0  0  0  0  0  0  0  0  0
   20.2862   18.5209   19.3073 H   0  0  0  0  0  0  0  0  0  0  0  0
   21.0958   17.7202   20.6464 H   0  0  0  0  0  0  0  0  0  0  0  0
   21.0703   19.8855   20.7898 C   0  0  0  0  0  0  0  0  0  0  0  0
   21.9782   20.0560   20.1972 H   0  0  0  0  0  0  0  0  0  0  0  0
   21.3611   19.8892   21.8481 H   0  0  0  0  0  0  0  0  0  0  0  0
   20.3868   20.7259   20.6125 H   0  0  0  0  0  0  0  0  0  0  0  0
  1  2  1  0  0  0  0
  1  3  2  0  0  0  0
  1  4  1  0  0  0  0
  4  5  1  0  0  0  0
  4  6  1  0  0  0  0
  4  7  1  0  0  0  0
  7  8  1  0  0  0  0
  7  9  1  0  0  0  0
  7 10  1  0  0  0  0
 10 11  1  0  0  0  0
 10 12  1  0  0  0  0
 10 13  1  0  0  0  0
 13 14  1  0  0  0  0
 13 15  1  0  0  0  0
 13 16  1  0  0  0  0
 16 17  1  0  0  0  0
 16 18  1  0  0  0  0
 16 19  1  0  0  0  0
 19 20  1  0  0  0  0
 19 21  1  0  0  0  0
 19 22  1  0  0  0  0
M  END
> <VM2 Rank>
65

> <Conf_Id>
330

> <Probability>
0.00

> <Sum Probability>
100.00

> <Delta G>
5.658

> <G>
-11.340

> <E>
-31.597

> <-TS>
20.257

> <U+W>
-49.482

> <U>
12.672

> <W>
-62.154

> <W(PB)>
-64.363

> <W(SA)>
2.209

> <Valence>
10.318

> <Coulomb>
1.786

> <VdW>
0.569

> <VdW6>
-9.119

> <VdW12>
9.687

> <Bond>
0.199

> <Angle>
3.116

> <Pdih>
7.002

> <Idih>
0.001

> <Tether>
0.000

$$$$
VeraChem MOL file


 22 21  0  0  0  0  0  0  0  0999 V2000     
   20.3062   18.9189   24.9670 C   0  0  0  0  0  0  0  0  0  0  0  0
   20.4416   17.7131   25.0404 O   0  5  0  0  0  0  0  0  0  0  0  0
   21.2324   19.7032   25.0325 O   0  0  0  0  0  0  0  0  0  0  0  0
   18.8878   19.4824   24.9046 C   0  0  0  0  0  0  0  0  0  0  0  0
   18.9342   20.5757   24.9779 H   0  0  0  0  0  0  0  0  0  0  0  0
   18.3767   19.1294   25.8078 H   0  0  0  0  0  0  0  0  0  0  0  0
   18.0601   19.0590   23.6586 C   0  0  0  0  0  0  0  0  0  0  0  0
   18.2038   17.9893   23.4561 H   0  0  0  0  0  0  0  0  0  0  0  0
   16.9964   19.1716   23.9080 H   0  0  0  0  0  0  0  0  0  0  0  0
   18.3303   19.9005   22.3841 C   0  0  0  0  0  0  0  0  0  0  0  0
   18.1273   20.9569   22.6064 H   0  0  0  0  0  0  0  0  0  0  0  0
   17.6025   19.6109   21.6139 H   0  0  0  0  0  0  0  0  0  0  0  0
   19.7530   19.7830   21.7843 C   0  0  0  0  0  0  0  0  0  0  0  0
   19.8164   20.4529   20.9161 H   0  0  0  0  0  0  0  0  0  0  0  0
   20.4970   20.1498   22.5025 H   0  0  0  0  0  0  0  0  0  0  0  0
   20.1171   18.3500   21.3352 C   0  0  0  0  0  0  0  0  0  0  0  0
   19.3474   17.9683   20.6507 H   0  0  0  0  0  0  0  0  0  0  0  0
   20.1380   17.6773   22.2030 H   0  0  0  0  0  0  0  0  0  0  0  0
   21.4915   18.3088   20.6374 C   0  0  0  0  0  0  0  0  0  0  0  0
   21.4984   18.9451   19.7428 H   0  0  0  0  0  0  0  0  0  0  0  0
   21.7375   17.2848   20.3279 H   0  0  0  0  0  0  0  0  0  0  0  0
   22.2829   18.6579   21.3139 H   0  0  0  0  0  0  0  0  0  0  0  0
  1  2  1  0  0  0  0
  1  3  2  0  0  0  0
  1  4  1  0  0  0  0
  4  5  1  0  0  0  0
  4  6  1  0  0  0  0
  4  7  1  0  0  0  0
  7  8  1  0  0  0  0
  7  9  1  0  0  0  0
  7 10  1  0  0  0  0
 10 11  1  0  0  0  0
 10 12  1  0  0  0  0
 10 13  1  0  0  0  0
 13 14  1  0  0  0  0
 13 15  1  0  0  0  0
 13 16  1  0  0  0  0
 16 17  1  0  0  0  0
 16 18  1  0  0  0  0
 16 19  1  0  0  0  0
 19 20  1  0  0  0  0
 19 21  1  0  0  0  0
 19 22  1  0  0  0  0
M  END
> <VM2 Rank>
66

> <Conf_Id>
49

> <Probability>
0.00

> <Sum Probability>
100.00

> <Delta G>
6.066

> <G>
-10.932

> <E>
-31.801

> <-TS>
20.869

> <U+W>
-49.686

> <U>
12.939

> <W>
-62.625

> <W(PB)>
-64.804

> <W(SA)>
2.178

> <Valence>
9.684

> <Coulomb>
3.146

> <VdW>
0.109

> <VdW6>
-10.251

> <VdW12>
10.360

> <Bond>
0.223

> <Angle>
3.698

> <Pdih>
5.745

> <Idih>
0.018

> <Tether>
0.000

$$$$
VeraChem MOL file


 22 21  0  0  0  0  0  0  0  0999 V2000     
   19.5603   19.3930   25.0827 C   0  0  0  0  0  0  0  0  0  0  0  0
   19.8606   20.5704   25.0486 O   0  5  0  0  0  0  0  0  0  0  0  0
   18.4527   18.9922   25.3828 O   0  0  0  0  0  0  0  0  0  0  0  0
   20.6609   18.3612   24.8446 C   0  0  0  0  0  0  0  0  0  0  0  0
   20.2670   17.3619   25.0659 H   0  0  0  0  0  0  0  0  0  0  0  0
   21.4390   18.5630   25.5898 H   0  0  0  0  0  0  0  0  0  0  0  0
   21.3005   18.3881   23.4279 C   0  0  0  0  0  0  0  0  0  0  0  0
   21.4969   19.4241   23.1215 H   0  0  0  0  0  0  0  0  0  0  0  0
   22.2859   17.9078   23.4956 H   0  0  0  0  0  0  0  0  0  0  0  0
   20.4914   17.6383   22.3376 C   0  0  0  0  0  0  0  0  0  0  0  0
   20.3333   16.6014   22.6637 H   0  0  0  0  0  0  0  0  0  0  0  0
   21.1049   17.5699   21.4298 H   0  0  0  0  0  0  0  0  0  0  0  0
   19.1180   18.2571   21.9700 C   0  0  0  0  0  0  0  0  0  0  0  0
   18.6517   17.6340   21.1950 H   0  0  0  0  0  0  0  0  0  0  0  0
   18.4475   18.1987   22.8366 H   0  0  0  0  0  0  0  0  0  0  0  0
   19.1663   19.7204   21.4656 C   0  0  0  0  0  0  0  0  0  0  0  0
   19.5480   20.3811   22.2553 H   0  0  0  0  0  0  0  0  0  0  0  0
   18.1394   20.0540   21.2631 H   0  0  0  0  0  0  0  0  0  0  0  0
   20.0093   19.8983   20.1843 C   0  0  0  0  0  0  0  0  0  0  0  0
   19.9389   20.9309   19.8186 H   0  0  0  0  0  0  0  0  0  0  0  0
   19.6574   19.2314   19.3866 H   0  0  0  0  0  0  0  0  0  0  0  0
   21.0687   19.6833   20.3719 H   0  0  0  0  0  0  0  0  0  0  0  0
  1  2  1  0  0  0  0
  1  3  2  0  0  0  0
  1  4  1  0  0  0  0
  4  5  1  0  0  0  0
  4  6  1  0  0  0  0
  4  7  1  0  0  0  0
  7  8  1  0  0  0  0
  7  9  1  0  0  0  0
  7 10  1  0  0  0  0
 10 11  1  0  0  0  0
 10 12  1  0  0  0  0
 10 13  1  0  0  0  0
 13 14  1  0  0  0  0
 13 15  1  0  0  0  0
 13 16  1  0  0  0  0
 16 17  1  0  0  0  0
 16 18  1  0  0  0  0
 16 19  1  0  0  0  0
 19 20  1  0  0  0  0
 19 21  1  0  0  0  0
 19 22  1  0  0  0  0
M  END
> <VM2 Rank>
67

> <Conf_Id>
575

> <Probability>
0.00

> <Sum Probability>
100.00

> <Delta G>
6.513

> <G>
-10.485

> <E>
-31.617

> <-TS>
21.132

> <U+W>
-49.502

> <U>
12.977

> <W>
-62.478

> <W(PB)>
-64.634

> <W(SA)>
2.156

> <Valence>
10.104

> <Coulomb>
2.675

> <VdW>
0.198

> <VdW6>
-10.984

> <VdW12>
11.182

> <Bond>
0.262

> <Angle>
4.020

> <Pdih>
5.805

> <Idih>
0.017

> <Tether>
0.000

$$$$
VeraChem MOL file


 22 21  0  0  0  0  0  0  0  0999 V2000     
   20.1537   19.0209   25.3665 C   0  0  0  0  0  0  0  0  0  0  0  0
   19.6436   19.6426   26.2779 O   0  5  0  0  0  0  0  0  0  0  0  0
   20.4042   17.8330   25.4217 O   0  0  0  0  0  0  0  0  0  0  0  0
   20.5253   19.7819   24.0970 C   0  0  0  0  0  0  0  0  0  0  0  0
   21.2222   19.1690   23.5148 H   0  0  0  0  0  0  0  0  0  0  0  0
   21.0788   20.6772   24.4031 H   0  0  0  0  0  0  0  0  0  0  0  0
   19.3062   20.2021   23.2307 C   0  0  0  0  0  0  0  0  0  0  0  0
   18.6514   20.8424   23.8376 H   0  0  0  0  0  0  0  0  0  0  0  0
   19.6427   20.8280   22.3953 H   0  0  0  0  0  0  0  0  0  0  0  0
   18.4708   19.0159   22.6884 C   0  0  0  0  0  0  0  0  0  0  0  0
   17.6060   19.4153   22.1416 H   0  0  0  0  0  0  0  0  0  0  0  0
   18.0538   18.4609   23.5400 H   0  0  0  0  0  0  0  0  0  0  0  0
   19.2233   18.0155   21.7721 C   0  0  0  0  0  0  0  0  0  0  0  0
   20.0532   17.5421   22.3134 H   0  0  0  0  0  0  0  0  0  0  0  0
   18.5240   17.1999   21.5432 H   0  0  0  0  0  0  0  0  0  0  0  0
   19.7152   18.6057   20.4262 C   0  0  0  0  0  0  0  0  0  0  0  0
   19.0479   19.4145   20.0983 H   0  0  0  0  0  0  0  0  0  0  0  0
   19.6453   17.8229   19.6584 H   0  0  0  0  0  0  0  0  0  0  0  0
   21.1777   19.1014   20.4635 C   0  0  0  0  0  0  0  0  0  0  0  0
   21.8569   18.2941   20.7669 H   0  0  0  0  0  0  0  0  0  0  0  0
   21.3086   19.9361   21.1604 H   0  0  0  0  0  0  0  0  0  0  0  0
   21.4899   19.4470   19.4696 H   0  0  0  0  0  0  0  0  0  0  0  0
  1  2  1  0  0  0  0
  1  3  2  0  0  0  0
  1  4  1  0  0  0  0
  4  5  1  0  0  0  0
  4  6  1  0  0  0  0
  4  7  1  0  0  0  0
  7  8  1  0  0  0  0
  7  9  1  0  0  0  0
  7 10  1  0  0  0  0
 10 11  1  0  0  0  0
 10 12  1  0  0  0  0
 10 13  1  0  0  0  0
 13 14  1  0  0  0  0
 13 15  1  0  0  0  0
 13 16  1  0  0  0  0
 16 17  1  0  0  0  0
 16 18  1  0  0  0  0
 16 19  1  0  0  0  0
 19 20  1  0  0  0  0
 19 21  1  0  0  0  0
 19 22  1  0  0  0  0
M  END
> <VM2 Rank>
68

> <Conf_Id>
366

> <Probability>
0.00

> <Sum Probability>
100.00

> <Delta G>
6.719

> <G>
-10.279

> <E>
-30.970

> <-TS>
20.691

> <U+W>
-48.855

> <U>
13.163

> <W>
-62.019

> <W(PB)>
-64.182

> <W(SA)>
2.163

> <Valence>
10.932

> <Coulomb>
1.922

> <VdW>
0.309

> <VdW6>
-10.319

> <VdW12>
10.628

> <Bond>
0.254

> <Angle>
3.841

> <Pdih>
6.835

> <Idih>
0.001

> <Tether>
0.000

$$$$
VeraChem MOL file


 22 21  0  0  0  0  0  0  0  0999 V2000     
   19.7752   18.8134   25.3774 C   0  0  0  0  0  0  0  0  0  0  0  0
   19.5652   19.5998   26.2802 O   0  5  0  0  0  0  0  0  0  0  0  0
   20.6442   17.9647   25.4150 O   0  0  0  0  0  0  0  0  0  0  0  0
   18.8789   18.8792   24.1440 C   0  0  0  0  0  0  0  0  0  0  0  0
   17.8409   18.9020   24.4955 H   0  0  0  0  0  0  0  0  0  0  0  0
   18.9957   17.9482   23.5785 H   0  0  0  0  0  0  0  0  0  0  0  0
   19.1414   20.1116   23.2354 C   0  0  0  0  0  0  0  0  0  0  0  0
   18.3967   20.1447   22.4309 H   0  0  0  0  0  0  0  0  0  0  0  0
   18.9801   21.0225   23.8282 H   0  0  0  0  0  0  0  0  0  0  0  0
   20.5654   20.1640   22.6286 C   0  0  0  0  0  0  0  0  0  0  0  0
   21.2943   20.2371   23.4474 H   0  0  0  0  0  0  0  0  0  0  0  0
   20.6693   21.0945   22.0542 H   0  0  0  0  0  0  0  0  0  0  0  0
   20.9640   18.9696   21.7222 C   0  0  0  0  0  0  0  0  0  0  0  0
   22.0165   19.1144   21.4432 H   0  0  0  0  0  0  0  0  0  0  0  0
   20.9410   18.0287   22.2878 H   0  0  0  0  0  0  0  0  0  0  0  0
   20.1435   18.8406   20.4139 C   0  0  0  0  0  0  0  0  0  0  0  0
   20.8067   18.4600   19.6250 H   0  0  0  0  0  0  0  0  0  0  0  0
   19.8058   19.8302   20.0768 H   0  0  0  0  0  0  0  0  0  0  0  0
   18.9423   17.8760   20.5273 C   0  0  0  0  0  0  0  0  0  0  0  0
   18.1995   18.2315   21.2493 H   0  0  0  0  0  0  0  0  0  0  0  0
   19.2712   16.8766   20.8404 H   0  0  0  0  0  0  0  0  0  0  0  0
   18.4397   17.7752   19.5567 H   0  0  0  0  0  0  0  0  0  0  0  0
  1  2  1  0  0  0  0
  1  3  2  0  0  0  0
  1  4  1  0  0  0  0
  4  5  1  0  0  0  0
  4  6  1  0  0  0  0
  4  7  1  0  0  0  0
  7  8  1  0  0  0  0
  7  9  1  0  0  0  0
  7 10  1  0  0  0  0
 10 11  1  0  0  0  0
 10 12  1  0  0  0  0
 10 13  1  0  0  0  0
 13 14  1  0  0  0  0
 13 15  1  0  0  0  0
 13 16  1  0  0  0  0
 16 17  1  0  0  0  0
 16 18  1  0  0  0  0
 16 19  1  0  0  0  0
 19 20  1  0  0  0  0
 19 21  1  0  0  0  0
 19 22  1  0  0  0  0
M  END
> <VM2 Rank>
69

> <Conf_Id>
157

> <Probability>
0.00

> <Sum Probability>
100.00

> <Delta G>
6.732

> <G>
-10.266

> <E>
-30.958

> <-TS>
20.692

> <U+W>
-48.843

> <U>
13.163

> <W>
-62.006

> <W(PB)>
-64.166

> <W(SA)>
2.160

> <Valence>
10.932

> <Coulomb>
1.922

> <VdW>
0.309

> <VdW6>
-10.319

> <VdW12>
10.629

> <Bond>
0.254

> <Angle>
3.841

> <Pdih>
6.835

> <Idih>
0.001

> <Tether>
0.000

$$$$
VeraChem MOL file


 22 21  0  0  0  0  0  0  0  0999 V2000     
   20.2506   18.9694   25.2646 C   0  0  0  0  0  0  0  0  0  0  0  0
   19.6257   19.1309   26.2946 O   0  5  0  0  0  0  0  0  0  0  0  0
   20.9765   18.0160   25.0627 O   0  0  0  0  0  0  0  0  0  0  0  0
   20.1394   20.0398   24.1818 C   0  0  0  0  0  0  0  0  0  0  0  0
   20.3023   21.0086   24.6681 H   0  0  0  0  0  0  0  0  0  0  0  0
   20.9622   19.9039   23.4732 H   0  0  0  0  0  0  0  0  0  0  0  0
   18.7689   20.0578   23.4500 C   0  0  0  0  0  0  0  0  0  0  0  0
   17.9799   20.1379   24.2107 H   0  0  0  0  0  0  0  0  0  0  0  0
   18.6881   20.9650   22.8364 H   0  0  0  0  0  0  0  0  0  0  0  0
   18.4928   18.8063   22.5758 C   0  0  0  0  0  0  0  0  0  0  0  0
   17.4203   18.5791   22.6448 H   0  0  0  0  0  0  0  0  0  0  0  0
   19.0037   17.9247   22.9846 H   0  0  0  0  0  0  0  0  0  0  0  0
   18.8282   18.9834   21.0714 C   0  0  0  0  0  0  0  0  0  0  0  0
   18.4763   18.0965   20.5273 H   0  0  0  0  0  0  0  0  0  0  0  0
   18.2465   19.8273   20.6764 H   0  0  0  0  0  0  0  0  0  0  0  0
   20.3213   19.2084   20.7345 C   0  0  0  0  0  0  0  0  0  0  0  0
   20.6866   20.1203   21.2233 H   0  0  0  0  0  0  0  0  0  0  0  0
   20.4117   19.3887   19.6546 H   0  0  0  0  0  0  0  0  0  0  0  0
   21.2166   18.0070   21.1085 C   0  0  0  0  0  0  0  0  0  0  0  0
   20.8695   17.0907   20.6137 H   0  0  0  0  0  0  0  0  0  0  0  0
   21.2202   17.8297   22.1915 H   0  0  0  0  0  0  0  0  0  0  0  0
   22.2533   18.1881   20.7970 H   0  0  0  0  0  0  0  0  0  0  0  0
  1  2  1  0  0  0  0
  1  3  2  0  0  0  0
  1  4  1  0  0  0  0
  4  5  1  0  0  0  0
  4  6  1  0  0  0  0
  4  7  1  0  0  0  0
  7  8  1  0  0  0  0
  7  9  1  0  0  0  0
  7 10  1  0  0  0  0
 10 11  1  0  0  0  0
 10 12  1  0  0  0  0
 10 13  1  0  0  0  0
 13 14  1  0  0  0  0
 13 15  1  0  0  0  0
 13 16  1  0  0  0  0
 16 17  1  0  0  0  0
 16 18  1  0  0  0  0
 16 19  1  0  0  0  0
 19 20  1  0  0  0  0
 19 21  1  0  0  0  0
 19 22  1  0  0  0  0
M  END
> <VM2 Rank>
70

> <Conf_Id>
192

> <Probability>
0.00

> <Sum Probability>
100.00

> <Delta G>
7.234

> <G>
-9.764

> <E>
-30.742

> <-TS>
20.978

> <U+W>
-48.627

> <U>
13.493

> <W>
-62.120

> <W(PB)>
-64.295

> <W(SA)>
2.175

> <Valence>
11.096

> <Coulomb>
2.068

> <VdW>
0.328

> <VdW6>
-10.376

> <VdW12>
10.703

> <Bond>
0.258

> <Angle>
3.696

> <Pdih>
7.142

> <Idih>
0.001

> <Tether>
0.000

$$$$
VeraChem MOL file


 22 21  0  0  0  0  0  0  0  0999 V2000     
   20.2135   18.8361   25.1076 C   0  0  0  0  0  0  0  0  0  0  0  0
   20.5288   19.7782   25.8083 O   0  5  0  0  0  0  0  0  0  0  0  0
   20.9503   17.8977   24.8776 O   0  0  0  0  0  0  0  0  0  0  0  0
   18.7947   18.7973   24.5425 C   0  0  0  0  0  0  0  0  0  0  0  0
   18.1135   18.7204   25.3976 H   0  0  0  0  0  0  0  0  0  0  0  0
   18.6666   17.8776   23.9610 H   0  0  0  0  0  0  0  0  0  0  0  0
   18.4061   20.0368   23.6917 C   0  0  0  0  0  0  0  0  0  0  0  0
   17.3399   19.9768   23.4349 H   0  0  0  0  0  0  0  0  0  0  0  0
   18.5179   20.9365   24.3124 H   0  0  0  0  0  0  0  0  0  0  0  0
   19.2324   20.2228   22.3939 C   0  0  0  0  0  0  0  0  0  0  0  0
   20.2984   20.3129   22.6382 H   0  0  0  0  0  0  0  0  0  0  0  0
   18.9464   21.1889   21.9564 H   0  0  0  0  0  0  0  0  0  0  0  0
   18.9945   19.1244   21.3233 C   0  0  0  0  0  0  0  0  0  0  0  0
   18.0081   18.6669   21.4791 H   0  0  0  0  0  0  0  0  0  0  0  0
   18.9470   19.5976   20.3330 H   0  0  0  0  0  0  0  0  0  0  0  0
   20.0742   18.0159   21.2805 C   0  0  0  0  0  0  0  0  0  0  0  0
   19.7109   17.1962   20.6457 H   0  0  0  0  0  0  0  0  0  0  0  0
   20.2258   17.5878   22.2791 H   0  0  0  0  0  0  0  0  0  0  0  0
   21.4256   18.5098   20.7187 C   0  0  0  0  0  0  0  0  0  0  0  0
   21.8754   19.2731   21.3654 H   0  0  0  0  0  0  0  0  0  0  0  0
   21.3018   18.9384   19.7158 H   0  0  0  0  0  0  0  0  0  0  0  0
   22.1366   17.6769   20.6445 H   0  0  0  0  0  0  0  0  0  0  0  0
  1  2  1  0  0  0  0
  1  3  2  0  0  0  0
  1  4  1  0  0  0  0
  4  5  1  0  0  0  0
  4  6  1  0  0  0  0
  4  7  1  0  0  0  0
  7  8  1  0  0  0  0
  7  9  1  0  0  0  0
  7 10  1  0  0  0  0
 10 11  1  0  0  0  0
 10 12  1  0  0  0  0
 10 13  1  0  0  0  0
 13 14  1  0  0  0  0
 13 15  1  0  0  0  0
 13 16  1  0  0  0  0
 16 17  1  0  0  0  0
 16 18  1  0  0  0  0
 16 19  1  0  0  0  0
 19 20  1  0  0  0  0
 19 21  1  0  0  0  0
 19 22  1  0  0  0  0
M  END
> <VM2 Rank>
71

> <Conf_Id>
53

> <Probability>
0.00

> <Sum Probability>
100.00

> <Delta G>
7.339

> <G>
-9.659

> <E>
-30.004

> <-TS>
20.345

> <U+W>
-47.889

> <U>
14.792

> <W>
-62.681

> <W(PB)>
-64.847

> <W(SA)>
2.166

> <Valence>
11.491

> <Coulomb>
2.886

> <VdW>
0.415

> <VdW6>
-10.182

> <VdW12>
10.597

> <Bond>
0.251

> <Angle>
3.560

> <Pdih>
7.674

> <Idih>
0.007

> <Tether>
0.000

$$$$
VeraChem MOL file


 22 21  0  0  0  0  0  0  0  0999 V2000     
   19.9320   19.5142   25.4405 C   0  0  0  0  0  0  0  0  0  0  0  0
   20.7285   20.4242   25.3228 O   0  5  0  0  0  0  0  0  0  0  0  0
   19.6920   18.9625   26.4964 O   0  0  0  0  0  0  0  0  0  0  0  0
   19.2081   19.0235   24.1920 C   0  0  0  0  0  0  0  0  0  0  0  0
   19.0581   19.8827   23.5313 H   0  0  0  0  0  0  0  0  0  0  0  0
   18.2126   18.6755   24.4922 H   0  0  0  0  0  0  0  0  0  0  0  0
   19.9711   17.8855   23.4641 C   0  0  0  0  0  0  0  0  0  0  0  0
   20.9987   18.1977   23.2341 H   0  0  0  0  0  0  0  0  0  0  0  0
   20.0608   17.0418   24.1623 H   0  0  0  0  0  0  0  0  0  0  0  0
   19.2598   17.3912   22.1801 C   0  0  0  0  0  0  0  0  0  0  0  0
   18.1724   17.5143   22.2762 H   0  0  0  0  0  0  0  0  0  0  0  0
   19.4278   16.3084   22.1006 H   0  0  0  0  0  0  0  0  0  0  0  0
   19.7529   18.0300   20.8549 C   0  0  0  0  0  0  0  0  0  0  0  0
   20.8271   17.8415   20.7230 H   0  0  0  0  0  0  0  0  0  0  0  0
   19.2572   17.4954   20.0331 H   0  0  0  0  0  0  0  0  0  0  0  0
   19.4503   19.5390   20.6849 C   0  0  0  0  0  0  0  0  0  0  0  0
   18.5355   19.8090   21.2290 H   0  0  0  0  0  0  0  0  0  0  0  0
   19.2394   19.7349   19.6246 H   0  0  0  0  0  0  0  0  0  0  0  0
   20.6252   20.4488   21.1083 C   0  0  0  0  0  0  0  0  0  0  0  0
   20.3649   21.5050   20.9623 H   0  0  0  0  0  0  0  0  0  0  0  0
   21.5188   20.2369   20.5070 H   0  0  0  0  0  0  0  0  0  0  0  0
   20.8893   20.3128   22.1633 H   0  0  0  0  0  0  0  0  0  0  0  0
  1  2  1  0  0  0  0
  1  3  2  0  0  0  0
  1  4  1  0  0  0  0
  4  5  1  0  0  0  0
  4  6  1  0  0  0  0
  4  7  1  0  0  0  0
  7  8  1  0  0  0  0
  7  9  1  0  0  0  0
  7 10  1  0  0  0  0
 10 11  1  0  0  0  0
 10 12  1  0  0  0  0
 10 13  1  0  0  0  0
 13 14  1  0  0  0  0
 13 15  1  0  0  0  0
 13 16  1  0  0  0  0
 16 17  1  0  0  0  0
 16 18  1  0  0  0  0
 16 19  1  0  0  0  0
 19 20  1  0  0  0  0
 19 21  1  0  0  0  0
 19 22  1  0  0  0  0
M  END
> <VM2 Rank>
72

> <Conf_Id>
566

> <Probability>
0.00

> <Sum Probability>
100.00

> <Delta G>
7.561

> <G>
-9.437

> <E>
-29.905

> <-TS>
20.468

> <U+W>
-47.789

> <U>
13.811

> <W>
-61.600

> <W(PB)>
-63.798

> <W(SA)>
2.197

> <Valence>
12.676

> <Coulomb>
0.620

> <VdW>
0.516

> <VdW6>
-9.538

> <VdW12>
10.053

> <Bond>
0.234

> <Angle>
3.707

> <Pdih>
8.734

> <Idih>
0.001

> <Tether>
0.000

$$$$
VeraChem MOL file


 22 21  0  0  0  0  0  0  0  0999 V2000     
   19.8386   18.7656   25.2432 C   0  0  0  0  0  0  0  0  0  0  0  0
   18.6765   18.6804   25.5891 O   0  5  0  0  0  0  0  0  0  0  0  0
   20.6206   17.8359   25.2790 O   0  0  0  0  0  0  0  0  0  0  0  0
   20.3603   20.1268   24.7931 C   0  0  0  0  0  0  0  0  0  0  0  0
   21.2773   20.3196   25.3622 H   0  0  0  0  0  0  0  0  0  0  0  0
   19.6386   20.8956   25.0944 H   0  0  0  0  0  0  0  0  0  0  0  0
   20.6695   20.2467   23.2746 C   0  0  0  0  0  0  0  0  0  0  0  0
   21.2170   21.1858   23.1182 H   0  0  0  0  0  0  0  0  0  0  0  0
   21.3518   19.4425   22.9715 H   0  0  0  0  0  0  0  0  0  0  0  0
   19.4084   20.2716   22.3716 C   0  0  0  0  0  0  0  0  0  0  0  0
   19.6332   20.8252   21.4499 H   0  0  0  0  0  0  0  0  0  0  0  0
   18.6236   20.8502   22.8775 H   0  0  0  0  0  0  0  0  0  0  0  0
   18.8480   18.8741   21.9967 C   0  0  0  0  0  0  0  0  0  0  0  0
   19.0660   18.1406   22.7825 H   0  0  0  0  0  0  0  0  0  0  0  0
   17.7529   18.9460   21.9530 H   0  0  0  0  0  0  0  0  0  0  0  0
   19.3385   18.3347   20.6304 C   0  0  0  0  0  0  0  0  0  0  0  0
   19.0490   19.0324   19.8326 H   0  0  0  0  0  0  0  0  0  0  0  0
   18.8162   17.3915   20.4190 H   0  0  0  0  0  0  0  0  0  0  0  0
   20.8595   18.0832   20.5661 C   0  0  0  0  0  0  0  0  0  0  0  0
   21.1310   17.6078   19.6149 H   0  0  0  0  0  0  0  0  0  0  0  0
   21.1825   17.4216   21.3806 H   0  0  0  0  0  0  0  0  0  0  0  0
   21.4198   19.0237   20.6396 H   0  0  0  0  0  0  0  0  0  0  0  0
  1  2  1  0  0  0  0
  1  3  2  0  0  0  0
  1  4  1  0  0  0  0
  4  5  1  0  0  0  0
  4  6  1  0  0  0  0
  4  7  1  0  0  0  0
  7  8  1  0  0  0  0
  7  9  1  0  0  0  0
  7 10  1  0  0  0  0
 10 11  1  0  0  0  0
 10 12  1  0  0  0  0
 10 13  1  0  0  0  0
 13 14  1  0  0  0  0
 13 15  1  0  0  0  0
 13 16  1  0  0  0  0
 16 17  1  0  0  0  0
 16 18  1  0  0  0  0
 16 19  1  0  0  0  0
 19 20  1  0  0  0  0
 19 21  1  0  0  0  0
 19 22  1  0  0  0  0
M  END
> <VM2 Rank>
73

> <Conf_Id>
573

> <Probability>
0.00

> <Sum Probability>
100.00

> <Delta G>
8.166

> <G>
-8.832

> <E>
-29.229

> <-TS>
20.397

> <U+W>
-47.114

> <U>
15.358

> <W>
-62.472

> <W(PB)>
-64.649

> <W(SA)>
2.177

> <Valence>
12.193

> <Coulomb>
2.676

> <VdW>
0.488

> <VdW6>
-10.169

> <VdW12>
10.657

> <Bond>
0.265

> <Angle>
3.626

> <Pdih>
8.298

> <Idih>
0.004

> <Tether>
0.000

$$$$
VeraChem MOL file


 22 21  0  0  0  0  0  0  0  0999 V2000     
   20.3261   18.8446   24.8916 C   0  0  0  0  0  0  0  0  0  0  0  0
   20.8095   19.9143   25.2084 O   0  5  0  0  0  0  0  0  0  0  0  0
   20.9724   17.8186   24.8120 O   0  0  0  0  0  0  0  0  0  0  0  0
   18.8106   18.7497   24.7075 C   0  0  0  0  0  0  0  0  0  0  0  0
   18.3823   18.7614   25.7163 H   0  0  0  0  0  0  0  0  0  0  0  0
   18.5639   17.7728   24.2750 H   0  0  0  0  0  0  0  0  0  0  0  0
   18.1579   19.8877   23.8720 C   0  0  0  0  0  0  0  0  0  0  0  0
   17.1017   19.9579   24.1650 H   0  0  0  0  0  0  0  0  0  0  0  0
   18.6056   20.8546   24.1403 H   0  0  0  0  0  0  0  0  0  0  0  0
   18.2029   19.6937   22.3345 C   0  0  0  0  0  0  0  0  0  0  0  0
   17.6315   20.5158   21.8820 H   0  0  0  0  0  0  0  0  0  0  0  0
   17.6690   18.7748   22.0562 H   0  0  0  0  0  0  0  0  0  0  0  0
   19.6227   19.7009   21.7159 C   0  0  0  0  0  0  0  0  0  0  0  0
   19.5965   20.2801   20.7829 H   0  0  0  0  0  0  0  0  0  0  0  0
   20.3241   20.2250   22.3795 H   0  0  0  0  0  0  0  0  0  0  0  0
   20.1445   18.2837   21.3897 C   0  0  0  0  0  0  0  0  0  0  0  0
   19.4736   17.8015   20.6657 H   0  0  0  0  0  0  0  0  0  0  0  0
   20.1363   17.6587   22.2912 H   0  0  0  0  0  0  0  0  0  0  0  0
   21.5735   18.3256   20.8124 C   0  0  0  0  0  0  0  0  0  0  0  0
   21.9252   17.3128   20.5772 H   0  0  0  0  0  0  0  0  0  0  0  0
   22.2724   18.7671   21.5352 H   0  0  0  0  0  0  0  0  0  0  0  0
   21.6091   18.9210   19.8908 H   0  0  0  0  0  0  0  0  0  0  0  0
  1  2  1  0  0  0  0
  1  3  2  0  0  0  0
  1  4  1  0  0  0  0
  4  5  1  0  0  0  0
  4  6  1  0  0  0  0
  4  7  1  0  0  0  0
  7  8  1  0  0  0  0
  7  9  1  0  0  0  0
  7 10  1  0  0  0  0
 10 11  1  0  0  0  0
 10 12  1  0  0  0  0
 10 13  1  0  0  0  0
 13 14  1  0  0  0  0
 13 15  1  0  0  0  0
 13 16  1  0  0  0  0
 16 17  1  0  0  0  0
 16 18  1  0  0  0  0
 16 19  1  0  0  0  0
 19 20  1  0  0  0  0
 19 21  1  0  0  0  0
 19 22  1  0  0  0  0
M  END
> <VM2 Rank>
74

> <Conf_Id>
457

> <Probability>
0.00

> <Sum Probability>
100.00

> <Delta G>
8.527

> <G>
-8.471

> <E>
-29.145

> <-TS>
20.675

> <U+W>
-47.030

> <U>
15.739

> <W>
-62.769

> <W(PB)>
-64.934

> <W(SA)>
2.164

> <Valence>
12.167

> <Coulomb>
3.363

> <VdW>
0.210

> <VdW6>
-10.463

> <VdW12>
10.673

> <Bond>
0.233

> <Angle>
3.822

> <Pdih>
8.088

> <Idih>
0.023

> <Tether>
0.000

$$$$
VeraChem MOL file


 22 21  0  0  0  0  0  0  0  0999 V2000     
   20.3430   19.3252   24.8678 C   0  0  0  0  0  0  0  0  0  0  0  0
   20.7512   18.2606   25.2901 O   0  5  0  0  0  0  0  0  0  0  0  0
   21.0596   20.2905   24.6901 O   0  0  0  0  0  0  0  0  0  0  0  0
   18.8374   19.5077   24.6700 C   0  0  0  0  0  0  0  0  0  0  0  0
   18.6584   20.4523   24.1426 H   0  0  0  0  0  0  0  0  0  0  0  0
   18.4128   19.6255   25.6736 H   0  0  0  0  0  0  0  0  0  0  0  0
   18.1034   18.3417   23.9483 C   0  0  0  0  0  0  0  0  0  0  0  0
   18.4830   17.3769   24.3120 H   0  0  0  0  0  0  0  0  0  0  0  0
   17.0459   18.3751   24.2432 H   0  0  0  0  0  0  0  0  0  0  0  0
   18.1565   18.3799   22.3994 C   0  0  0  0  0  0  0  0  0  0  0  0
   17.6876   19.3022   22.0302 H   0  0  0  0  0  0  0  0  0  0  0  0
   17.5272   17.5595   22.0280 H   0  0  0  0  0  0  0  0  0  0  0  0
   19.5701   18.2121   21.7894 C   0  0  0  0  0  0  0  0  0  0  0  0
   20.2353   17.7077   22.5037 H   0  0  0  0  0  0  0  0  0  0  0  0
   19.5001   17.5472   20.9177 H   0  0  0  0  0  0  0  0  0  0  0  0
   20.1892   19.5501   21.3272 C   0  0  0  0  0  0  0  0  0  0  0  0
   20.2280   20.2598   22.1628 H   0  0  0  0  0  0  0  0  0  0  0  0
   19.5513   20.0048   20.5569 H   0  0  0  0  0  0  0  0  0  0  0  0
   21.6097   19.3513   20.7618 C   0  0  0  0  0  0  0  0  0  0  0  0
   22.2783   18.9350   21.5269 H   0  0  0  0  0  0  0  0  0  0  0  0
   22.0309   20.3089   20.4294 H   0  0  0  0  0  0  0  0  0  0  0  0
   21.6001   18.6671   19.9033 H   0  0  0  0  0  0  0  0  0  0  0  0
  1  2  1  0  0  0  0
  1  3  2  0  0  0  0
  1  4  1  0  0  0  0
  4  5  1  0  0  0  0
  4  6  1  0  0  0  0
  4  7  1  0  0  0  0
  7  8  1  0  0  0  0
  7  9  1  0  0  0  0
  7 10  1  0  0  0  0
 10 11  1  0  0  0  0
 10 12  1  0  0  0  0
 10 13  1  0  0  0  0
 13 14  1  0  0  0  0
 13 15  1  0  0  0  0
 13 16  1  0  0  0  0
 16 17  1  0  0  0  0
 16 18  1  0  0  0  0
 16 19  1  0  0  0  0
 19 20  1  0  0  0  0
 19 21  1  0  0  0  0
 19 22  1  0  0  0  0
M  END
> <VM2 Rank>
75

> <Conf_Id>
531

> <Probability>
0.00

> <Sum Probability>
100.00

> <Delta G>
8.582

> <G>
-8.416

> <E>
-29.090

> <-TS>
20.675

> <U+W>
-46.975

> <U>
15.738

> <W>
-62.713

> <W(PB)>
-64.888

> <W(SA)>
2.174

> <Valence>
12.167

> <Coulomb>
3.362

> <VdW>
0.209

> <VdW6>
-10.463

> <VdW12>
10.672

> <Bond>
0.233

> <Angle>
3.823

> <Pdih>
8.088

> <Idih>
0.022

> <Tether>
0.000

$$$$
VeraChem MOL file


 22 21  0  0  0  0  0  0  0  0999 V2000     
   19.5917   19.3622   25.3453 C   0  0  0  0  0  0  0  0  0  0  0  0
   19.9777   20.5132   25.2902 O   0  5  0  0  0  0  0  0  0  0  0  0
   19.6751   18.6732   26.3431 O   0  0  0  0  0  0  0  0  0  0  0  0
   18.9429   18.7548   24.1044 C   0  0  0  0  0  0  0  0  0  0  0  0
   18.6568   19.5698   23.4324 H   0  0  0  0  0  0  0  0  0  0  0  0
   18.0128   18.2732   24.4277 H   0  0  0  0  0  0  0  0  0  0  0  0
   19.8337   17.7131   23.3722 C   0  0  0  0  0  0  0  0  0  0  0  0
   20.1494   16.9621   24.1096 H   0  0  0  0  0  0  0  0  0  0  0  0
   19.2415   17.1679   22.6257 H   0  0  0  0  0  0  0  0  0  0  0  0
   21.0966   18.3140   22.7035 C   0  0  0  0  0  0  0  0  0  0  0  0
   21.9012   17.5702   22.7821 H   0  0  0  0  0  0  0  0  0  0  0  0
   21.4502   19.1889   23.2657 H   0  0  0  0  0  0  0  0  0  0  0  0
   20.9508   18.6741   21.2013 C   0  0  0  0  0  0  0  0  0  0  0  0
   21.9481   18.9570   20.8375 H   0  0  0  0  0  0  0  0  0  0  0  0
   20.6693   17.7821   20.6252 H   0  0  0  0  0  0  0  0  0  0  0  0
   19.9856   19.8426   20.8854 C   0  0  0  0  0  0  0  0  0  0  0  0
   20.3929   20.4133   20.0395 H   0  0  0  0  0  0  0  0  0  0  0  0
   19.9456   20.5433   21.7303 H   0  0  0  0  0  0  0  0  0  0  0  0
   18.5659   19.3718   20.4986 C   0  0  0  0  0  0  0  0  0  0  0  0
   18.0967   18.7895   21.2993 H   0  0  0  0  0  0  0  0  0  0  0  0
   18.5954   18.7444   19.5984 H   0  0  0  0  0  0  0  0  0  0  0  0
   17.9198   20.2334   20.2866 H   0  0  0  0  0  0  0  0  0  0  0  0
  1  2  1  0  0  0  0
  1  3  2  0  0  0  0
  1  4  1  0  0  0  0
  4  5  1  0  0  0  0
  4  6  1  0  0  0  0
  4  7  1  0  0  0  0
  7  8  1  0  0  0  0
  7  9  1  0  0  0  0
  7 10  1  0  0  0  0
 10 11  1  0  0  0  0
 10 12  1  0  0  0  0
 10 13  1  0  0  0  0
 13 14  1  0  0  0  0
 13 15  1  0  0  0  0
 13 16  1  0  0  0  0
 16 17  1  0  0  0  0
 16 18  1  0  0  0  0
 16 19  1  0  0  0  0
 19 20  1  0  0  0  0
 19 21  1  0  0  0  0
 19 22  1  0  0  0  0
M  END
> <VM2 Rank>
76

> <Conf_Id>
370

> <Probability>
0.00

> <Sum Probability>
100.00

> <Delta G>
8.880

> <G>
-8.118

> <E>
-28.884

> <-TS>
20.766

> <U+W>
-46.769

> <U>
15.181

> <W>
-61.950

> <W(PB)>
-64.115

> <W(SA)>
2.166

> <Valence>
13.025

> <Coulomb>
1.614

> <VdW>
0.542

> <VdW6>
-10.173

> <VdW12>
10.715

> <Bond>
0.264

> <Angle>
3.903

> <Pdih>
8.857

> <Idih>
0.001

> <Tether>
0.000

$$$$
VeraChem MOL file


 22 21  0  0  0  0  0  0  0  0999 V2000     
   20.1923   18.8257   25.0621 C   0  0  0  0  0  0  0  0  0  0  0  0
   20.5480   19.8726   25.5679 O   0  5  0  0  0  0  0  0  0  0  0  0
   20.8988   17.8385   25.0066 O   0  0  0  0  0  0  0  0  0  0  0  0
   18.7492   18.7034   24.5716 C   0  0  0  0  0  0  0  0  0  0  0  0
   18.1266   18.6451   25.4718 H   0  0  0  0  0  0  0  0  0  0  0  0
   18.6301   17.7479   24.0467 H   0  0  0  0  0  0  0  0  0  0  0  0
   18.2387   19.8726   23.6819 C   0  0  0  0  0  0  0  0  0  0  0  0
   17.1426   19.8936   23.7484 H   0  0  0  0  0  0  0  0  0  0  0  0
   18.5807   20.8332   24.0914 H   0  0  0  0  0  0  0  0  0  0  0  0
   18.6136   19.7730   22.1811 C   0  0  0  0  0  0  0  0  0  0  0  0
   18.1090   20.5967   21.6579 H   0  0  0  0  0  0  0  0  0  0  0  0
   18.1933   18.8523   21.7571 H   0  0  0  0  0  0  0  0  0  0  0  0
   20.1319   19.8746   21.8824 C   0  0  0  0  0  0  0  0  0  0  0  0
   20.2848   20.5346   21.0177 H   0  0  0  0  0  0  0  0  0  0  0  0
   20.6420   20.3669   22.7215 H   0  0  0  0  0  0  0  0  0  0  0  0
   20.8102   18.5151   21.5881 C   0  0  0  0  0  0  0  0  0  0  0  0
   20.5552   17.7865   22.3681 H   0  0  0  0  0  0  0  0  0  0  0  0
   21.8999   18.6470   21.6331 H   0  0  0  0  0  0  0  0  0  0  0  0
   20.4373   17.9436   20.2023 C   0  0  0  0  0  0  0  0  0  0  0  0
   20.9741   17.0041   20.0179 H   0  0  0  0  0  0  0  0  0  0  0  0
   20.7049   18.6470   19.4031 H   0  0  0  0  0  0  0  0  0  0  0  0
   19.3631   17.7344   20.1278 H   0  0  0  0  0  0  0  0  0  0  0  0
  1  2  1  0  0  0  0
  1  3  2  0  0  0  0
  1  4  1  0  0  0  0
  4  5  1  0  0  0  0
  4  6  1  0  0  0  0
  4  7  1  0  0  0  0
  7  8  1  0  0  0  0
  7  9  1  0  0  0  0
  7 10  1  0  0  0  0
 10 11  1  0  0  0  0
 10 12  1  0  0  0  0
 10 13  1  0  0  0  0
 13 14  1  0  0  0  0
 13 15  1  0  0  0  0
 13 16  1  0  0  0  0
 16 17  1  0  0  0  0
 16 18  1  0  0  0  0
 16 19  1  0  0  0  0
 19 20  1  0  0  0  0
 19 21  1  0  0  0  0
 19 22  1  0  0  0  0
M  END
> <VM2 Rank>
77

> <Conf_Id>
547

> <Probability>
0.00

> <Sum Probability>
100.00

> <Delta G>
8.963

> <G>
-8.035

> <E>
-28.769

> <-TS>
20.734

> <U+W>
-46.654

> <U>
15.752

> <W>
-62.406

> <W(PB)>
-64.579

> <W(SA)>
2.173

> <Valence>
12.808

> <Coulomb>
2.444

> <VdW>
0.501

> <VdW6>
-10.774

> <VdW12>
11.275

> <Bond>
0.268

> <Angle>
3.894

> <Pdih>
8.629

> <Idih>
0.018

> <Tether>
0.000

$$$$
VeraChem MOL file


 22 21  0  0  0  0  0  0  0  0999 V2000     
   20.3275   19.1234   24.9337 C   0  0  0  0  0  0  0  0  0  0  0  0
   20.9426   20.1706   24.9833 O   0  5  0  0  0  0  0  0  0  0  0  0
   20.8381   18.0363   25.1213 O   0  0  0  0  0  0  0  0  0  0  0  0
   18.8096   19.1925   24.7844 C   0  0  0  0  0  0  0  0  0  0  0  0
   18.4583   19.9019   25.5430 H   0  0  0  0  0  0  0  0  0  0  0  0
   18.3813   18.2181   25.0483 H   0  0  0  0  0  0  0  0  0  0  0  0
   18.2944   19.6525   23.3911 C   0  0  0  0  0  0  0  0  0  0  0  0
   17.2840   20.0591   23.5325 H   0  0  0  0  0  0  0  0  0  0  0  0
   18.8937   20.4894   23.0145 H   0  0  0  0  0  0  0  0  0  0  0  0
   18.1880   18.5226   22.3358 C   0  0  0  0  0  0  0  0  0  0  0  0
   17.6019   18.8916   21.4832 H   0  0  0  0  0  0  0  0  0  0  0  0
   17.5960   17.7032   22.7658 H   0  0  0  0  0  0  0  0  0  0  0  0
   19.5207   17.9370   21.8009 C   0  0  0  0  0  0  0  0  0  0  0  0
   20.1597   17.5924   22.6229 H   0  0  0  0  0  0  0  0  0  0  0  0
   19.2653   17.0305   21.2354 H   0  0  0  0  0  0  0  0  0  0  0  0
   20.3087   18.8685   20.8449 C   0  0  0  0  0  0  0  0  0  0  0  0
   19.6198   19.5189   20.2888 H   0  0  0  0  0  0  0  0  0  0  0  0
   20.8109   18.2441   20.0931 H   0  0  0  0  0  0  0  0  0  0  0  0
   21.3904   19.7155   21.5486 C   0  0  0  0  0  0  0  0  0  0  0  0
   20.9536   20.4417   22.2420 H   0  0  0  0  0  0  0  0  0  0  0  0
   21.9798   20.2753   20.8113 H   0  0  0  0  0  0  0  0  0  0  0  0
   22.0797   19.0781   22.1179 H   0  0  0  0  0  0  0  0  0  0  0  0
  1  2  1  0  0  0  0
  1  3  2  0  0  0  0
  1  4  1  0  0  0  0
  4  5  1  0  0  0  0
  4  6  1  0  0  0  0
  4  7  1  0  0  0  0
  7  8  1  0  0  0  0
  7  9  1  0  0  0  0
  7 10  1  0  0  0  0
 10 11  1  0  0  0  0
 10 12  1  0  0  0  0
 10 13  1  0  0  0  0
 13 14  1  0  0  0  0
 13 15  1  0  0  0  0
 13 16  1  0  0  0  0
 16 17  1  0  0  0  0
 16 18  1  0  0  0  0
 16 19  1  0  0  0  0
 19 20  1  0  0  0  0
 19 21  1  0  0  0  0
 19 22  1  0  0  0  0
M  END
> <VM2 Rank>
78

> <Conf_Id>
348

> <Probability>
0.00

> <Sum Probability>
100.00

> <Delta G>
9.780

> <G>
-7.218

> <E>
-27.829

> <-TS>
20.611

> <U+W>
-45.714

> <U>
16.808

> <W>
-62.522

> <W(PB)>
-64.649

> <W(SA)>
2.127

> <Valence>
13.059

> <Coulomb>
3.862

> <VdW>
-0.113

> <VdW6>
-11.028

> <VdW12>
10.915

> <Bond>
0.270

> <Angle>
4.723

> <Pdih>
8.032

> <Idih>
0.034

> <Tether>
0.000

$$$$
