VeraChem MOL file


 20 19  0  0  0  0  0  0  0  0999 V2000     
   20.3912   20.1731   24.1280 N   0  3  0  0  0  0  0  0  0  0  0  0
   20.3065   20.4446   25.1112 H   0  0  0  0  0  0  0  0  0  0  0  0
   20.0070   20.9380   23.5676 H   0  0  0  0  0  0  0  0  0  0  0  0
   21.3895   20.1070   23.9147 H   0  0  0  0  0  0  0  0  0  0  0  0
   19.6811   18.8752   23.8518 C   0  0  2  0  0  0  0  0  0  0  0  0
   18.6271   19.0339   24.1005 H   0  0  0  0  0  0  0  0  0  0  0  0
   20.2261   17.7582   24.7569 C   0  0  0  0  0  0  0  0  0  0  0  0
   19.6673   16.8263   24.6060 H   0  0  0  0  0  0  0  0  0  0  0  0
   20.1319   18.0343   25.8143 H   0  0  0  0  0  0  0  0  0  0  0  0
   21.2848   17.5591   24.5487 H   0  0  0  0  0  0  0  0  0  0  0  0
   19.7688   18.4547   22.3680 C   0  0  0  0  0  0  0  0  0  0  0  0
   20.8204   18.3118   22.0857 H   0  0  0  0  0  0  0  0  0  0  0  0
   19.2772   17.4803   22.2464 H   0  0  0  0  0  0  0  0  0  0  0  0
   19.1036   19.4719   21.4098 C   0  0  0  0  0  0  0  0  0  0  0  0
   19.6146   20.4422   21.4714 H   0  0  0  0  0  0  0  0  0  0  0  0
   18.0612   19.6412   21.7150 H   0  0  0  0  0  0  0  0  0  0  0  0
   19.1342   18.9807   19.9466 C   0  0  0  0  0  0  0  0  0  0  0  0
   20.1656   18.8312   19.6016 H   0  0  0  0  0  0  0  0  0  0  0  0
   18.6600   19.7140   19.2814 H   0  0  0  0  0  0  0  0  0  0  0  0
   18.5960   18.0302   19.8369 H   0  0  0  0  0  0  0  0  0  0  0  0
  1  2  1  0  0  0  0
  1  3  1  0  0  0  0
  1  4  1  0  0  0  0
  1  5  1  0  0  0  0
  5  6  1  0  0  0  0
  5  7  1  0  0  0  0
  7  8  1  0  0  0  0
  7  9  1  0  0  0  0
  7 10  1  0  0  0  0
  5 11  1  0  0  0  0
 11 12  1  0  0  0  0
 11 13  1  0  0  0  0
 11 14  1  0  0  0  0
 14 15  1  0  0  0  0
 14 16  1  0  0  0  0
 14 17  1  0  0  0  0
 17 18  1  0  0  0  0
 17 19  1  0  0  0  0
 17 20  1  0  0  0  0
M  END
> <VM2 Rank>
1

> <Conf_Id>
153

> <Probability>
40.83

> <Sum Probability>
40.83

> <Delta G>
0.000

> <G>
2.705

> <E>
-20.181

> <-TS>
22.887

> <U+W>
-36.278

> <U>
22.080

> <W>
-58.356

> <W(PB)>
-60.289

> <W(SA)>
1.932

> <Valence>
1.884

> <Coulomb>
19.559

> <VdW>
0.637

> <VdW6>
-4.482

> <VdW12>
5.119

> <Bond>
0.136

> <Angle>
0.867

> <Pdih>
0.882

> <Idih>
0.000

> <Tether>
0.000

$$$$
VeraChem MOL file


 20 19  0  0  0  0  0  0  0  0999 V2000     
   20.6729   20.0594   24.6125 N   0  3  0  0  0  0  0  0  0  0  0  0
   20.4990   19.9950   25.6192 H   0  0  0  0  0  0  0  0  0  0  0  0
   20.5583   21.0417   24.3484 H   0  0  0  0  0  0  0  0  0  0  0  0
   21.6536   19.8128   24.4571 H   0  0  0  0  0  0  0  0  0  0  0  0
   19.7478   19.1634   23.8354 C   0  0  2  0  0  0  0  0  0  0  0  0
   18.7310   19.4974   24.0644 H   0  0  0  0  0  0  0  0  0  0  0  0
   19.8977   17.7048   24.3053 C   0  0  0  0  0  0  0  0  0  0  0  0
   19.1314   17.0608   23.8590 H   0  0  0  0  0  0  0  0  0  0  0  0
   19.7835   17.6360   25.3941 H   0  0  0  0  0  0  0  0  0  0  0  0
   20.8831   17.3016   24.0409 H   0  0  0  0  0  0  0  0  0  0  0  0
   19.9740   19.3116   22.3128 C   0  0  0  0  0  0  0  0  0  0  0  0
   19.9614   20.3805   22.0621 H   0  0  0  0  0  0  0  0  0  0  0  0
   20.9743   18.9428   22.0499 H   0  0  0  0  0  0  0  0  0  0  0  0
   18.9091   18.5920   21.4494 C   0  0  0  0  0  0  0  0  0  0  0  0
   17.9039   18.9144   21.7556 H   0  0  0  0  0  0  0  0  0  0  0  0
   18.9583   17.5067   21.6096 H   0  0  0  0  0  0  0  0  0  0  0  0
   19.1035   18.8828   19.9456 C   0  0  0  0  0  0  0  0  0  0  0  0
   18.3433   18.3625   19.3486 H   0  0  0  0  0  0  0  0  0  0  0  0
   20.0901   18.5450   19.6024 H   0  0  0  0  0  0  0  0  0  0  0  0
   19.0181   19.9570   19.7358 H   0  0  0  0  0  0  0  0  0  0  0  0
  1  2  1  0  0  0  0
  1  3  1  0  0  0  0
  1  4  1  0  0  0  0
  1  5  1  0  0  0  0
  5  6  1  0  0  0  0
  5  7  1  0  0  0  0
  7  8  1  0  0  0  0
  7  9  1  0  0  0  0
  7 10  1  0  0  0  0
  5 11  1  0  0  0  0
 11 12  1  0  0  0  0
 11 13  1  0  0  0  0
 11 14  1  0  0  0  0
 14 15  1  0  0  0  0
 14 16  1  0  0  0  0
 14 17  1  0  0  0  0
 17 18  1  0  0  0  0
 17 19  1  0  0  0  0
 17 20  1  0  0  0  0
M  END
> <VM2 Rank>
2

> <Conf_Id>
300

> <Probability>
18.36

> <Sum Probability>
59.19

> <Delta G>
0.477

> <G>
3.182

> <E>
-19.721

> <-TS>
22.903

> <U+W>
-35.817

> <U>
22.495

> <W>
-58.311

> <W(PB)>
-60.259

> <W(SA)>
1.948

> <Valence>
2.419

> <Coulomb>
19.304

> <VdW>
0.772

> <VdW6>
-4.635

> <VdW12>
5.407

> <Bond>
0.149

> <Angle>
1.142

> <Pdih>
1.129

> <Idih>
0.000

> <Tether>
0.000

$$$$
VeraChem MOL file


 20 19  0  0  0  0  0  0  0  0999 V2000     
   20.2984   20.2326   24.2273 N   0  3  0  0  0  0  0  0  0  0  0  0
   20.6865   20.2777   25.1734 H   0  0  0  0  0  0  0  0  0  0  0  0
   19.6669   21.0309   24.1198 H   0  0  0  0  0  0  0  0  0  0  0  0
   21.0732   20.3632   23.5730 H   0  0  0  0  0  0  0  0  0  0  0  0
   19.5879   18.9286   23.9852 C   0  0  2  0  0  0  0  0  0  0  0  0
   18.7947   18.8720   24.7373 H   0  0  0  0  0  0  0  0  0  0  0  0
   20.5307   17.7341   24.2150 C   0  0  0  0  0  0  0  0  0  0  0  0
   20.0096   16.7855   24.0358 H   0  0  0  0  0  0  0  0  0  0  0  0
   20.8913   17.7239   25.2509 H   0  0  0  0  0  0  0  0  0  0  0  0
   21.4064   17.7752   23.5566 H   0  0  0  0  0  0  0  0  0  0  0  0
   18.9068   18.8735   22.5966 C   0  0  0  0  0  0  0  0  0  0  0  0
   18.3347   17.9393   22.5210 H   0  0  0  0  0  0  0  0  0  0  0  0
   18.1683   19.6839   22.5399 H   0  0  0  0  0  0  0  0  0  0  0  0
   19.8732   18.9808   21.3888 C   0  0  0  0  0  0  0  0  0  0  0  0
   20.5886   18.1478   21.3992 H   0  0  0  0  0  0  0  0  0  0  0  0
   20.4605   19.9066   21.4541 H   0  0  0  0  0  0  0  0  0  0  0  0
   19.1080   18.9644   20.0481 C   0  0  0  0  0  0  0  0  0  0  0  0
   19.8048   19.0389   19.2030 H   0  0  0  0  0  0  0  0  0  0  0  0
   18.4080   19.8075   19.9818 H   0  0  0  0  0  0  0  0  0  0  0  0
   18.5356   18.0349   19.9311 H   0  0  0  0  0  0  0  0  0  0  0  0
  1  2  1  0  0  0  0
  1  3  1  0  0  0  0
  1  4  1  0  0  0  0
  1  5  1  0  0  0  0
  5  6  1  0  0  0  0
  5  7  1  0  0  0  0
  7  8  1  0  0  0  0
  7  9  1  0  0  0  0
  7 10  1  0  0  0  0
  5 11  1  0  0  0  0
 11 12  1  0  0  0  0
 11 13  1  0  0  0  0
 11 14  1  0  0  0  0
 14 15  1  0  0  0  0
 14 16  1  0  0  0  0
 14 17  1  0  0  0  0
 17 18  1  0  0  0  0
 17 19  1  0  0  0  0
 17 20  1  0  0  0  0
M  END
> <VM2 Rank>
3

> <Conf_Id>
278

> <Probability>
15.86

> <Sum Probability>
75.05

> <Delta G>
0.564

> <G>
3.269

> <E>
-19.760

> <-TS>
23.029

> <U+W>
-35.857

> <U>
22.625

> <W>
-58.482

> <W(PB)>
-60.400

> <W(SA)>
1.919

> <Valence>
2.404

> <Coulomb>
19.464

> <VdW>
0.757

> <VdW6>
-5.074

> <VdW12>
5.831

> <Bond>
0.172

> <Angle>
1.207

> <Pdih>
1.025

> <Idih>
0.000

> <Tether>
0.000

$$$$
VeraChem MOL file


 20 19  0  0  0  0  0  0  0  0999 V2000     
   20.0485   20.2198   23.9725 N   0  3  0  0  0  0  0  0  0  0  0  0
   19.5920   20.5336   24.8331 H   0  0  0  0  0  0  0  0  0  0  0  0
   19.7980   20.8828   23.2345 H   0  0  0  0  0  0  0  0  0  0  0  0
   21.0585   20.2893   24.1192 H   0  0  0  0  0  0  0  0  0  0  0  0
   19.6393   18.8179   23.6100 C   0  0  2  0  0  0  0  0  0  0  0  0
   18.5536   18.8319   23.4749 H   0  0  0  0  0  0  0  0  0  0  0  0
   19.9662   17.8439   24.7537 C   0  0  0  0  0  0  0  0  0  0  0  0
   19.4770   18.1586   25.6836 H   0  0  0  0  0  0  0  0  0  0  0  0
   21.0469   17.7934   24.9363 H   0  0  0  0  0  0  0  0  0  0  0  0
   19.6122   16.8327   24.5176 H   0  0  0  0  0  0  0  0  0  0  0  0
   20.2855   18.3358   22.2913 C   0  0  0  0  0  0  0  0  0  0  0  0
   21.3763   18.2990   22.4123 H   0  0  0  0  0  0  0  0  0  0  0  0
   19.9644   17.3047   22.0923 H   0  0  0  0  0  0  0  0  0  0  0  0
   19.9415   19.2100   21.0587 C   0  0  0  0  0  0  0  0  0  0  0  0
   20.4478   18.7916   20.1775 H   0  0  0  0  0  0  0  0  0  0  0  0
   20.3464   20.2230   21.1863 H   0  0  0  0  0  0  0  0  0  0  0  0
   18.4240   19.2867   20.7748 C   0  0  0  0  0  0  0  0  0  0  0  0
   17.8842   19.7855   21.5895 H   0  0  0  0  0  0  0  0  0  0  0  0
   17.9961   18.2843   20.6432 H   0  0  0  0  0  0  0  0  0  0  0  0
   18.2331   19.8550   19.8552 H   0  0  0  0  0  0  0  0  0  0  0  0
  1  2  1  0  0  0  0
  1  3  1  0  0  0  0
  1  4  1  0  0  0  0
  1  5  1  0  0  0  0
  5  6  1  0  0  0  0
  5  7  1  0  0  0  0
  7  8  1  0  0  0  0
  7  9  1  0  0  0  0
  7 10  1  0  0  0  0
  5 11  1  0  0  0  0
 11 12  1  0  0  0  0
 11 13  1  0  0  0  0
 11 14  1  0  0  0  0
 14 15  1  0  0  0  0
 14 16  1  0  0  0  0
 14 17  1  0  0  0  0
 17 18  1  0  0  0  0
 17 19  1  0  0  0  0
 17 20  1  0  0  0  0
M  END
> <VM2 Rank>
4

> <Conf_Id>
151

> <Probability>
13.51

> <Sum Probability>
88.55

> <Delta G>
0.660

> <G>
3.365

> <E>
-19.710

> <-TS>
23.075

> <U+W>
-35.807

> <U>
22.370

> <W>
-58.176

> <W(PB)>
-60.099

> <W(SA)>
1.923

> <Valence>
2.167

> <Coulomb>
19.636

> <VdW>
0.566

> <VdW6>
-5.263

> <VdW12>
5.829

> <Bond>
0.162

> <Angle>
1.066

> <Pdih>
0.939

> <Idih>
0.000

> <Tether>
0.000

$$$$
VeraChem MOL file


 20 19  0  0  0  0  0  0  0  0999 V2000     
   20.3129   20.0924   24.6251 N   0  3  0  0  0  0  0  0  0  0  0  0
   19.7915   20.0632   25.5054 H   0  0  0  0  0  0  0  0  0  0  0  0
   20.3189   21.0661   24.3094 H   0  0  0  0  0  0  0  0  0  0  0  0
   21.2798   19.8327   24.8358 H   0  0  0  0  0  0  0  0  0  0  0  0
   19.7072   19.1784   23.5954 C   0  0  2  0  0  0  0  0  0  0  0  0
   18.6823   19.5284   23.4399 H   0  0  0  0  0  0  0  0  0  0  0  0
   19.6524   17.7346   24.1270 C   0  0  0  0  0  0  0  0  0  0  0  0
   19.1506   17.7001   25.1017 H   0  0  0  0  0  0  0  0  0  0  0  0
   20.6598   17.3175   24.2479 H   0  0  0  0  0  0  0  0  0  0  0  0
   19.0895   17.0824   23.4493 H   0  0  0  0  0  0  0  0  0  0  0  0
   20.4628   19.2735   22.2485 C   0  0  0  0  0  0  0  0  0  0  0  0
   20.5391   20.3308   21.9623 H   0  0  0  0  0  0  0  0  0  0  0  0
   21.4935   18.9199   22.3843 H   0  0  0  0  0  0  0  0  0  0  0  0
   19.8116   18.4968   21.0756 C   0  0  0  0  0  0  0  0  0  0  0  0
   19.8398   17.4164   21.2709 H   0  0  0  0  0  0  0  0  0  0  0  0
   20.4158   18.6539   20.1711 H   0  0  0  0  0  0  0  0  0  0  0  0
   18.3581   18.9383   20.7895 C   0  0  0  0  0  0  0  0  0  0  0  0
   18.3043   20.0171   20.5937 H   0  0  0  0  0  0  0  0  0  0  0  0
   17.6936   18.7084   21.6319 H   0  0  0  0  0  0  0  0  0  0  0  0
   17.9648   18.4177   19.9067 H   0  0  0  0  0  0  0  0  0  0  0  0
  1  2  1  0  0  0  0
  1  3  1  0  0  0  0
  1  4  1  0  0  0  0
  1  5  1  0  0  0  0
  5  6  1  0  0  0  0
  5  7  1  0  0  0  0
  7  8  1  0  0  0  0
  7  9  1  0  0  0  0
  7 10  1  0  0  0  0
  5 11  1  0  0  0  0
 11 12  1  0  0  0  0
 11 13  1  0  0  0  0
 11 14  1  0  0  0  0
 14 15  1  0  0  0  0
 14 16  1  0  0  0  0
 14 17  1  0  0  0  0
 17 18  1  0  0  0  0
 17 19  1  0  0  0  0
 17 20  1  0  0  0  0
M  END
> <VM2 Rank>
5

> <Conf_Id>
111

> <Probability>
10.33

> <Sum Probability>
98.88

> <Delta G>
0.820

> <G>
3.525

> <E>
-19.636

> <-TS>
23.161

> <U+W>
-35.732

> <U>
22.800

> <W>
-58.532

> <W(PB)>
-60.437

> <W(SA)>
1.905

> <Valence>
2.662

> <Coulomb>
19.485

> <VdW>
0.653

> <VdW6>
-5.460

> <VdW12>
6.113

> <Bond>
0.174

> <Angle>
1.378

> <Pdih>
1.109

> <Idih>
0.000

> <Tether>
0.000

$$$$
VeraChem MOL file


 20 19  0  0  0  0  0  0  0  0999 V2000     
   20.4416   20.1738   23.6449 N   0  3  0  0  0  0  0  0  0  0  0  0
   20.2929   20.7282   24.4924 H   0  0  0  0  0  0  0  0  0  0  0  0
   20.1633   20.7487   22.8468 H   0  0  0  0  0  0  0  0  0  0  0  0
   21.4470   20.0033   23.5635 H   0  0  0  0  0  0  0  0  0  0  0  0
   19.6681   18.8842   23.6854 C   0  0  2  0  0  0  0  0  0  0  0  0
   18.6139   19.1449   23.8214 H   0  0  0  0  0  0  0  0  0  0  0  0
   20.1158   18.0453   24.8943 C   0  0  0  0  0  0  0  0  0  0  0  0
   21.1662   17.7424   24.8004 H   0  0  0  0  0  0  0  0  0  0  0  0
   19.5056   17.1383   24.9886 H   0  0  0  0  0  0  0  0  0  0  0  0
   20.0062   18.6153   25.8251 H   0  0  0  0  0  0  0  0  0  0  0  0
   19.8013   18.0636   22.3803 C   0  0  0  0  0  0  0  0  0  0  0  0
   20.8561   18.0046   22.0811 H   0  0  0  0  0  0  0  0  0  0  0  0
   19.4891   17.0304   22.5832 H   0  0  0  0  0  0  0  0  0  0  0  0
   18.9385   18.5777   21.1980 C   0  0  0  0  0  0  0  0  0  0  0  0
   17.8790   18.5892   21.4903 H   0  0  0  0  0  0  0  0  0  0  0  0
   19.0173   17.8522   20.3761 H   0  0  0  0  0  0  0  0  0  0  0  0
   19.3398   19.9694   20.6581 C   0  0  0  0  0  0  0  0  0  0  0  0
   18.8254   20.1703   19.7093 H   0  0  0  0  0  0  0  0  0  0  0  0
   20.4197   20.0286   20.4692 H   0  0  0  0  0  0  0  0  0  0  0  0
   19.0546   20.7695   21.3509 H   0  0  0  0  0  0  0  0  0  0  0  0
  1  2  1  0  0  0  0
  1  3  1  0  0  0  0
  1  4  1  0  0  0  0
  1  5  1  0  0  0  0
  5  6  1  0  0  0  0
  5  7  1  0  0  0  0
  7  8  1  0  0  0  0
  7  9  1  0  0  0  0
  7 10  1  0  0  0  0
  5 11  1  0  0  0  0
 11 12  1  0  0  0  0
 11 13  1  0  0  0  0
 11 14  1  0  0  0  0
 14 15  1  0  0  0  0
 14 16  1  0  0  0  0
 14 17  1  0  0  0  0
 17 18  1  0  0  0  0
 17 19  1  0  0  0  0
 17 20  1  0  0  0  0
M  END
> <VM2 Rank>
6

> <Conf_Id>
121

> <Probability>
0.39

> <Sum Probability>
99.27

> <Delta G>
2.768

> <G>
5.473

> <E>
-17.432

> <-TS>
22.905

> <U+W>
-33.528

> <U>
24.337

> <W>
-57.865

> <W(PB)>
-59.767

> <W(SA)>
1.901

> <Valence>
3.593

> <Coulomb>
20.067

> <VdW>
0.677

> <VdW6>
-5.466

> <VdW12>
6.143

> <Bond>
0.192

> <Angle>
1.557

> <Pdih>
1.845

> <Idih>
0.000

> <Tether>
0.000

$$$$
VeraChem MOL file


 20 19  0  0  0  0  0  0  0  0999 V2000     
   20.3127   19.9500   24.7198 N   0  3  0  0  0  0  0  0  0  0  0  0
   21.3010   19.7331   24.8720 H   0  0  0  0  0  0  0  0  0  0  0  0
   19.8274   19.7973   25.6080 H   0  0  0  0  0  0  0  0  0  0  0  0
   20.2466   20.9493   24.5072 H   0  0  0  0  0  0  0  0  0  0  0  0
   19.7251   19.1084   23.6193 C   0  0  2  0  0  0  0  0  0  0  0  0
   18.6775   19.4122   23.5298 H   0  0  0  0  0  0  0  0  0  0  0  0
   19.7757   17.6196   24.0105 C   0  0  0  0  0  0  0  0  0  0  0  0
   20.8100   17.2845   24.1572 H   0  0  0  0  0  0  0  0  0  0  0  0
   19.3229   16.9852   23.2409 H   0  0  0  0  0  0  0  0  0  0  0  0
   19.2281   17.4470   24.9450 H   0  0  0  0  0  0  0  0  0  0  0  0
   20.4197   19.3673   22.2597 C   0  0  0  0  0  0  0  0  0  0  0  0
   20.9760   20.3124   22.3145 H   0  0  0  0  0  0  0  0  0  0  0  0
   21.1722   18.5929   22.0597 H   0  0  0  0  0  0  0  0  0  0  0  0
   19.4388   19.4784   21.0650 C   0  0  0  0  0  0  0  0  0  0  0  0
   20.0116   19.7386   20.1638 H   0  0  0  0  0  0  0  0  0  0  0  0
   18.7442   20.3129   21.2364 H   0  0  0  0  0  0  0  0  0  0  0  0
   18.6330   18.1902   20.7867 C   0  0  0  0  0  0  0  0  0  0  0  0
   19.2985   17.3275   20.6530 H   0  0  0  0  0  0  0  0  0  0  0  0
   18.0394   18.2999   19.8698 H   0  0  0  0  0  0  0  0  0  0  0  0
   17.9352   17.9693   21.6039 H   0  0  0  0  0  0  0  0  0  0  0  0
  1  2  1  0  0  0  0
  1  3  1  0  0  0  0
  1  4  1  0  0  0  0
  1  5  1  0  0  0  0
  5  6  1  0  0  0  0
  5  7  1  0  0  0  0
  7  8  1  0  0  0  0
  7  9  1  0  0  0  0
  7 10  1  0  0  0  0
  5 11  1  0  0  0  0
 11 12  1  0  0  0  0
 11 13  1  0  0  0  0
 11 14  1  0  0  0  0
 14 15  1  0  0  0  0
 14 16  1  0  0  0  0
 14 17  1  0  0  0  0
 17 18  1  0  0  0  0
 17 19  1  0  0  0  0
 17 20  1  0  0  0  0
M  END
> <VM2 Rank>
7

> <Conf_Id>
238

> <Probability>
0.18

> <Sum Probability>
99.46

> <Delta G>
3.225

> <G>
5.930

> <E>
-17.088

> <-TS>
23.018

> <U+W>
-33.185

> <U>
25.256

> <W>
-58.440

> <W(PB)>
-60.338

> <W(SA)>
1.898

> <Valence>
4.963

> <Coulomb>
19.511

> <VdW>
0.782

> <VdW6>
-5.429

> <VdW12>
6.211

> <Bond>
0.174

> <Angle>
1.376

> <Pdih>
3.413

> <Idih>
0.000

> <Tether>
0.000

$$$$
VeraChem MOL file


 20 19  0  0  0  0  0  0  0  0999 V2000     
   20.6495   19.8405   24.7413 N   0  3  0  0  0  0  0  0  0  0  0  0
   20.5502   19.4723   25.6911 H   0  0  0  0  0  0  0  0  0  0  0  0
   20.4667   20.8466   24.7865 H   0  0  0  0  0  0  0  0  0  0  0  0
   21.6280   19.7187   24.4688 H   0  0  0  0  0  0  0  0  0  0  0  0
   19.7192   19.1489   23.7826 C   0  0  2  0  0  0  0  0  0  0  0  0
   18.7061   19.3280   24.1559 H   0  0  0  0  0  0  0  0  0  0  0  0
   19.9723   17.6317   23.7962 C   0  0  0  0  0  0  0  0  0  0  0  0
   19.9766   17.2487   24.8240 H   0  0  0  0  0  0  0  0  0  0  0  0
   20.9372   17.3848   23.3363 H   0  0  0  0  0  0  0  0  0  0  0  0
   19.1816   17.0970   23.2577 H   0  0  0  0  0  0  0  0  0  0  0  0
   19.8242   19.7637   22.3654 C   0  0  0  0  0  0  0  0  0  0  0  0
   19.6663   20.8459   22.4634 H   0  0  0  0  0  0  0  0  0  0  0  0
   20.8437   19.6452   21.9750 H   0  0  0  0  0  0  0  0  0  0  0  0
   18.7910   19.2269   21.3398 C   0  0  0  0  0  0  0  0  0  0  0  0
   18.4774   20.0571   20.6912 H   0  0  0  0  0  0  0  0  0  0  0  0
   17.8813   18.8881   21.8553 H   0  0  0  0  0  0  0  0  0  0  0  0
   19.3488   18.1023   20.4359 C   0  0  0  0  0  0  0  0  0  0  0  0
   20.2136   18.4556   19.8593 H   0  0  0  0  0  0  0  0  0  0  0  0
   18.5856   17.7710   19.7199 H   0  0  0  0  0  0  0  0  0  0  0  0
   19.6644   17.2261   21.0132 H   0  0  0  0  0  0  0  0  0  0  0  0
  1  2  1  0  0  0  0
  1  3  1  0  0  0  0
  1  4  1  0  0  0  0
  1  5  1  0  0  0  0
  5  6  1  0  0  0  0
  5  7  1  0  0  0  0
  7  8  1  0  0  0  0
  7  9  1  0  0  0  0
  7 10  1  0  0  0  0
  5 11  1  0  0  0  0
 11 12  1  0  0  0  0
 11 13  1  0  0  0  0
 11 14  1  0  0  0  0
 14 15  1  0  0  0  0
 14 16  1  0  0  0  0
 14 17  1  0  0  0  0
 17 18  1  0  0  0  0
 17 19  1  0  0  0  0
 17 20  1  0  0  0  0
M  END
> <VM2 Rank>
8

> <Conf_Id>
248

> <Probability>
0.18

> <Sum Probability>
99.63

> <Delta G>
3.243

> <G>
5.948

> <E>
-17.185

> <-TS>
23.133

> <U+W>
-33.282

> <U>
25.224

> <W>
-58.506

> <W(PB)>
-60.411

> <W(SA)>
1.905

> <Valence>
4.945

> <Coulomb>
19.467

> <VdW>
0.812

> <VdW6>
-5.458

> <VdW12>
6.270

> <Bond>
0.200

> <Angle>
1.675

> <Pdih>
3.070

> <Idih>
0.000

> <Tether>
0.000

$$$$
