VeraChem MOL file


 17 16  0  0  0  0  0  0  0  0999 V2000     
   19.7724   19.0787   25.2791 C   0  0  0  0  0  0  0  0  0  0  0  0
   19.3188   19.9200   26.0302 O   0  5  0  0  0  0  0  0  0  0  0  0
   20.4466   18.1425   25.6657 O   0  0  0  0  0  0  0  0  0  0  0  0
   19.4751   19.2205   23.8280 C   0  0  0  0  0  0  0  0  0  0  0  0
   18.8677   20.0786   23.5497 H   0  0  0  0  0  0  0  0  0  0  0  0
   19.9149   18.3608   22.8811 C   0  0  0  0  0  0  0  0  0  0  0  0
   20.5261   17.4991   23.1486 H   0  0  0  0  0  0  0  0  0  0  0  0
   19.6099   18.5135   21.4070 C   0  0  0  0  0  0  0  0  0  0  0  0
   18.5800   18.8710   21.2716 H   0  0  0  0  0  0  0  0  0  0  0  0
   19.6672   17.5327   20.9160 H   0  0  0  0  0  0  0  0  0  0  0  0
   20.5929   19.4889   20.7279 C   0  0  0  0  0  0  0  0  0  0  0  0
   20.5339   20.4720   21.2154 H   0  0  0  0  0  0  0  0  0  0  0  0
   21.6221   19.1281   20.8627 H   0  0  0  0  0  0  0  0  0  0  0  0
   20.2944   19.6430   19.2230 C   0  0  0  0  0  0  0  0  0  0  0  0
   20.3778   18.6786   18.7050 H   0  0  0  0  0  0  0  0  0  0  0  0
   19.2807   20.0325   19.0614 H   0  0  0  0  0  0  0  0  0  0  0  0
   21.0034   20.3400   18.7575 H   0  0  0  0  0  0  0  0  0  0  0  0
  1  2  1  0  0  0  0
  1  3  2  0  0  0  0
  1  4  1  0  0  0  0
  4  5  1  0  0  0  0
  4  6  2  0  0  0  0
  6  7  1  0  0  0  0
  6  8  1  0  0  0  0
  8  9  1  0  0  0  0
  8 10  1  0  0  0  0
  8 11  1  0  0  0  0
 11 12  1  0  0  0  0
 11 13  1  0  0  0  0
 11 14  1  0  0  0  0
 14 15  1  0  0  0  0
 14 16  1  0  0  0  0
 14 17  1  0  0  0  0
M  END
> <VM2 Rank>
1

> <Conf_Id>
77

> <Probability>
31.59

> <Sum Probability>
31.59

> <Delta G>
0.000

> <G>
-29.181

> <E>
-40.002

> <-TS>
10.820

> <U+W>
-53.415

> <U>
9.048

> <W>
-62.460

> <W(PB)>
-64.544

> <W(SA)>
2.084

> <Valence>
2.652

> <Coulomb>
5.579

> <VdW>
0.818

> <VdW6>
-4.535

> <VdW12>
5.352

> <Bond>
0.063

> <Angle>
2.579

> <Pdih>
0.010

> <Idih>
0.000

> <Tether>
0.000

$$$$
