VeraChem MOL file


 25 24  0  0  0  0  0  0  0  0999 V2000     
   20.1601   19.3401   27.8084 C   0  0  0  0  0  0  0  0  0  0  0  0
   21.2157   19.7050   28.2872 O   0  5  0  0  0  0  0  0  0  0  0  0
   19.0777   19.5690   28.3112 O   0  0  0  0  0  0  0  0  0  0  0  0
   20.1941   18.5724   26.4918 C   0  0  0  0  0  0  0  0  0  0  0  0
   19.3547   17.8667   26.4872 H   0  0  0  0  0  0  0  0  0  0  0  0
   21.1164   17.9795   26.4670 H   0  0  0  0  0  0  0  0  0  0  0  0
   20.1206   19.4991   25.2533 C   0  0  0  0  0  0  0  0  0  0  0  0
   19.1984   20.0950   25.3002 H   0  0  0  0  0  0  0  0  0  0  0  0
   20.9600   20.2078   25.2799 H   0  0  0  0  0  0  0  0  0  0  0  0
   20.1566   18.6986   23.9334 C   0  0  0  0  0  0  0  0  0  0  0  0
   19.3171   17.9902   23.9106 H   0  0  0  0  0  0  0  0  0  0  0  0
   21.0790   18.1032   23.8902 H   0  0  0  0  0  0  0  0  0  0  0  0
   20.0829   19.6250   22.7006 C   0  0  0  0  0  0  0  0  0  0  0  0
   19.1606   20.2204   22.7437 H   0  0  0  0  0  0  0  0  0  0  0  0
   20.9223   20.3334   22.7232 H   0  0  0  0  0  0  0  0  0  0  0  0
   20.1189   18.8252   21.3804 C   0  0  0  0  0  0  0  0  0  0  0  0
   19.2795   18.1167   21.3574 H   0  0  0  0  0  0  0  0  0  0  0  0
   21.0412   18.2297   21.3370 H   0  0  0  0  0  0  0  0  0  0  0  0
   20.0451   19.7510   20.1480 C   0  0  0  0  0  0  0  0  0  0  0  0
   19.1228   20.3470   20.1870 H   0  0  0  0  0  0  0  0  0  0  0  0
   20.8844   20.4600   20.1665 H   0  0  0  0  0  0  0  0  0  0  0  0
   20.0813   18.9486   18.8317 C   0  0  0  0  0  0  0  0  0  0  0  0
   19.2340   18.2529   18.7723 H   0  0  0  0  0  0  0  0  0  0  0  0
   20.0280   19.6221   17.9664 H   0  0  0  0  0  0  0  0  0  0  0  0
   21.0089   18.3668   18.7516 H   0  0  0  0  0  0  0  0  0  0  0  0
  1  2  1  0  0  0  0
  1  3  2  0  0  0  0
  1  4  1  0  0  0  0
  4  5  1  0  0  0  0
  4  6  1  0  0  0  0
  4  7  1  0  0  0  0
  7  8  1  0  0  0  0
  7  9  1  0  0  0  0
  7 10  1  0  0  0  0
 10 11  1  0  0  0  0
 10 12  1  0  0  0  0
 10 13  1  0  0  0  0
 13 14  1  0  0  0  0
 13 15  1  0  0  0  0
 13 16  1  0  0  0  0
 16 17  1  0  0  0  0
 16 18  1  0  0  0  0
 16 19  1  0  0  0  0
 19 20  1  0  0  0  0
 19 21  1  0  0  0  0
 19 22  1  0  0  0  0
 22 23  1  0  0  0  0
 22 24  1  0  0  0  0
 22 25  1  0  0  0  0
M  END
> <VM2 Rank>
1

> <Conf_Id>
348

> <Probability>
22.97

> <Sum Probability>
22.97

> <Delta G>
0.000

> <G>
-7.962

> <E>
-32.361

> <-TS>
24.399

> <U+W>
-52.928

> <U>
5.617

> <W>
-58.544

> <W(PB)>
-61.064

> <W(SA)>
2.520

> <Valence>
7.531

> <Coulomb>
-2.818

> <VdW>
0.904

> <VdW6>
-7.640

> <VdW12>
8.544

> <Bond>
0.115

> <Angle>
2.271

> <Pdih>
5.144

> <Idih>
0.001

> <Tether>
0.000

$$$$
VeraChem MOL file


 25 24  0  0  0  0  0  0  0  0999 V2000     
   19.8606   19.1637   27.5407 C   0  0  0  0  0  0  0  0  0  0  0  0
   20.6740   18.7865   28.3610 O   0  5  0  0  0  0  0  0  0  0  0  0
   18.8685   19.8062   27.8227 O   0  0  0  0  0  0  0  0  0  0  0  0
   20.1115   18.8330   26.0738 C   0  0  0  0  0  0  0  0  0  0  0  0
   19.1369   18.6968   25.5919 H   0  0  0  0  0  0  0  0  0  0  0  0
   20.6356   17.8709   26.0270 H   0  0  0  0  0  0  0  0  0  0  0  0
   20.9344   19.9269   25.3450 C   0  0  0  0  0  0  0  0  0  0  0  0
   20.3786   20.8747   25.3594 H   0  0  0  0  0  0  0  0  0  0  0  0
   21.8622   20.1031   25.9067 H   0  0  0  0  0  0  0  0  0  0  0  0
   21.2999   19.5571   23.8877 C   0  0  0  0  0  0  0  0  0  0  0  0
   21.8644   18.6147   23.8778 H   0  0  0  0  0  0  0  0  0  0  0  0
   21.9751   20.3279   23.4915 H   0  0  0  0  0  0  0  0  0  0  0  0
   20.0711   19.4384   22.9569 C   0  0  0  0  0  0  0  0  0  0  0  0
   19.4211   18.6216   23.2963 H   0  0  0  0  0  0  0  0  0  0  0  0
   19.4799   20.3629   23.0098 H   0  0  0  0  0  0  0  0  0  0  0  0
   20.4876   19.1764   21.4933 C   0  0  0  0  0  0  0  0  0  0  0  0
   21.0822   18.2540   21.4408 H   0  0  0  0  0  0  0  0  0  0  0  0
   21.1332   19.9934   21.1430 H   0  0  0  0  0  0  0  0  0  0  0  0
   19.2627   19.0535   20.5626 C   0  0  0  0  0  0  0  0  0  0  0  0
   18.6154   18.2355   20.9082 H   0  0  0  0  0  0  0  0  0  0  0  0
   18.6663   19.9751   20.6117 H   0  0  0  0  0  0  0  0  0  0  0  0
   19.6828   18.7922   19.1022 C   0  0  0  0  0  0  0  0  0  0  0  0
   20.2548   17.8587   19.0190 H   0  0  0  0  0  0  0  0  0  0  0  0
   18.8002   18.7076   18.4550 H   0  0  0  0  0  0  0  0  0  0  0  0
   20.3060   19.6114   18.7201 H   0  0  0  0  0  0  0  0  0  0  0  0
  1  2  1  0  0  0  0
  1  3  2  0  0  0  0
  1  4  1  0  0  0  0
  4  5  1  0  0  0  0
  4  6  1  0  0  0  0
  4  7  1  0  0  0  0
  7  8  1  0  0  0  0
  7  9  1  0  0  0  0
  7 10  1  0  0  0  0
 10 11  1  0  0  0  0
 10 12  1  0  0  0  0
 10 13  1  0  0  0  0
 13 14  1  0  0  0  0
 13 15  1  0  0  0  0
 13 16  1  0  0  0  0
 16 17  1  0  0  0  0
 16 18  1  0  0  0  0
 16 19  1  0  0  0  0
 19 20  1  0  0  0  0
 19 21  1  0  0  0  0
 19 22  1  0  0  0  0
 22 23  1  0  0  0  0
 22 24  1  0  0  0  0
 22 25  1  0  0  0  0
M  END
> <VM2 Rank>
2

> <Conf_Id>
1268

> <Probability>
5.62

> <Sum Probability>
28.59

> <Delta G>
0.839

> <G>
-7.123

> <E>
-31.631

> <-TS>
24.508

> <U+W>
-52.199

> <U>
6.575

> <W>
-58.774

> <W(PB)>
-61.317

> <W(SA)>
2.543

> <Valence>
8.051

> <Coulomb>
-2.490

> <VdW>
1.015

> <VdW6>
-8.339

> <VdW12>
9.354

> <Bond>
0.157

> <Angle>
2.513

> <Pdih>
5.379

> <Idih>
0.001

> <Tether>
0.000

$$$$
VeraChem MOL file


 25 24  0  0  0  0  0  0  0  0999 V2000     
   20.1315   19.7075   27.5208 C   0  0  0  0  0  0  0  0  0  0  0  0
   20.9464   19.3333   28.3409 O   0  5  0  0  0  0  0  0  0  0  0  0
   19.0293   20.1290   27.8109 O   0  0  0  0  0  0  0  0  0  0  0  0
   20.5035   19.6201   26.0450 C   0  0  0  0  0  0  0  0  0  0  0  0
   21.5851   19.7775   25.9571 H   0  0  0  0  0  0  0  0  0  0  0  0
   20.0104   20.4507   25.5276 H   0  0  0  0  0  0  0  0  0  0  0  0
   20.1061   18.2641   25.4059 C   0  0  0  0  0  0  0  0  0  0  0  0
   20.5414   17.4515   26.0039 H   0  0  0  0  0  0  0  0  0  0  0  0
   19.0158   18.1387   25.4596 H   0  0  0  0  0  0  0  0  0  0  0  0
   20.5787   18.1094   23.9408 C   0  0  0  0  0  0  0  0  0  0  0  0
   20.3594   17.0848   23.6103 H   0  0  0  0  0  0  0  0  0  0  0  0
   21.6702   18.2246   23.8921 H   0  0  0  0  0  0  0  0  0  0  0  0
   19.9056   19.1061   22.9691 C   0  0  0  0  0  0  0  0  0  0  0  0
   18.8136   19.0255   23.0589 H   0  0  0  0  0  0  0  0  0  0  0  0
   20.1753   20.1348   23.2409 H   0  0  0  0  0  0  0  0  0  0  0  0
   20.3226   18.8454   21.5054 C   0  0  0  0  0  0  0  0  0  0  0  0
   20.0498   17.8194   21.2226 H   0  0  0  0  0  0  0  0  0  0  0  0
   21.4150   18.9219   21.4162 H   0  0  0  0  0  0  0  0  0  0  0  0
   19.6554   19.8415   20.5338 C   0  0  0  0  0  0  0  0  0  0  0  0
   18.5624   19.7668   20.6196 H   0  0  0  0  0  0  0  0  0  0  0  0
   19.9279   20.8691   20.8117 H   0  0  0  0  0  0  0  0  0  0  0  0
   20.0740   19.5777   19.0734 C   0  0  0  0  0  0  0  0  0  0  0  0
   19.7848   18.5664   18.7585 H   0  0  0  0  0  0  0  0  0  0  0  0
   19.5907   20.2945   18.3969 H   0  0  0  0  0  0  0  0  0  0  0  0
   21.1606   19.6768   18.9523 H   0  0  0  0  0  0  0  0  0  0  0  0
  1  2  1  0  0  0  0
  1  3  2  0  0  0  0
  1  4  1  0  0  0  0
  4  5  1  0  0  0  0
  4  6  1  0  0  0  0
  4  7  1  0  0  0  0
  7  8  1  0  0  0  0
  7  9  1  0  0  0  0
  7 10  1  0  0  0  0
 10 11  1  0  0  0  0
 10 12  1  0  0  0  0
 10 13  1  0  0  0  0
 13 14  1  0  0  0  0
 13 15  1  0  0  0  0
 13 16  1  0  0  0  0
 16 17  1  0  0  0  0
 16 18  1  0  0  0  0
 16 19  1  0  0  0  0
 19 20  1  0  0  0  0
 19 21  1  0  0  0  0
 19 22  1  0  0  0  0
 22 23  1  0  0  0  0
 22 24  1  0  0  0  0
 22 25  1  0  0  0  0
M  END
> <VM2 Rank>
3

> <Conf_Id>
1314

> <Probability>
5.44

> <Sum Probability>
34.04

> <Delta G>
0.858

> <G>
-7.104

> <E>
-31.612

> <-TS>
24.508

> <U+W>
-52.179

> <U>
6.575

> <W>
-58.755

> <W(PB)>
-61.293

> <W(SA)>
2.538

> <Valence>
8.050

> <Coulomb>
-2.490

> <VdW>
1.015

> <VdW6>
-8.339

> <VdW12>
9.354

> <Bond>
0.157

> <Angle>
2.513

> <Pdih>
5.379

> <Idih>
0.001

> <Tether>
0.000

$$$$
VeraChem MOL file


 25 24  0  0  0  0  0  0  0  0999 V2000     
   20.1305   19.1678   27.7051 C   0  0  0  0  0  0  0  0  0  0  0  0
   21.2278   19.2440   28.2216 O   0  5  0  0  0  0  0  0  0  0  0  0
   19.2276   18.4808   28.1402 O   0  0  0  0  0  0  0  0  0  0  0  0
   19.8801   19.9604   26.4271 C   0  0  0  0  0  0  0  0  0  0  0  0
   20.4718   20.8824   26.4766 H   0  0  0  0  0  0  0  0  0  0  0  0
   18.8235   20.2536   26.4096 H   0  0  0  0  0  0  0  0  0  0  0  0
   20.2355   19.1650   25.1468 C   0  0  0  0  0  0  0  0  0  0  0  0
   21.2927   18.8677   25.1860 H   0  0  0  0  0  0  0  0  0  0  0  0
   19.6446   18.2389   25.1192 H   0  0  0  0  0  0  0  0  0  0  0  0
   19.9734   19.9883   23.8671 C   0  0  0  0  0  0  0  0  0  0  0  0
   20.5643   20.9140   23.8990 H   0  0  0  0  0  0  0  0  0  0  0  0
   18.9160   20.2845   23.8311 H   0  0  0  0  0  0  0  0  0  0  0  0
   20.3288   19.1929   22.5924 C   0  0  0  0  0  0  0  0  0  0  0  0
   21.3868   18.8994   22.6262 H   0  0  0  0  0  0  0  0  0  0  0  0
   19.7393   18.2671   22.5702 H   0  0  0  0  0  0  0  0  0  0  0  0
   20.0622   20.0172   21.3117 C   0  0  0  0  0  0  0  0  0  0  0  0
   20.6032   20.9708   21.3814 H   0  0  0  0  0  0  0  0  0  0  0  0
   18.9948   20.2691   21.2490 H   0  0  0  0  0  0  0  0  0  0  0  0
   20.5008   19.2979   20.0148 C   0  0  0  0  0  0  0  0  0  0  0  0
   20.3876   19.9924   19.1710 H   0  0  0  0  0  0  0  0  0  0  0  0
   21.5698   19.0501   20.0713 H   0  0  0  0  0  0  0  0  0  0  0  0
   19.6862   18.0198   19.7192 C   0  0  0  0  0  0  0  0  0  0  0  0
   18.6107   18.2377   19.6878 H   0  0  0  0  0  0  0  0  0  0  0  0
   19.9739   17.5974   18.7478 H   0  0  0  0  0  0  0  0  0  0  0  0
   19.8596   17.2490   20.4805 H   0  0  0  0  0  0  0  0  0  0  0  0
  1  2  1  0  0  0  0
  1  3  2  0  0  0  0
  1  4  1  0  0  0  0
  4  5  1  0  0  0  0
  4  6  1  0  0  0  0
  4  7  1  0  0  0  0
  7  8  1  0  0  0  0
  7  9  1  0  0  0  0
  7 10  1  0  0  0  0
 10 11  1  0  0  0  0
 10 12  1  0  0  0  0
 10 13  1  0  0  0  0
 13 14  1  0  0  0  0
 13 15  1  0  0  0  0
 13 16  1  0  0  0  0
 16 17  1  0  0  0  0
 16 18  1  0  0  0  0
 16 19  1  0  0  0  0
 19 20  1  0  0  0  0
 19 21  1  0  0  0  0
 19 22  1  0  0  0  0
 22 23  1  0  0  0  0
 22 24  1  0  0  0  0
 22 25  1  0  0  0  0
M  END
> <VM2 Rank>
4

> <Conf_Id>
1027

> <Probability>
5.00

> <Sum Probability>
39.03

> <Delta G>
0.909

> <G>
-7.053

> <E>
-31.561

> <-TS>
24.508

> <U+W>
-52.128

> <U>
6.630

> <W>
-58.758

> <W(PB)>
-61.279

> <W(SA)>
2.521

> <Valence>
8.032

> <Coulomb>
-2.441

> <VdW>
1.039

> <VdW6>
-8.257

> <VdW12>
9.295

> <Bond>
0.146

> <Angle>
2.498

> <Pdih>
5.387

> <Idih>
0.001

> <Tether>
0.000

$$$$
VeraChem MOL file


 25 24  0  0  0  0  0  0  0  0999 V2000     
   20.0216   19.1705   27.6698 C   0  0  0  0  0  0  0  0  0  0  0  0
   21.0605   19.2685   28.2924 O   0  5  0  0  0  0  0  0  0  0  0  0
   18.9410   19.5175   28.1041 O   0  0  0  0  0  0  0  0  0  0  0  0
   20.0802   18.6011   26.2569 C   0  0  0  0  0  0  0  0  0  0  0  0
   19.1420   18.0664   26.0660 H   0  0  0  0  0  0  0  0  0  0  0  0
   20.8885   17.8608   26.2212 H   0  0  0  0  0  0  0  0  0  0  0  0
   20.3043   19.6898   25.1786 C   0  0  0  0  0  0  0  0  0  0  0  0
   19.4939   20.4297   25.2359 H   0  0  0  0  0  0  0  0  0  0  0  0
   21.2402   20.2244   25.3922 H   0  0  0  0  0  0  0  0  0  0  0  0
   20.3599   19.0885   23.7574 C   0  0  0  0  0  0  0  0  0  0  0  0
   19.4239   18.5507   23.5583 H   0  0  0  0  0  0  0  0  0  0  0  0
   21.1725   18.3512   23.7024 H   0  0  0  0  0  0  0  0  0  0  0  0
   20.5795   20.1800   22.6845 C   0  0  0  0  0  0  0  0  0  0  0  0
   19.7406   20.8891   22.7001 H   0  0  0  0  0  0  0  0  0  0  0  0
   21.4785   20.7568   22.9413 H   0  0  0  0  0  0  0  0  0  0  0  0
   20.7529   19.6142   21.2548 C   0  0  0  0  0  0  0  0  0  0  0  0
   21.5946   18.9084   21.2379 H   0  0  0  0  0  0  0  0  0  0  0  0
   21.0273   20.4404   20.5847 H   0  0  0  0  0  0  0  0  0  0  0  0
   19.4834   18.9243   20.7061 C   0  0  0  0  0  0  0  0  0  0  0  0
   19.2359   18.0462   21.3168 H   0  0  0  0  0  0  0  0  0  0  0  0
   18.6295   19.6125   20.7727 H   0  0  0  0  0  0  0  0  0  0  0  0
   19.6697   18.4797   19.2414 C   0  0  0  0  0  0  0  0  0  0  0  0
   20.5012   17.7687   19.1498 H   0  0  0  0  0  0  0  0  0  0  0  0
   18.7616   17.9891   18.8676 H   0  0  0  0  0  0  0  0  0  0  0  0
   19.8811   19.3400   18.5929 H   0  0  0  0  0  0  0  0  0  0  0  0
  1  2  1  0  0  0  0
  1  3  2  0  0  0  0
  1  4  1  0  0  0  0
  4  5  1  0  0  0  0
  4  6  1  0  0  0  0
  4  7  1  0  0  0  0
  7  8  1  0  0  0  0
  7  9  1  0  0  0  0
  7 10  1  0  0  0  0
 10 11  1  0  0  0  0
 10 12  1  0  0  0  0
 10 13  1  0  0  0  0
 13 14  1  0  0  0  0
 13 15  1  0  0  0  0
 13 16  1  0  0  0  0
 16 17  1  0  0  0  0
 16 18  1  0  0  0  0
 16 19  1  0  0  0  0
 19 20  1  0  0  0  0
 19 21  1  0  0  0  0
 19 22  1  0  0  0  0
 22 23  1  0  0  0  0
 22 24  1  0  0  0  0
 22 25  1  0  0  0  0
M  END
> <VM2 Rank>
5

> <Conf_Id>
1009

> <Probability>
4.93

> <Sum Probability>
43.96

> <Delta G>
0.918

> <G>
-7.044

> <E>
-31.544

> <-TS>
24.499

> <U+W>
-52.111

> <U>
6.583

> <W>
-58.695

> <W(PB)>
-61.197

> <W(SA)>
2.502

> <Valence>
8.068

> <Coulomb>
-2.516

> <VdW>
1.031

> <VdW6>
-8.305

> <VdW12>
9.335

> <Bond>
0.150

> <Angle>
2.522

> <Pdih>
5.396

> <Idih>
0.001

> <Tether>
0.000

$$$$
VeraChem MOL file


 25 24  0  0  0  0  0  0  0  0999 V2000     
   20.3737   19.6428   27.4433 C   0  0  0  0  0  0  0  0  0  0  0  0
   21.5152   20.0322   27.5914 O   0  5  0  0  0  0  0  0  0  0  0  0
   19.4210   20.1083   28.0368 O   0  0  0  0  0  0  0  0  0  0  0  0
   20.1198   18.5219   26.4417 C   0  0  0  0  0  0  0  0  0  0  0  0
   19.2737   17.9262   26.8047 H   0  0  0  0  0  0  0  0  0  0  0  0
   20.9988   17.8661   26.4341 H   0  0  0  0  0  0  0  0  0  0  0  0
   19.8321   19.0459   25.0131 C   0  0  0  0  0  0  0  0  0  0  0  0
   18.9553   19.7076   25.0393 H   0  0  0  0  0  0  0  0  0  0  0  0
   20.6832   19.6548   24.6808 H   0  0  0  0  0  0  0  0  0  0  0  0
   19.5833   17.8892   24.0174 C   0  0  0  0  0  0  0  0  0  0  0  0
   18.7805   17.2487   24.4076 H   0  0  0  0  0  0  0  0  0  0  0  0
   20.4800   17.2580   23.9508 H   0  0  0  0  0  0  0  0  0  0  0  0
   19.1822   18.3695   22.6024 C   0  0  0  0  0  0  0  0  0  0  0  0
   18.9056   17.4916   22.0027 H   0  0  0  0  0  0  0  0  0  0  0  0
   18.2826   18.9967   22.6681 H   0  0  0  0  0  0  0  0  0  0  0  0
   20.3046   19.1428   21.8721 C   0  0  0  0  0  0  0  0  0  0  0  0
   21.2193   18.5346   21.8563 H   0  0  0  0  0  0  0  0  0  0  0  0
   20.5416   20.0649   22.4186 H   0  0  0  0  0  0  0  0  0  0  0  0
   19.9012   19.5035   20.4268 C   0  0  0  0  0  0  0  0  0  0  0  0
   19.6696   18.5869   19.8666 H   0  0  0  0  0  0  0  0  0  0  0  0
   18.9853   20.1105   20.4388 H   0  0  0  0  0  0  0  0  0  0  0  0
   21.0198   20.2779   19.7010 C   0  0  0  0  0  0  0  0  0  0  0  0
   21.9397   19.6810   19.6475 H   0  0  0  0  0  0  0  0  0  0  0  0
   20.7163   20.5256   18.6756 H   0  0  0  0  0  0  0  0  0  0  0  0
   21.2499   21.2163   20.2224 H   0  0  0  0  0  0  0  0  0  0  0  0
  1  2  1  0  0  0  0
  1  3  2  0  0  0  0
  1  4  1  0  0  0  0
  4  5  1  0  0  0  0
  4  6  1  0  0  0  0
  4  7  1  0  0  0  0
  7  8  1  0  0  0  0
  7  9  1  0  0  0  0
  7 10  1  0  0  0  0
 10 11  1  0  0  0  0
 10 12  1  0  0  0  0
 10 13  1  0  0  0  0
 13 14  1  0  0  0  0
 13 15  1  0  0  0  0
 13 16  1  0  0  0  0
 16 17  1  0  0  0  0
 16 18  1  0  0  0  0
 16 19  1  0  0  0  0
 19 20  1  0  0  0  0
 19 21  1  0  0  0  0
 19 22  1  0  0  0  0
 22 23  1  0  0  0  0
 22 24  1  0  0  0  0
 22 25  1  0  0  0  0
M  END
> <VM2 Rank>
6

> <Conf_Id>
779

> <Probability>
4.87

> <Sum Probability>
48.83

> <Delta G>
0.925

> <G>
-7.037

> <E>
-31.542

> <-TS>
24.505

> <U+W>
-52.110

> <U>
7.044

> <W>
-59.154

> <W(PB)>
-61.665

> <W(SA)>
2.511

> <Valence>
8.064

> <Coulomb>
-2.027

> <VdW>
1.007

> <VdW6>
-8.345

> <VdW12>
9.352

> <Bond>
0.151

> <Angle>
2.518

> <Pdih>
5.395

> <Idih>
0.001

> <Tether>
0.000

$$$$
VeraChem MOL file


 25 24  0  0  0  0  0  0  0  0999 V2000     
   19.9013   19.6124   27.4488 C   0  0  0  0  0  0  0  0  0  0  0  0
   20.8003   20.1963   28.0212 O   0  5  0  0  0  0  0  0  0  0  0  0
   18.7232   19.8535   27.6236 O   0  0  0  0  0  0  0  0  0  0  0  0
   20.2730   18.5317   26.4399 C   0  0  0  0  0  0  0  0  0  0  0  0
   19.4849   17.7692   26.4515 H   0  0  0  0  0  0  0  0  0  0  0  0
   21.1963   18.0493   26.7825 H   0  0  0  0  0  0  0  0  0  0  0  0
   20.4586   19.0861   25.0059 C   0  0  0  0  0  0  0  0  0  0  0  0
   19.5293   19.5809   24.6942 H   0  0  0  0  0  0  0  0  0  0  0  0
   21.2441   19.8544   25.0129 H   0  0  0  0  0  0  0  0  0  0  0  0
   20.8301   17.9693   24.0029 C   0  0  0  0  0  0  0  0  0  0  0  0
   20.0200   17.2286   23.9561 H   0  0  0  0  0  0  0  0  0  0  0  0
   21.7168   17.4371   24.3737 H   0  0  0  0  0  0  0  0  0  0  0  0
   21.1339   18.4949   22.5799 C   0  0  0  0  0  0  0  0  0  0  0  0
   21.9472   19.2321   22.6258 H   0  0  0  0  0  0  0  0  0  0  0  0
   21.5067   17.6587   21.9727 H   0  0  0  0  0  0  0  0  0  0  0  0
   19.9053   19.1171   21.8766 C   0  0  0  0  0  0  0  0  0  0  0  0
   19.5649   20.0020   22.4298 H   0  0  0  0  0  0  0  0  0  0  0  0
   19.0759   18.3968   21.8808 H   0  0  0  0  0  0  0  0  0  0  0  0
   20.2261   19.5244   20.4230 C   0  0  0  0  0  0  0  0  0  0  0  0
   21.0568   20.2436   20.4150 H   0  0  0  0  0  0  0  0  0  0  0  0
   20.5602   18.6443   19.8563 H   0  0  0  0  0  0  0  0  0  0  0  0
   19.0013   20.1483   19.7242 C   0  0  0  0  0  0  0  0  0  0  0  0
   19.2470   20.4314   18.6924 H   0  0  0  0  0  0  0  0  0  0  0  0
   18.1644   19.4385   19.6908 H   0  0  0  0  0  0  0  0  0  0  0  0
   18.6650   21.0503   20.2522 H   0  0  0  0  0  0  0  0  0  0  0  0
  1  2  1  0  0  0  0
  1  3  2  0  0  0  0
  1  4  1  0  0  0  0
  4  5  1  0  0  0  0
  4  6  1  0  0  0  0
  4  7  1  0  0  0  0
  7  8  1  0  0  0  0
  7  9  1  0  0  0  0
  7 10  1  0  0  0  0
 10 11  1  0  0  0  0
 10 12  1  0  0  0  0
 10 13  1  0  0  0  0
 13 14  1  0  0  0  0
 13 15  1  0  0  0  0
 13 16  1  0  0  0  0
 16 17  1  0  0  0  0
 16 18  1  0  0  0  0
 16 19  1  0  0  0  0
 19 20  1  0  0  0  0
 19 21  1  0  0  0  0
 19 22  1  0  0  0  0
 22 23  1  0  0  0  0
 22 24  1  0  0  0  0
 22 25  1  0  0  0  0
M  END
> <VM2 Rank>
7

> <Conf_Id>
1287

> <Probability>
4.71

> <Sum Probability>
53.54

> <Delta G>
0.944

> <G>
-7.018

> <E>
-31.524

> <-TS>
24.506

> <U+W>
-52.091

> <U>
7.044

> <W>
-59.135

> <W(PB)>
-61.631

> <W(SA)>
2.496

> <Valence>
8.065

> <Coulomb>
-2.027

> <VdW>
1.007

> <VdW6>
-8.345

> <VdW12>
9.352

> <Bond>
0.151

> <Angle>
2.518

> <Pdih>
5.395

> <Idih>
0.001

> <Tether>
0.000

$$$$
VeraChem MOL file


 25 24  0  0  0  0  0  0  0  0999 V2000     
   20.3158   19.1891   27.6664 C   0  0  0  0  0  0  0  0  0  0  0  0
   21.3533   19.6710   28.0763 O   0  5  0  0  0  0  0  0  0  0  0  0
   19.2874   19.1555   28.3129 O   0  0  0  0  0  0  0  0  0  0  0  0
   20.2973   18.6149   26.2543 C   0  0  0  0  0  0  0  0  0  0  0  0
   19.5887   17.7782   26.2361 H   0  0  0  0  0  0  0  0  0  0  0  0
   21.2911   18.2031   26.0412 H   0  0  0  0  0  0  0  0  0  0  0  0
   19.9125   19.6649   25.1831 C   0  0  0  0  0  0  0  0  0  0  0  0
   18.9216   20.0771   25.4190 H   0  0  0  0  0  0  0  0  0  0  0  0
   20.6238   20.5016   25.2229 H   0  0  0  0  0  0  0  0  0  0  0  0
   19.9008   19.0594   23.7627 C   0  0  0  0  0  0  0  0  0  0  0  0
   19.1871   18.2250   23.7253 H   0  0  0  0  0  0  0  0  0  0  0  0
   20.8926   18.6442   23.5413 H   0  0  0  0  0  0  0  0  0  0  0  0
   19.5201   20.1127   22.6967 C   0  0  0  0  0  0  0  0  0  0  0  0
   18.5614   20.5714   22.9750 H   0  0  0  0  0  0  0  0  0  0  0  0
   20.2626   20.9223   22.6940 H   0  0  0  0  0  0  0  0  0  0  0  0
   19.3869   19.5274   21.2706 C   0  0  0  0  0  0  0  0  0  0  0  0
   18.9948   20.3113   20.6082 H   0  0  0  0  0  0  0  0  0  0  0  0
   18.6411   18.7207   21.2721 H   0  0  0  0  0  0  0  0  0  0  0  0
   20.7205   19.0029   20.6919 C   0  0  0  0  0  0  0  0  0  0  0  0
   21.4818   19.7937   20.7398 H   0  0  0  0  0  0  0  0  0  0  0  0
   21.0910   18.1640   21.2954 H   0  0  0  0  0  0  0  0  0  0  0  0
   20.5584   18.5361   19.2311 C   0  0  0  0  0  0  0  0  0  0  0  0
   20.2250   19.3618   18.5889 H   0  0  0  0  0  0  0  0  0  0  0  0
   21.5124   18.1638   18.8359 H   0  0  0  0  0  0  0  0  0  0  0  0
   19.8216   17.7255   19.1577 H   0  0  0  0  0  0  0  0  0  0  0  0
  1  2  1  0  0  0  0
  1  3  2  0  0  0  0
  1  4  1  0  0  0  0
  4  5  1  0  0  0  0
  4  6  1  0  0  0  0
  4  7  1  0  0  0  0
  7  8  1  0  0  0  0
  7  9  1  0  0  0  0
  7 10  1  0  0  0  0
 10 11  1  0  0  0  0
 10 12  1  0  0  0  0
 10 13  1  0  0  0  0
 13 14  1  0  0  0  0
 13 15  1  0  0  0  0
 13 16  1  0  0  0  0
 16 17  1  0  0  0  0
 16 18  1  0  0  0  0
 16 19  1  0  0  0  0
 19 20  1  0  0  0  0
 19 21  1  0  0  0  0
 19 22  1  0  0  0  0
 22 23  1  0  0  0  0
 22 24  1  0  0  0  0
 22 25  1  0  0  0  0
M  END
> <VM2 Rank>
8

> <Conf_Id>
1291

> <Probability>
4.70

> <Sum Probability>
58.24

> <Delta G>
0.946

> <G>
-7.016

> <E>
-31.516

> <-TS>
24.500

> <U+W>
-52.083

> <U>
6.583

> <W>
-58.667

> <W(PB)>
-61.150

> <W(SA)>
2.483

> <Valence>
8.068

> <Coulomb>
-2.516

> <VdW>
1.031

> <VdW6>
-8.305

> <VdW12>
9.336

> <Bond>
0.150

> <Angle>
2.522

> <Pdih>
5.396

> <Idih>
0.001

> <Tether>
0.000

$$$$
