@<TRIPOS>MOLECULE
guest-s22_vm2.mol2 : vm2 ligand conformer 1
          20          19           1
SMALL
USER_CHARGES
 
@<TRIPOS>ATOM
       1    C1      20.445481   18.066056   18.739873 C.2        1 MOL1        -0.2535
       2    H1      20.659656   17.797393   17.706848 H          1 MOL1         0.0845
       3    H2      20.583449   17.288340   19.487984 H          1 MOL1         0.0845
       4    C2      20.033106   19.299524   19.053586 C.2        1 MOL1        -0.1324
       5    H3      19.913342   20.036194   18.259482 H          1 MOL1         0.0833
       6    C3      19.697245   19.819670   20.441267 C.3        1 MOL1        -0.1813
       7    H4      18.664326   20.192766   20.437764 H          1 MOL1         0.0753
       8    H5      20.327159   20.694211   20.652267 H          1 MOL1         0.0753
       9    C4      19.860513   18.789690   21.583400 C.3        1 MOL1        -0.1855
      10    H6      19.216744   17.920895   21.388875 H          1 MOL1         0.0755
      11    H7      20.897615   18.427739   21.605679 H          1 MOL1         0.0755
      12    C5      19.500338   19.396550   22.957086 C.3        1 MOL1        -0.1855
      13    H8      18.463651   19.760745   22.941280 H          1 MOL1         0.0755
      14    H9      20.141105   20.266486   23.157670 H          1 MOL1         0.0755
      15    C6      19.662954   18.367107   24.102459 C.3        1 MOL1        -0.1958
      16    H10     19.019224   17.497358   23.924270 H          1 MOL1         0.0753
      17    H11     20.696704   18.003095   24.140659 H          1 MOL1         0.0753
      18    C7      19.312947   18.942966   25.469890 C.2        1 MOL1         0.6174
      19    O1      20.197141   19.475060   26.111547 O.co2      1 MOL1        -0.6695
      20    O2      18.161275   18.861377   25.848891 O.co2      1 MOL1        -0.6695
@<TRIPOS>BOND
    1     1     2    1
    2     1     3    1
    3     1     4    2
    4     4     5    1
    5     4     6    1
    6     6     7    1
    7     6     8    1
    8     6     9    1
    9     9    10    1
   10     9    11    1
   11     9    12    1
   12    12    13    1
   13    12    14    1
   14    12    15    1
   15    15    16    1
   16    15    17    1
   17    15    18    1
   18    18    19    1
   19    18    20    2
@<TRIPOS>SUBSTRUCTURE
       1 MOL1            1 RESIDUE      1      MOL     
@<SCITEGIC>MOL_PROPERTY
VM2 Rank
SciTegic.value.IntegerValue
1

@<SCITEGIC>MOL_PROPERTY
Conf_Id
SciTegic.value.IntegerValue
811

@<SCITEGIC>MOL_PROPERTY
Probability
SciTegic.value.DoubleValue
13.58

@<SCITEGIC>MOL_PROPERTY
Sum Probability
SciTegic.value.DoubleValue
13.58

@<SCITEGIC>MOL_PROPERTY
Delta G
SciTegic.value.DoubleValue
0.000

@<SCITEGIC>MOL_PROPERTY
G
SciTegic.value.DoubleValue
-21.890

@<SCITEGIC>MOL_PROPERTY
E
SciTegic.value.DoubleValue
-37.137

@<SCITEGIC>MOL_PROPERTY
-TS
SciTegic.value.DoubleValue
15.248

@<SCITEGIC>MOL_PROPERTY
U+W
SciTegic.value.DoubleValue
-53.234

@<SCITEGIC>MOL_PROPERTY
U
SciTegic.value.DoubleValue
6.572

@<SCITEGIC>MOL_PROPERTY
W
SciTegic.value.DoubleValue
-59.803

@<SCITEGIC>MOL_PROPERTY
W(PB)
SciTegic.value.DoubleValue
-62.038

@<SCITEGIC>MOL_PROPERTY
W(SA)
SciTegic.value.DoubleValue
2.234

@<SCITEGIC>MOL_PROPERTY
Valence
SciTegic.value.DoubleValue
7.989

@<SCITEGIC>MOL_PROPERTY
Coulomb
SciTegic.value.DoubleValue
-2.698

@<SCITEGIC>MOL_PROPERTY
VdW
SciTegic.value.DoubleValue
1.281

@<SCITEGIC>MOL_PROPERTY
VdW6
SciTegic.value.DoubleValue
-6.467

@<SCITEGIC>MOL_PROPERTY
VdW12
SciTegic.value.DoubleValue
7.748

@<SCITEGIC>MOL_PROPERTY
Bond
SciTegic.value.DoubleValue
0.136

@<SCITEGIC>MOL_PROPERTY
Angle
SciTegic.value.DoubleValue
2.854

@<SCITEGIC>MOL_PROPERTY
Pdih
SciTegic.value.DoubleValue
4.998

@<SCITEGIC>MOL_PROPERTY
Idih
SciTegic.value.DoubleValue
0.001

@<SCITEGIC>MOL_PROPERTY
Tether
SciTegic.value.DoubleValue
0.000

