@<TRIPOS>MOLECULE
guest-s13_vm2.mol2 : vm2 ligand conformer 1
          26          25           1
SMALL
USER_CHARGES
 
@<TRIPOS>ATOM
       1    C1      20.241465   18.656353   18.805959 C.3        1 MOL1        -0.2398
       2    H1      19.604454   19.497126   18.501723 H          1 MOL1         0.0972
       3    H2      21.055778   18.568877   18.075008 H          1 MOL1         0.0972
       4    H3      19.642620   17.737652   18.754832 H          1 MOL1         0.0972
       5    C2      20.805066   18.872904   20.226378 C.3        1 MOL1        -0.1383
       6    H4      21.426313   19.779468   20.237693 H          1 MOL1         0.0961
       7    H5      21.464277   18.033533   20.488706 H          1 MOL1         0.0961
       8    C3      19.678447   18.999415   21.275697 C.3        1 MOL1        -0.1407
       9    H6      19.020680   19.837541   21.006715 H          1 MOL1         0.0961
      10    H7      19.059283   18.091742   21.259405 H          1 MOL1         0.0961
      11    C4      20.238886   19.217241   22.699437 C.3        1 MOL1        -0.1407
      12    H8      20.854950   20.127153   22.715054 H          1 MOL1         0.0961
      13    H9      20.899896   18.379208   22.957578 H          1 MOL1         0.0961
      14    C5      19.107560   19.342223   23.748812 C.3        1 MOL1        -0.1472
      15    H10     18.427909   20.148985   23.443328 H          1 MOL1         0.0961
      16    H11     18.511841   18.419798   23.764621 H          1 MOL1         0.0961
      17    C6      19.633128   19.645595   25.168750 C.3        1 MOL1         0.1190
      18    H12     20.241827   20.553908   25.122170 H          1 MOL1         0.0923
      19    C7      18.460538   19.899608   26.129594 C.3        1 MOL1        -0.2463
      20    H13     17.844605   20.737645   25.780234 H          1 MOL1         0.0972
      21    H14     18.827578   20.152140   27.132034 H          1 MOL1         0.0972
      22    H15     17.817308   19.014699   26.213871 H          1 MOL1         0.0972
      23    N1      20.522910   18.554661   25.699371 N.4        1 MOL1        -0.5974
      24    H16     21.333737   18.404997   25.093112 H          1 MOL1         0.3625
      25    H17     20.876959   18.781569   26.632959 H          1 MOL1         0.3625
      26    H18     20.021779   17.665156   25.769729 H          1 MOL1         0.3625
@<TRIPOS>BOND
    1     1     2    1
    2     1     3    1
    3     1     4    1
    4     1     5    1
    5     5     6    1
    6     5     7    1
    7     5     8    1
    8     8     9    1
    9     8    10    1
   10     8    11    1
   11    11    12    1
   12    11    13    1
   13    11    14    1
   14    14    15    1
   15    14    16    1
   16    14    17    1
   17    17    18    1
   18    17    19    1
   19    19    20    1
   20    19    21    1
   21    19    22    1
   22    17    23    1
   23    23    24    1
   24    23    25    1
   25    23    26    1
@<TRIPOS>SUBSTRUCTURE
       1 MOL1            1 RESIDUE      1      MOL     
@<SCITEGIC>MOL_PROPERTY
VM2 Rank
SciTegic.value.IntegerValue
1

@<SCITEGIC>MOL_PROPERTY
Conf_Id
SciTegic.value.IntegerValue
300

@<SCITEGIC>MOL_PROPERTY
Probability
SciTegic.value.DoubleValue
17.04

@<SCITEGIC>MOL_PROPERTY
Sum Probability
SciTegic.value.DoubleValue
17.04

@<SCITEGIC>MOL_PROPERTY
Delta G
SciTegic.value.DoubleValue
0.000

@<SCITEGIC>MOL_PROPERTY
G
SciTegic.value.DoubleValue
23.710

@<SCITEGIC>MOL_PROPERTY
E
SciTegic.value.DoubleValue
-8.843

@<SCITEGIC>MOL_PROPERTY
-TS
SciTegic.value.DoubleValue
32.552

@<SCITEGIC>MOL_PROPERTY
U+W
SciTegic.value.DoubleValue
-30.304

@<SCITEGIC>MOL_PROPERTY
U
SciTegic.value.DoubleValue
23.517

@<SCITEGIC>MOL_PROPERTY
W
SciTegic.value.DoubleValue
-53.818

@<SCITEGIC>MOL_PROPERTY
W(PB)
SciTegic.value.DoubleValue
-56.163

@<SCITEGIC>MOL_PROPERTY
W(SA)
SciTegic.value.DoubleValue
2.346

@<SCITEGIC>MOL_PROPERTY
Valence
SciTegic.value.DoubleValue
2.737

@<SCITEGIC>MOL_PROPERTY
Coulomb
SciTegic.value.DoubleValue
19.862

@<SCITEGIC>MOL_PROPERTY
VdW
SciTegic.value.DoubleValue
0.919

@<SCITEGIC>MOL_PROPERTY
VdW6
SciTegic.value.DoubleValue
-6.793

@<SCITEGIC>MOL_PROPERTY
VdW12
SciTegic.value.DoubleValue
7.712

@<SCITEGIC>MOL_PROPERTY
Bond
SciTegic.value.DoubleValue
0.171

@<SCITEGIC>MOL_PROPERTY
Angle
SciTegic.value.DoubleValue
0.873

@<SCITEGIC>MOL_PROPERTY
Pdih
SciTegic.value.DoubleValue
1.693

@<SCITEGIC>MOL_PROPERTY
Idih
SciTegic.value.DoubleValue
0.000

@<SCITEGIC>MOL_PROPERTY
Tether
SciTegic.value.DoubleValue
0.000

