VeraChem MOL file


 20 19  0  0  0  0  0  0  0  0999 V2000     
   19.7358   18.9391   25.6479 N   0  3  0  0  0  0  0  0  0  0  0  0
   20.2632   19.1851   26.4922 H   0  0  0  0  0  0  0  0  0  0  0  0
   18.8387   19.4314   25.7041 H   0  0  0  0  0  0  0  0  0  0  0  0
   19.5331   17.9362   25.7060 H   0  0  0  0  0  0  0  0  0  0  0  0
   20.4973   19.2912   24.3858 C   0  0  0  0  0  0  0  0  0  0  0  0
   21.4511   18.7571   24.4071 H   0  0  0  0  0  0  0  0  0  0  0  0
   20.7045   20.3646   24.4050 H   0  0  0  0  0  0  0  0  0  0  0  0
   19.7326   18.9344   23.0985 C   0  0  0  0  0  0  0  0  0  0  0  0
   19.5127   17.8584   23.0910 H   0  0  0  0  0  0  0  0  0  0  0  0
   18.7685   19.4603   23.0890 H   0  0  0  0  0  0  0  0  0  0  0  0
   20.5421   19.3090   21.8371 C   0  0  0  0  0  0  0  0  0  0  0  0
   21.5081   18.7851   21.8525 H   0  0  0  0  0  0  0  0  0  0  0  0
   20.7647   20.3851   21.8505 H   0  0  0  0  0  0  0  0  0  0  0  0
   19.7839   18.9552   20.5381 C   0  0  0  0  0  0  0  0  0  0  0  0
   19.5610   17.8790   20.5196 H   0  0  0  0  0  0  0  0  0  0  0  0
   18.8178   19.4789   20.5177 H   0  0  0  0  0  0  0  0  0  0  0  0
   20.5964   19.3312   19.2806 C   0  0  0  0  0  0  0  0  0  0  0  0
   20.0420   19.0725   18.3691 H   0  0  0  0  0  0  0  0  0  0  0  0
   20.8056   20.4085   19.2529 H   0  0  0  0  0  0  0  0  0  0  0  0
   21.5547   18.7961   19.2548 H   0  0  0  0  0  0  0  0  0  0  0  0
  1  2  1  0  0  0  0
  1  3  1  0  0  0  0
  1  4  1  0  0  0  0
  1  5  1  0  0  0  0
  5  6  1  0  0  0  0
  5  7  1  0  0  0  0
  5  8  1  0  0  0  0
  8  9  1  0  0  0  0
  8 10  1  0  0  0  0
  8 11  1  0  0  0  0
 11 12  1  0  0  0  0
 11 13  1  0  0  0  0
 11 14  1  0  0  0  0
 14 15  1  0  0  0  0
 14 16  1  0  0  0  0
 14 17  1  0  0  0  0
 17 18  1  0  0  0  0
 17 19  1  0  0  0  0
 17 20  1  0  0  0  0
M  END
> <VM2 Rank>
1

> <Conf_Id>
170

> <Probability>
18.31

> <Sum Probability>
18.31

> <Delta G>
0.000

> <G>
27.005

> <E>
4.317

> <-TS>
22.689

> <U+W>
-11.779

> <U>
45.772

> <W>
-57.550

> <W(PB)>
-59.509

> <W(SA)>
1.960

> <Valence>
1.299

> <Coulomb>
44.177

> <VdW>
0.297

> <VdW6>
-3.490

> <VdW12>
3.786

> <Bond>
0.096

> <Angle>
0.381

> <Pdih>
0.822

> <Idih>
0.000

> <Tether>
0.000

$$$$
VeraChem MOL file


 20 19  0  0  0  0  0  0  0  0999 V2000     
   20.6068   18.3919   25.0324 N   0  3  0  0  0  0  0  0  0  0  0  0
   21.4066   18.1398   24.4443 H   0  0  0  0  0  0  0  0  0  0  0  0
   20.9677   18.5359   25.9814 H   0  0  0  0  0  0  0  0  0  0  0  0
   19.9887   17.5754   25.0696 H   0  0  0  0  0  0  0  0  0  0  0  0
   19.8880   19.6214   24.5113 C   0  0  0  0  0  0  0  0  0  0  0  0
   20.5935   20.4566   24.5202 H   0  0  0  0  0  0  0  0  0  0  0  0
   19.0786   19.8527   25.2091 H   0  0  0  0  0  0  0  0  0  0  0  0
   19.3062   19.4491   23.0944 C   0  0  0  0  0  0  0  0  0  0  0  0
   18.6022   18.6063   23.0873 H   0  0  0  0  0  0  0  0  0  0  0  0
   18.7230   20.3461   22.8474 H   0  0  0  0  0  0  0  0  0  0  0  0
   20.3993   19.2368   22.0200 C   0  0  0  0  0  0  0  0  0  0  0  0
   20.9647   18.3208   22.2377 H   0  0  0  0  0  0  0  0  0  0  0  0
   21.1154   20.0695   22.0565 H   0  0  0  0  0  0  0  0  0  0  0  0
   19.7980   19.1368   20.6002 C   0  0  0  0  0  0  0  0  0  0  0  0
   19.0801   18.3056   20.5588 H   0  0  0  0  0  0  0  0  0  0  0  0
   19.2355   20.0525   20.3695 H   0  0  0  0  0  0  0  0  0  0  0  0
   20.8897   18.9240   19.5298 C   0  0  0  0  0  0  0  0  0  0  0  0
   20.4436   18.8562   18.5291 H   0  0  0  0  0  0  0  0  0  0  0  0
   21.6047   19.7571   19.5237 H   0  0  0  0  0  0  0  0  0  0  0  0
   21.4474   17.9963   19.7131 H   0  0  0  0  0  0  0  0  0  0  0  0
  1  2  1  0  0  0  0
  1  3  1  0  0  0  0
  1  4  1  0  0  0  0
  1  5  1  0  0  0  0
  5  6  1  0  0  0  0
  5  7  1  0  0  0  0
  5  8  1  0  0  0  0
  8  9  1  0  0  0  0
  8 10  1  0  0  0  0
  8 11  1  0  0  0  0
 11 12  1  0  0  0  0
 11 13  1  0  0  0  0
 11 14  1  0  0  0  0
 14 15  1  0  0  0  0
 14 16  1  0  0  0  0
 14 17  1  0  0  0  0
 17 18  1  0  0  0  0
 17 19  1  0  0  0  0
 17 20  1  0  0  0  0
M  END
> <VM2 Rank>
2

> <Conf_Id>
281

> <Probability>
11.03

> <Sum Probability>
29.34

> <Delta G>
0.303

> <G>
27.308

> <E>
4.519

> <-TS>
22.789

> <U+W>
-11.577

> <U>
46.423

> <W>
-58.000

> <W(PB)>
-59.939

> <W(SA)>
1.939

> <Valence>
1.410

> <Coulomb>
44.613

> <VdW>
0.400

> <VdW6>
-4.001

> <VdW12>
4.401

> <Bond>
0.117

> <Angle>
0.430

> <Pdih>
0.863

> <Idih>
0.000

> <Tether>
0.000

$$$$
VeraChem MOL file


 20 19  0  0  0  0  0  0  0  0999 V2000     
   19.8800   19.9564   25.0304 N   0  3  0  0  0  0  0  0  0  0  0  0
   20.2038   20.7289   24.4411 H   0  0  0  0  0  0  0  0  0  0  0  0
   18.8573   20.0107   25.0664 H   0  0  0  0  0  0  0  0  0  0  0  0
   20.2218   20.1412   25.9794 H   0  0  0  0  0  0  0  0  0  0  0  0
   20.3564   18.6130   24.5125 C   0  0  0  0  0  0  0  0  0  0  0  0
   20.0105   17.8467   25.2116 H   0  0  0  0  0  0  0  0  0  0  0  0
   21.4497   18.6134   24.5226 H   0  0  0  0  0  0  0  0  0  0  0  0
   19.8510   18.2766   23.0959 C   0  0  0  0  0  0  0  0  0  0  0  0
   20.1607   17.2519   22.8512 H   0  0  0  0  0  0  0  0  0  0  0  0
   18.7529   18.2820   23.0876 H   0  0  0  0  0  0  0  0  0  0  0  0
   20.3946   19.2468   22.0200 C   0  0  0  0  0  0  0  0  0  0  0  0
   21.4929   19.2571   22.0575 H   0  0  0  0  0  0  0  0  0  0  0  0
   20.0591   20.2700   22.2353 H   0  0  0  0  0  0  0  0  0  0  0  0
   19.9318   18.8488   20.6005 C   0  0  0  0  0  0  0  0  0  0  0  0
   20.2692   17.8280   20.3722 H   0  0  0  0  0  0  0  0  0  0  0  0
   18.8336   18.8361   20.5582 H   0  0  0  0  0  0  0  0  0  0  0  0
   20.4741   19.8184   19.5287 C   0  0  0  0  0  0  0  0  0  0  0  0
   20.1245   20.8432   19.7097 H   0  0  0  0  0  0  0  0  0  0  0  0
   21.5719   19.8277   19.5236 H   0  0  0  0  0  0  0  0  0  0  0  0
   20.1354   19.5192   18.5283 H   0  0  0  0  0  0  0  0  0  0  0  0
  1  2  1  0  0  0  0
  1  3  1  0  0  0  0
  1  4  1  0  0  0  0
  1  5  1  0  0  0  0
  5  6  1  0  0  0  0
  5  7  1  0  0  0  0
  5  8  1  0  0  0  0
  8  9  1  0  0  0  0
  8 10  1  0  0  0  0
  8 11  1  0  0  0  0
 11 12  1  0  0  0  0
 11 13  1  0  0  0  0
 11 14  1  0  0  0  0
 14 15  1  0  0  0  0
 14 16  1  0  0  0  0
 14 17  1  0  0  0  0
 17 18  1  0  0  0  0
 17 19  1  0  0  0  0
 17 20  1  0  0  0  0
M  END
> <VM2 Rank>
3

> <Conf_Id>
259

> <Probability>
10.31

> <Sum Probability>
39.65

> <Delta G>
0.342

> <G>
27.348

> <E>
4.559

> <-TS>
22.789

> <U+W>
-11.538

> <U>
46.423

> <W>
-57.961

> <W(PB)>
-59.893

> <W(SA)>
1.932

> <Valence>
1.410

> <Coulomb>
44.613

> <VdW>
0.400

> <VdW6>
-4.001

> <VdW12>
4.401

> <Bond>
0.117

> <Angle>
0.430

> <Pdih>
0.863

> <Idih>
0.000

> <Tether>
0.000

$$$$
VeraChem MOL file


 20 19  0  0  0  0  0  0  0  0999 V2000     
   19.6445   19.3205   25.4425 N   0  3  0  0  0  0  0  0  0  0  0  0
   20.2499   18.6687   25.9515 H   0  0  0  0  0  0  0  0  0  0  0  0
   19.6157   20.1877   25.9891 H   0  0  0  0  0  0  0  0  0  0  0  0
   18.6981   18.9275   25.4587 H   0  0  0  0  0  0  0  0  0  0  0  0
   20.1337   19.5617   24.0287 C   0  0  0  0  0  0  0  0  0  0  0  0
   21.1310   20.0060   24.0877 H   0  0  0  0  0  0  0  0  0  0  0  0
   19.4620   20.2858   23.5606 H   0  0  0  0  0  0  0  0  0  0  0  0
   20.1886   18.2769   23.1805 C   0  0  0  0  0  0  0  0  0  0  0  0
   20.8314   17.5422   23.6835 H   0  0  0  0  0  0  0  0  0  0  0  0
   19.1872   17.8300   23.1218 H   0  0  0  0  0  0  0  0  0  0  0  0
   20.7317   18.5248   21.7532 C   0  0  0  0  0  0  0  0  0  0  0  0
   20.8305   17.5578   21.2407 H   0  0  0  0  0  0  0  0  0  0  0  0
   21.7441   18.9479   21.8143 H   0  0  0  0  0  0  0  0  0  0  0  0
   19.8273   19.4557   20.9109 C   0  0  0  0  0  0  0  0  0  0  0  0
   18.8071   19.0486   20.8751 H   0  0  0  0  0  0  0  0  0  0  0  0
   19.7577   20.4453   21.3824 H   0  0  0  0  0  0  0  0  0  0  0  0
   20.3622   19.6204   19.4722 C   0  0  0  0  0  0  0  0  0  0  0  0
   19.7098   20.2837   18.8896 H   0  0  0  0  0  0  0  0  0  0  0  0
   21.3701   20.0555   19.4731 H   0  0  0  0  0  0  0  0  0  0  0  0
   20.4077   18.6536   18.9541 H   0  0  0  0  0  0  0  0  0  0  0  0
  1  2  1  0  0  0  0
  1  3  1  0  0  0  0
  1  4  1  0  0  0  0
  1  5  1  0  0  0  0
  5  6  1  0  0  0  0
  5  7  1  0  0  0  0
  5  8  1  0  0  0  0
  8  9  1  0  0  0  0
  8 10  1  0  0  0  0
  8 11  1  0  0  0  0
 11 12  1  0  0  0  0
 11 13  1  0  0  0  0
 11 14  1  0  0  0  0
 14 15  1  0  0  0  0
 14 16  1  0  0  0  0
 14 17  1  0  0  0  0
 17 18  1  0  0  0  0
 17 19  1  0  0  0  0
 17 20  1  0  0  0  0
M  END
> <VM2 Rank>
4

> <Conf_Id>
276

> <Probability>
8.06

> <Sum Probability>
47.71

> <Delta G>
0.489

> <G>
27.495

> <E>
4.711

> <-TS>
22.784

> <U+W>
-11.386

> <U>
46.508

> <W>
-57.894

> <W(PB)>
-59.824

> <W(SA)>
1.930

> <Valence>
1.610

> <Coulomb>
44.536

> <VdW>
0.363

> <VdW6>
-4.057

> <VdW12>
4.419

> <Bond>
0.118

> <Angle>
0.515

> <Pdih>
0.977

> <Idih>
0.000

> <Tether>
0.000

$$$$
VeraChem MOL file


 20 19  0  0  0  0  0  0  0  0999 V2000     
   19.9685   18.6227   25.4434 N   0  3  0  0  0  0  0  0  0  0  0  0
   20.6121   18.0426   25.9918 H   0  0  0  0  0  0  0  0  0  0  0  0
   19.8602   19.5067   25.9504 H   0  0  0  0  0  0  0  0  0  0  0  0
   19.0578   18.1529   25.4595 H   0  0  0  0  0  0  0  0  0  0  0  0
   20.4698   18.8383   24.0297 C   0  0  0  0  0  0  0  0  0  0  0  0
   20.5905   17.8570   23.5635 H   0  0  0  0  0  0  0  0  0  0  0  0
   21.4525   19.3141   24.0888 H   0  0  0  0  0  0  0  0  0  0  0  0
   19.5242   19.7073   23.1787 C   0  0  0  0  0  0  0  0  0  0  0  0
   18.5368   19.2301   23.1201 H   0  0  0  0  0  0  0  0  0  0  0  0
   19.3769   20.6733   23.6797 H   0  0  0  0  0  0  0  0  0  0  0  0
   20.0654   19.9595   21.7515 C   0  0  0  0  0  0  0  0  0  0  0  0
   21.0417   20.4602   21.8126 H   0  0  0  0  0  0  0  0  0  0  0  0
   19.3908   20.6578   21.2369 H   0  0  0  0  0  0  0  0  0  0  0  0
   20.1940   18.6663   20.9118 C   0  0  0  0  0  0  0  0  0  0  0  0
   20.9048   17.9756   21.3853 H   0  0  0  0  0  0  0  0  0  0  0  0
   19.2248   18.1493   20.8762 H   0  0  0  0  0  0  0  0  0  0  0  0
   20.6662   18.9659   19.4730 C   0  0  0  0  0  0  0  0  0  0  0  0
   20.7527   18.0383   18.8923 H   0  0  0  0  0  0  0  0  0  0  0  0
   19.9572   19.6233   18.9530 H   0  0  0  0  0  0  0  0  0  0  0  0
   21.6488   19.4554   19.4738 H   0  0  0  0  0  0  0  0  0  0  0  0
  1  2  1  0  0  0  0
  1  3  1  0  0  0  0
  1  4  1  0  0  0  0
  1  5  1  0  0  0  0
  5  6  1  0  0  0  0
  5  7  1  0  0  0  0
  5  8  1  0  0  0  0
  8  9  1  0  0  0  0
  8 10  1  0  0  0  0
  8 11  1  0  0  0  0
 11 12  1  0  0  0  0
 11 13  1  0  0  0  0
 11 14  1  0  0  0  0
 14 15  1  0  0  0  0
 14 16  1  0  0  0  0
 14 17  1  0  0  0  0
 17 18  1  0  0  0  0
 17 19  1  0  0  0  0
 17 20  1  0  0  0  0
M  END
> <VM2 Rank>
5

> <Conf_Id>
90

> <Probability>
7.91

> <Sum Probability>
55.63

> <Delta G>
0.500

> <G>
27.506

> <E>
4.722

> <-TS>
22.784

> <U+W>
-11.375

> <U>
46.508

> <W>
-57.883

> <W(PB)>
-59.813

> <W(SA)>
1.931

> <Valence>
1.610

> <Coulomb>
44.536

> <VdW>
0.363

> <VdW6>
-4.056

> <VdW12>
4.419

> <Bond>
0.118

> <Angle>
0.515

> <Pdih>
0.977

> <Idih>
0.000

> <Tether>
0.000

$$$$
VeraChem MOL file


 20 19  0  0  0  0  0  0  0  0999 V2000     
   19.4823   19.4057   25.4133 N   0  3  0  0  0  0  0  0  0  0  0  0
   18.6901   18.7559   25.4356 H   0  0  0  0  0  0  0  0  0  0  0  0
   19.9097   19.3853   26.3452 H   0  0  0  0  0  0  0  0  0  0  0  0
   19.0969   20.3465   25.2838 H   0  0  0  0  0  0  0  0  0  0  0  0
   20.4786   19.0472   24.3291 C   0  0  0  0  0  0  0  0  0  0  0  0
   20.8695   18.0495   24.5467 H   0  0  0  0  0  0  0  0  0  0  0  0
   21.3066   19.7593   24.3827 H   0  0  0  0  0  0  0  0  0  0  0  0
   19.8688   19.0677   22.9160 C   0  0  0  0  0  0  0  0  0  0  0  0
   19.0279   18.3630   22.8713 H   0  0  0  0  0  0  0  0  0  0  0  0
   19.4643   20.0678   22.7155 H   0  0  0  0  0  0  0  0  0  0  0  0
   20.9190   18.6941   21.8432 C   0  0  0  0  0  0  0  0  0  0  0  0
   21.3668   17.7248   22.1033 H   0  0  0  0  0  0  0  0  0  0  0  0
   21.7385   19.4261   21.8567 H   0  0  0  0  0  0  0  0  0  0  0  0
   20.3341   18.5984   20.4130 C   0  0  0  0  0  0  0  0  0  0  0  0
   21.1170   18.2287   19.7359 H   0  0  0  0  0  0  0  0  0  0  0  0
   19.5297   17.8498   20.3895 H   0  0  0  0  0  0  0  0  0  0  0  0
   19.8052   19.9469   19.8734 C   0  0  0  0  0  0  0  0  0  0  0  0
   19.4872   19.8441   18.8278 H   0  0  0  0  0  0  0  0  0  0  0  0
   18.9394   20.2997   20.4474 H   0  0  0  0  0  0  0  0  0  0  0  0
   20.5829   20.7206   19.9126 H   0  0  0  0  0  0  0  0  0  0  0  0
  1  2  1  0  0  0  0
  1  3  1  0  0  0  0
  1  4  1  0  0  0  0
  1  5  1  0  0  0  0
  5  6  1  0  0  0  0
  5  7  1  0  0  0  0
  5  8  1  0  0  0  0
  8  9  1  0  0  0  0
  8 10  1  0  0  0  0
  8 11  1  0  0  0  0
 11 12  1  0  0  0  0
 11 13  1  0  0  0  0
 11 14  1  0  0  0  0
 14 15  1  0  0  0  0
 14 16  1  0  0  0  0
 14 17  1  0  0  0  0
 17 18  1  0  0  0  0
 17 19  1  0  0  0  0
 17 20  1  0  0  0  0
M  END
> <VM2 Rank>
6

> <Conf_Id>
126

> <Probability>
6.49

> <Sum Probability>
62.12

> <Delta G>
0.619

> <G>
27.624

> <E>
4.826

> <-TS>
22.799

> <U+W>
-11.271

> <U>
46.486

> <W>
-57.757

> <W(PB)>
-59.706

> <W(SA)>
1.949

> <Valence>
1.806

> <Coulomb>
44.248

> <VdW>
0.433

> <VdW6>
-4.089

> <VdW12>
4.522

> <Bond>
0.131

> <Angle>
0.628

> <Pdih>
1.047

> <Idih>
0.000

> <Tether>
0.000

$$$$
VeraChem MOL file


 20 19  0  0  0  0  0  0  0  0999 V2000     
   19.9291   18.4439   25.4144 N   0  3  0  0  0  0  0  0  0  0  0  0
   20.3995   17.5423   25.2871 H   0  0  0  0  0  0  0  0  0  0  0  0
   20.1884   18.7854   26.3459 H   0  0  0  0  0  0  0  0  0  0  0  0
   18.9215   18.2577   25.4362 H   0  0  0  0  0  0  0  0  0  0  0  0
   20.2988   19.4343   24.3287 C   0  0  0  0  0  0  0  0  0  0  0  0
   21.3770   19.6077   24.3828 H   0  0  0  0  0  0  0  0  0  0  0  0
   19.7884   20.3769   24.5439 H   0  0  0  0  0  0  0  0  0  0  0  0
   19.9224   18.9523   22.9161 C   0  0  0  0  0  0  0  0  0  0  0  0
   20.4258   17.9976   22.7180 H   0  0  0  0  0  0  0  0  0  0  0  0
   18.8415   18.7643   22.8708 H   0  0  0  0  0  0  0  0  0  0  0  0
   20.3154   19.9936   21.8416 C   0  0  0  0  0  0  0  0  0  0  0  0
   21.4033   20.1476   21.8559 H   0  0  0  0  0  0  0  0  0  0  0  0
   19.8634   20.9616   22.0994 H   0  0  0  0  0  0  0  0  0  0  0  0
   19.8663   19.6056   20.4118 C   0  0  0  0  0  0  0  0  0  0  0  0
   18.7754   19.4737   20.3875 H   0  0  0  0  0  0  0  0  0  0  0  0
   20.0894   20.4409   19.7332 H   0  0  0  0  0  0  0  0  0  0  0  0
   20.5560   18.3304   19.8754 C   0  0  0  0  0  0  0  0  0  0  0  0
   20.2733   18.1517   18.8299 H   0  0  0  0  0  0  0  0  0  0  0  0
   21.6489   18.4256   19.9154 H   0  0  0  0  0  0  0  0  0  0  0  0
   20.2666   17.4424   20.4509 H   0  0  0  0  0  0  0  0  0  0  0  0
  1  2  1  0  0  0  0
  1  3  1  0  0  0  0
  1  4  1  0  0  0  0
  1  5  1  0  0  0  0
  5  6  1  0  0  0  0
  5  7  1  0  0  0  0
  5  8  1  0  0  0  0
  8  9  1  0  0  0  0
  8 10  1  0  0  0  0
  8 11  1  0  0  0  0
 11 12  1  0  0  0  0
 11 13  1  0  0  0  0
 11 14  1  0  0  0  0
 14 15  1  0  0  0  0
 14 16  1  0  0  0  0
 14 17  1  0  0  0  0
 17 18  1  0  0  0  0
 17 19  1  0  0  0  0
 17 20  1  0  0  0  0
M  END
> <VM2 Rank>
7

> <Conf_Id>
144

> <Probability>
6.42

> <Sum Probability>
68.53

> <Delta G>
0.625

> <G>
27.631

> <E>
4.832

> <-TS>
22.798

> <U+W>
-11.264

> <U>
46.486

> <W>
-57.750

> <W(PB)>
-59.687

> <W(SA)>
1.936

> <Valence>
1.806

> <Coulomb>
44.248

> <VdW>
0.433

> <VdW6>
-4.089

> <VdW12>
4.522

> <Bond>
0.131

> <Angle>
0.628

> <Pdih>
1.047

> <Idih>
0.000

> <Tether>
0.000

$$$$
VeraChem MOL file


 20 19  0  0  0  0  0  0  0  0999 V2000     
   19.4805   19.1733   25.1477 N   0  3  0  0  0  0  0  0  0  0  0  0
   19.6590   19.4561   26.1171 H   0  0  0  0  0  0  0  0  0  0  0  0
   18.8426   19.8675   24.7474 H   0  0  0  0  0  0  0  0  0  0  0  0
   18.9743   18.2831   25.1858 H   0  0  0  0  0  0  0  0  0  0  0  0
   20.7649   19.0591   24.3494 C   0  0  0  0  0  0  0  0  0  0  0  0
   21.4080   18.3369   24.8597 H   0  0  0  0  0  0  0  0  0  0  0  0
   21.2645   20.0314   24.3680 H   0  0  0  0  0  0  0  0  0  0  0  0
   20.5553   18.6116   22.8893 C   0  0  0  0  0  0  0  0  0  0  0  0
   21.5429   18.4472   22.4407 H   0  0  0  0  0  0  0  0  0  0  0  0
   20.0379   17.6433   22.8736 H   0  0  0  0  0  0  0  0  0  0  0  0
   19.7662   19.6500   22.0525 C   0  0  0  0  0  0  0  0  0  0  0  0
   20.3014   20.6097   22.0540 H   0  0  0  0  0  0  0  0  0  0  0  0
   18.7936   19.8380   22.5260 H   0  0  0  0  0  0  0  0  0  0  0  0
   19.5138   19.2014   20.5923 C   0  0  0  0  0  0  0  0  0  0  0  0
   18.9665   18.2483   20.5854 H   0  0  0  0  0  0  0  0  0  0  0  0
   18.8561   19.9361   20.1071 H   0  0  0  0  0  0  0  0  0  0  0  0
   20.8072   19.0646   19.7567 C   0  0  0  0  0  0  0  0  0  0  0  0
   21.4449   18.2533   20.1287 H   0  0  0  0  0  0  0  0  0  0  0  0
   20.5658   18.8394   18.7099 H   0  0  0  0  0  0  0  0  0  0  0  0
   21.3889   19.9954   19.7735 H   0  0  0  0  0  0  0  0  0  0  0  0
  1  2  1  0  0  0  0
  1  3  1  0  0  0  0
  1  4  1  0  0  0  0
  1  5  1  0  0  0  0
  5  6  1  0  0  0  0
  5  7  1  0  0  0  0
  5  8  1  0  0  0  0
  8  9  1  0  0  0  0
  8 10  1  0  0  0  0
  8 11  1  0  0  0  0
 11 12  1  0  0  0  0
 11 13  1  0  0  0  0
 11 14  1  0  0  0  0
 14 15  1  0  0  0  0
 14 16  1  0  0  0  0
 14 17  1  0  0  0  0
 17 18  1  0  0  0  0
 17 19  1  0  0  0  0
 17 20  1  0  0  0  0
M  END
> <VM2 Rank>
8

> <Conf_Id>
33

> <Probability>
4.06

> <Sum Probability>
72.60

> <Delta G>
0.898

> <G>
27.903

> <E>
5.022

> <-TS>
22.881

> <U+W>
-11.075

> <U>
47.080

> <W>
-58.154

> <W(PB)>
-60.053

> <W(SA)>
1.899

> <Valence>
1.943

> <Coulomb>
44.572

> <VdW>
0.565

> <VdW6>
-4.575

> <VdW12>
5.139

> <Bond>
0.158

> <Angle>
0.700

> <Pdih>
1.085

> <Idih>
0.000

> <Tether>
0.000

$$$$
