VeraChem MOL file


 16 15  0  0  0  0  0  0  0  0999 V2000     
   20.0718   19.4318   24.6567 C   0  0  0  0  0  0  0  0  0  0  0  0
   20.4841   20.5080   25.0408 O   0  5  0  0  0  0  0  0  0  0  0  0
   19.2403   18.7784   25.2547 O   0  0  0  0  0  0  0  0  0  0  0  0
   20.6140   18.8794   23.3431 C   0  0  0  0  0  0  0  0  0  0  0  0
   20.6286   17.7851   23.4135 H   0  0  0  0  0  0  0  0  0  0  0  0
   21.6540   19.2111   23.2371 H   0  0  0  0  0  0  0  0  0  0  0  0
   19.7839   19.3242   22.1138 C   0  0  0  0  0  0  0  0  0  0  0  0
   18.7430   18.9958   22.2406 H   0  0  0  0  0  0  0  0  0  0  0  0
   19.7683   20.4219   22.0642 H   0  0  0  0  0  0  0  0  0  0  0  0
   20.3534   18.7522   20.7989 C   0  0  0  0  0  0  0  0  0  0  0  0
   20.3686   17.6545   20.8479 H   0  0  0  0  0  0  0  0  0  0  0  0
   21.3942   19.0810   20.6715 H   0  0  0  0  0  0  0  0  0  0  0  0
   19.5224   19.1989   19.5799 C   0  0  0  0  0  0  0  0  0  0  0  0
   19.5162   20.2930   19.4885 H   0  0  0  0  0  0  0  0  0  0  0  0
   18.4830   18.8560   19.6662 H   0  0  0  0  0  0  0  0  0  0  0  0
   19.9406   18.7838   18.6537 H   0  0  0  0  0  0  0  0  0  0  0  0
  1  2  1  0  0  0  0
  1  3  2  0  0  0  0
  1  4  1  0  0  0  0
  4  5  1  0  0  0  0
  4  6  1  0  0  0  0
  4  7  1  0  0  0  0
  7  8  1  0  0  0  0
  7  9  1  0  0  0  0
  7 10  1  0  0  0  0
 10 11  1  0  0  0  0
 10 12  1  0  0  0  0
 10 13  1  0  0  0  0
 13 14  1  0  0  0  0
 13 15  1  0  0  0  0
 13 16  1  0  0  0  0
M  END
> <VM2 Rank>
1

> <Conf_Id>
166

> <Probability>
57.83

> <Sum Probability>
57.83

> <Delta G>
0.000

> <G>
-35.660

> <E>
-45.569

> <-TS>
9.910

> <U+W>
-58.089

> <U>
6.298

> <W>
-64.387

> <W(PB)>
-66.329

> <W(SA)>
1.942

> <Valence>
6.246

> <Coulomb>
-0.408

> <VdW>
0.460

> <VdW6>
-4.207

> <VdW12>
4.667

> <Bond>
0.072

> <Angle>
2.246

> <Pdih>
3.928

> <Idih>
0.001

> <Tether>
0.000

$$$$
