@<TRIPOS>MOLECULE
guest-s20_vm2.mol2 : vm2 ligand conformer 1
          17          16           1
SMALL
USER_CHARGES
 
@<TRIPOS>ATOM
       1    C1      20.121581   19.026758   25.064315 C.2        1 MOL1         0.6132
       2    O1      21.229245   19.333284   25.459493 O.co2      1 MOL1        -0.6749
       3    O2      19.098411   19.545626   25.465492 O.co2      1 MOL1        -0.6749
       4    C2      20.007740   17.913623   24.027193 C.3        1 MOL1        -0.1955
       5    H1      19.074803   17.370816   24.218841 H          1 MOL1         0.0733
       6    H2      20.816291   17.197292   24.213892 H          1 MOL1         0.0733
       7    C3      20.048018   18.359446   22.571859 C.2        1 MOL1        -0.1395
       8    H3      19.964151   17.539620   21.861292 H          1 MOL1         0.0816
       9    C4      20.172989   19.623276   22.141645 C.2        1 MOL1        -0.1394
      10    H4      20.256380   20.437082   22.860817 H          1 MOL1         0.0816
      11    C5      20.215219   20.087163   20.695007 C.3        1 MOL1        -0.1826
      12    H5      19.408422   20.814241   20.530854 H          1 MOL1         0.0736
      13    H6      21.149032   20.640240   20.525867 H          1 MOL1         0.0736
      14    C6      20.099796   18.962825   19.641995 C.3        1 MOL1        -0.2882
      15    H7      20.138667   19.380522   18.627573 H          1 MOL1         0.0749
      16    H8      20.923804   18.244062   19.740964 H          1 MOL1         0.0749
      17    H9      19.150362   18.421386   19.746028 H          1 MOL1         0.0749
@<TRIPOS>BOND
    1     1     2    1
    2     1     3    2
    3     1     4    1
    4     4     5    1
    5     4     6    1
    6     4     7    1
    7     7     8    1
    8     7     9    2
    9     9    10    1
   10     9    11    1
   11    11    12    1
   12    11    13    1
   13    11    14    1
   14    14    15    1
   15    14    16    1
   16    14    17    1
@<TRIPOS>SUBSTRUCTURE
       1 MOL1            1 RESIDUE      1      MOL     
@<SCITEGIC>MOL_PROPERTY
VM2 Rank
SciTegic.value.IntegerValue
1

@<SCITEGIC>MOL_PROPERTY
Conf_Id
SciTegic.value.IntegerValue
122

@<SCITEGIC>MOL_PROPERTY
Probability
SciTegic.value.DoubleValue
14.28

@<SCITEGIC>MOL_PROPERTY
Sum Probability
SciTegic.value.DoubleValue
14.28

@<SCITEGIC>MOL_PROPERTY
Delta G
SciTegic.value.DoubleValue
0.000

@<SCITEGIC>MOL_PROPERTY
G
SciTegic.value.DoubleValue
-26.661

@<SCITEGIC>MOL_PROPERTY
E
SciTegic.value.DoubleValue
-36.827

@<SCITEGIC>MOL_PROPERTY
-TS
SciTegic.value.DoubleValue
10.165

@<SCITEGIC>MOL_PROPERTY
U+W
SciTegic.value.DoubleValue
-50.240

@<SCITEGIC>MOL_PROPERTY
U
SciTegic.value.DoubleValue
14.007

@<SCITEGIC>MOL_PROPERTY
W
SciTegic.value.DoubleValue
-64.247

@<SCITEGIC>MOL_PROPERTY
W(PB)
SciTegic.value.DoubleValue
-66.286

@<SCITEGIC>MOL_PROPERTY
W(SA)
SciTegic.value.DoubleValue
2.040

@<SCITEGIC>MOL_PROPERTY
Valence
SciTegic.value.DoubleValue
12.998

@<SCITEGIC>MOL_PROPERTY
Coulomb
SciTegic.value.DoubleValue
-0.405

@<SCITEGIC>MOL_PROPERTY
VdW
SciTegic.value.DoubleValue
1.414

@<SCITEGIC>MOL_PROPERTY
VdW6
SciTegic.value.DoubleValue
-5.682

@<SCITEGIC>MOL_PROPERTY
VdW12
SciTegic.value.DoubleValue
7.096

@<SCITEGIC>MOL_PROPERTY
Bond
SciTegic.value.DoubleValue
0.147

@<SCITEGIC>MOL_PROPERTY
Angle
SciTegic.value.DoubleValue
3.367

@<SCITEGIC>MOL_PROPERTY
Pdih
SciTegic.value.DoubleValue
9.484

@<SCITEGIC>MOL_PROPERTY
Idih
SciTegic.value.DoubleValue
0.001

@<SCITEGIC>MOL_PROPERTY
Tether
SciTegic.value.DoubleValue
0.000

@<TRIPOS>MOLECULE
guest-s20_vm2.mol2 : vm2 ligand conformer 2
          17          16           1
SMALL
USER_CHARGES
 
@<TRIPOS>ATOM
       1    C1      19.935797   19.010921   25.004214 C.2        1 MOL1         0.6132
       2    O1      18.806467   18.576415   25.117406 O.co2      1 MOL1        -0.6749
       3    O2      20.310834   20.047200   25.516616 O.co2      1 MOL1        -0.6749
       4    C2      20.944700   18.197910   24.198793 C.3        1 MOL1        -0.1955
       5    H1      20.693290   17.137473   24.317258 H          1 MOL1         0.0733
       6    H2      21.928720   18.328161   24.664046 H          1 MOL1         0.0733
       7    C3      21.031212   18.539270   22.717960 C.2        1 MOL1        -0.1395
       8    H3      21.757296   17.947458   22.161987 H          1 MOL1         0.0816
       9    C4      20.310079   19.469987   22.081776 C.2        1 MOL1        -0.1394
      10    H4      19.576768   20.074794   22.613938 H          1 MOL1         0.0816
      11    C5      20.435807   19.771792   20.604939 C.3        1 MOL1        -0.1826
      12    H5      20.520438   20.856551   20.454425 H          1 MOL1         0.0736
      13    H6      21.352801   19.324638   20.197104 H          1 MOL1         0.0736
      14    C6      19.218105   19.238505   19.825296 C.3        1 MOL1        -0.2882
      15    H7      19.313978   19.461460   18.754708 H          1 MOL1         0.0749
      16    H8      19.127888   18.150269   19.940180 H          1 MOL1         0.0749
      17    H9      18.289313   19.698570   20.187435 H          1 MOL1         0.0749
@<TRIPOS>BOND
    1     1     2    1
    2     1     3    2
    3     1     4    1
    4     4     5    1
    5     4     6    1
    6     4     7    1
    7     7     8    1
    8     7     9    2
    9     9    10    1
   10     9    11    1
   11    11    12    1
   12    11    13    1
   13    11    14    1
   14    14    15    1
   15    14    16    1
   16    14    17    1
@<TRIPOS>SUBSTRUCTURE
       1 MOL1            1 RESIDUE      1      MOL     
@<SCITEGIC>MOL_PROPERTY
VM2 Rank
SciTegic.value.IntegerValue
2

@<SCITEGIC>MOL_PROPERTY
Conf_Id
SciTegic.value.IntegerValue
39

@<SCITEGIC>MOL_PROPERTY
Probability
SciTegic.value.DoubleValue
12.36

@<SCITEGIC>MOL_PROPERTY
Sum Probability
SciTegic.value.DoubleValue
26.64

@<SCITEGIC>MOL_PROPERTY
Delta G
SciTegic.value.DoubleValue
0.086

@<SCITEGIC>MOL_PROPERTY
G
SciTegic.value.DoubleValue
-26.576

@<SCITEGIC>MOL_PROPERTY
E
SciTegic.value.DoubleValue
-36.435

@<SCITEGIC>MOL_PROPERTY
-TS
SciTegic.value.DoubleValue
9.860

@<SCITEGIC>MOL_PROPERTY
U+W
SciTegic.value.DoubleValue
-49.849

@<SCITEGIC>MOL_PROPERTY
U
SciTegic.value.DoubleValue
14.465

@<SCITEGIC>MOL_PROPERTY
W
SciTegic.value.DoubleValue
-64.314

@<SCITEGIC>MOL_PROPERTY
W(PB)
SciTegic.value.DoubleValue
-66.406

@<SCITEGIC>MOL_PROPERTY
W(SA)
SciTegic.value.DoubleValue
2.093

@<SCITEGIC>MOL_PROPERTY
Valence
SciTegic.value.DoubleValue
14.072

@<SCITEGIC>MOL_PROPERTY
Coulomb
SciTegic.value.DoubleValue
-0.199

@<SCITEGIC>MOL_PROPERTY
VdW
SciTegic.value.DoubleValue
0.592

@<SCITEGIC>MOL_PROPERTY
VdW6
SciTegic.value.DoubleValue
-5.019

@<SCITEGIC>MOL_PROPERTY
VdW12
SciTegic.value.DoubleValue
5.611

@<SCITEGIC>MOL_PROPERTY
Bond
SciTegic.value.DoubleValue
0.085

@<SCITEGIC>MOL_PROPERTY
Angle
SciTegic.value.DoubleValue
2.748

@<SCITEGIC>MOL_PROPERTY
Pdih
SciTegic.value.DoubleValue
11.238

@<SCITEGIC>MOL_PROPERTY
Idih
SciTegic.value.DoubleValue
0.001

@<SCITEGIC>MOL_PROPERTY
Tether
SciTegic.value.DoubleValue
0.000

@<TRIPOS>MOLECULE
guest-s20_vm2.mol2 : vm2 ligand conformer 3
          17          16           1
SMALL
USER_CHARGES
 
@<TRIPOS>ATOM
       1    C1      20.300249   18.974558   25.003221 C.2        1 MOL1         0.6132
       2    O1      20.139707   20.064068   25.517298 O.co2      1 MOL1        -0.6749
       3    O2      21.322355   18.325848   25.110314 O.co2      1 MOL1        -0.6749
       4    C2      19.146427   18.377006   24.203719 C.3        1 MOL1        -0.1955
       5    H1      18.210000   18.698340   24.674430 H          1 MOL1         0.0733
       6    H2      19.184486   17.287724   24.321118 H          1 MOL1         0.0733
       7    C3      19.120682   18.729904   22.723289 C.2        1 MOL1        -0.1395
       8    H3      18.288882   18.293604   22.171659 H          1 MOL1         0.0816
       9    C4      20.007933   19.500207   22.082652 C.2        1 MOL1        -0.1394
      10    H4      20.849371   19.947676   22.610372 H          1 MOL1         0.0816
      11    C5      19.936052   19.821876   20.606408 C.3        1 MOL1        -0.1826
      12    H5      18.946369   19.565388   20.204046 H          1 MOL1         0.0736
      13    H6      20.067005   20.902014   20.455830 H          1 MOL1         0.0736
      14    C6      21.019595   19.058533   19.820100 C.3        1 MOL1        -0.2882
      15    H7      22.023138   19.325311   20.176737 H          1 MOL1         0.0749
      16    H8      20.893166   17.973907   19.934978 H          1 MOL1         0.0749
      17    H9      20.963706   19.296775   18.749970 H          1 MOL1         0.0749
@<TRIPOS>BOND
    1     1     2    1
    2     1     3    2
    3     1     4    1
    4     4     5    1
    5     4     6    1
    6     4     7    1
    7     7     8    1
    8     7     9    2
    9     9    10    1
   10     9    11    1
   11    11    12    1
   12    11    13    1
   13    11    14    1
   14    14    15    1
   15    14    16    1
   16    14    17    1
@<TRIPOS>SUBSTRUCTURE
       1 MOL1            1 RESIDUE      1      MOL     
@<SCITEGIC>MOL_PROPERTY
VM2 Rank
SciTegic.value.IntegerValue
3

@<SCITEGIC>MOL_PROPERTY
Conf_Id
SciTegic.value.IntegerValue
50

@<SCITEGIC>MOL_PROPERTY
Probability
SciTegic.value.DoubleValue
11.89

@<SCITEGIC>MOL_PROPERTY
Sum Probability
SciTegic.value.DoubleValue
38.53

@<SCITEGIC>MOL_PROPERTY
Delta G
SciTegic.value.DoubleValue
0.109

@<SCITEGIC>MOL_PROPERTY
G
SciTegic.value.DoubleValue
-26.552

@<SCITEGIC>MOL_PROPERTY
E
SciTegic.value.DoubleValue
-36.412

@<SCITEGIC>MOL_PROPERTY
-TS
SciTegic.value.DoubleValue
9.860

@<SCITEGIC>MOL_PROPERTY
U+W
SciTegic.value.DoubleValue
-49.826

@<SCITEGIC>MOL_PROPERTY
U
SciTegic.value.DoubleValue
14.465

@<SCITEGIC>MOL_PROPERTY
W
SciTegic.value.DoubleValue
-64.290

@<SCITEGIC>MOL_PROPERTY
W(PB)
SciTegic.value.DoubleValue
-66.371

@<SCITEGIC>MOL_PROPERTY
W(SA)
SciTegic.value.DoubleValue
2.081

@<SCITEGIC>MOL_PROPERTY
Valence
SciTegic.value.DoubleValue
14.072

@<SCITEGIC>MOL_PROPERTY
Coulomb
SciTegic.value.DoubleValue
-0.199

@<SCITEGIC>MOL_PROPERTY
VdW
SciTegic.value.DoubleValue
0.592

@<SCITEGIC>MOL_PROPERTY
VdW6
SciTegic.value.DoubleValue
-5.019

@<SCITEGIC>MOL_PROPERTY
VdW12
SciTegic.value.DoubleValue
5.611

@<SCITEGIC>MOL_PROPERTY
Bond
SciTegic.value.DoubleValue
0.085

@<SCITEGIC>MOL_PROPERTY
Angle
SciTegic.value.DoubleValue
2.748

@<SCITEGIC>MOL_PROPERTY
Pdih
SciTegic.value.DoubleValue
11.238

@<SCITEGIC>MOL_PROPERTY
Idih
SciTegic.value.DoubleValue
0.001

@<SCITEGIC>MOL_PROPERTY
Tether
SciTegic.value.DoubleValue
0.000

@<TRIPOS>MOLECULE
guest-s20_vm2.mol2 : vm2 ligand conformer 4
          17          16           1
SMALL
USER_CHARGES
 
@<TRIPOS>ATOM
       1    C1      20.230243   19.049765   25.147816 C.2        1 MOL1         0.6132
       2    O1      21.384347   18.967925   25.519726 O.co2      1 MOL1        -0.6749
       3    O2      19.424174   19.824680   25.623851 O.co2      1 MOL1        -0.6749
       4    C2      19.768506   18.123235   24.030660 C.3        1 MOL1        -0.1955
       5    H1      18.681057   18.005924   24.109900 H          1 MOL1         0.0733
       6    H2      20.211062   17.136530   24.209735 H          1 MOL1         0.0733
       7    C3      20.163747   18.629287   22.656214 C.2        1 MOL1        -0.1395
       8    H3      21.234242   18.618587   22.458689 H          1 MOL1         0.0816
       9    C4      19.289432   19.065719   21.740895 C.2        1 MOL1        -0.1394
      10    H4      18.225617   19.065724   21.976230 H          1 MOL1         0.0816
      11    C5      19.614686   19.587782   20.351562 C.3        1 MOL1        -0.1826
      12    H5      19.077786   18.982830   19.608407 H          1 MOL1         0.0736
      13    H6      19.212741   20.604960   20.250023 H          1 MOL1         0.0736
      14    C6      21.117865   19.603607   19.996275 C.3        1 MOL1        -0.2882
      15    H7      21.269347   19.993477   18.981345 H          1 MOL1         0.0749
      16    H8      21.679683   20.243445   20.689426 H          1 MOL1         0.0749
      17    H9      21.542449   18.591840   20.034469 H          1 MOL1         0.0749
@<TRIPOS>BOND
    1     1     2    1
    2     1     3    2
    3     1     4    1
    4     4     5    1
    5     4     6    1
    6     4     7    1
    7     7     8    1
    8     7     9    2
    9     9    10    1
   10     9    11    1
   11    11    12    1
   12    11    13    1
   13    11    14    1
   14    14    15    1
   15    14    16    1
   16    14    17    1
@<TRIPOS>SUBSTRUCTURE
       1 MOL1            1 RESIDUE      1      MOL     
@<SCITEGIC>MOL_PROPERTY
VM2 Rank
SciTegic.value.IntegerValue
4

@<SCITEGIC>MOL_PROPERTY
Conf_Id
SciTegic.value.IntegerValue
176

@<SCITEGIC>MOL_PROPERTY
Probability
SciTegic.value.DoubleValue
11.60

@<SCITEGIC>MOL_PROPERTY
Sum Probability
SciTegic.value.DoubleValue
50.13

@<SCITEGIC>MOL_PROPERTY
Delta G
SciTegic.value.DoubleValue
0.124

@<SCITEGIC>MOL_PROPERTY
G
SciTegic.value.DoubleValue
-26.538

@<SCITEGIC>MOL_PROPERTY
E
SciTegic.value.DoubleValue
-36.512

@<SCITEGIC>MOL_PROPERTY
-TS
SciTegic.value.DoubleValue
9.974

@<SCITEGIC>MOL_PROPERTY
U+W
SciTegic.value.DoubleValue
-49.926

@<SCITEGIC>MOL_PROPERTY
U
SciTegic.value.DoubleValue
13.863

@<SCITEGIC>MOL_PROPERTY
W
SciTegic.value.DoubleValue
-63.789

@<SCITEGIC>MOL_PROPERTY
W(PB)
SciTegic.value.DoubleValue
-65.858

@<SCITEGIC>MOL_PROPERTY
W(SA)
SciTegic.value.DoubleValue
2.069

@<SCITEGIC>MOL_PROPERTY
Valence
SciTegic.value.DoubleValue
14.117

@<SCITEGIC>MOL_PROPERTY
Coulomb
SciTegic.value.DoubleValue
-1.228

@<SCITEGIC>MOL_PROPERTY
VdW
SciTegic.value.DoubleValue
0.974

@<SCITEGIC>MOL_PROPERTY
VdW6
SciTegic.value.DoubleValue
-4.885

@<SCITEGIC>MOL_PROPERTY
VdW12
SciTegic.value.DoubleValue
5.858

@<SCITEGIC>MOL_PROPERTY
Bond
SciTegic.value.DoubleValue
0.094

@<SCITEGIC>MOL_PROPERTY
Angle
SciTegic.value.DoubleValue
2.818

@<SCITEGIC>MOL_PROPERTY
Pdih
SciTegic.value.DoubleValue
11.205

@<SCITEGIC>MOL_PROPERTY
Idih
SciTegic.value.DoubleValue
0.000

@<SCITEGIC>MOL_PROPERTY
Tether
SciTegic.value.DoubleValue
0.000

@<TRIPOS>MOLECULE
guest-s20_vm2.mol2 : vm2 ligand conformer 5
          17          16           1
SMALL
USER_CHARGES
 
@<TRIPOS>ATOM
       1    C1      20.114163   18.994550   25.259001 C.2        1 MOL1         0.6132
       2    O1      21.185315   19.401802   25.663472 O.co2      1 MOL1        -0.6749
       3    O2      19.054590   19.235819   25.803109 O.co2      1 MOL1        -0.6749
       4    C2      20.096967   18.129549   24.005572 C.3        1 MOL1        -0.1955
       5    H1      19.378232   17.318122   24.168409 H          1 MOL1         0.0733
       6    H2      21.084607   17.665861   23.895106 H          1 MOL1         0.0733
       7    C3      19.723039   18.914915   22.762946 C.2        1 MOL1        -0.1395
       8    H3      18.694121   19.271955   22.730552 H          1 MOL1         0.0816
       9    C4      20.564283   19.175469   21.757636 C.2        1 MOL1        -0.1394
      10    H4      21.593851   18.820692   21.792043 H          1 MOL1         0.0816
      11    C5      20.190713   19.961982   20.521042 C.3        1 MOL1        -0.1826
      12    H5      19.241541   20.493389   20.675640 H          1 MOL1         0.0736
      13    H6      20.952732   20.728410   20.324965 H          1 MOL1         0.0736
      14    C6      20.063929   19.037915   19.294222 C.3        1 MOL1        -0.2882
      15    H7      19.288450   18.277850   19.457107 H          1 MOL1         0.0749
      16    H8      19.793453   19.614331   18.399979 H          1 MOL1         0.0749
      17    H9      21.011829   18.521769   19.092957 H          1 MOL1         0.0749
@<TRIPOS>BOND
    1     1     2    1
    2     1     3    2
    3     1     4    1
    4     4     5    1
    5     4     6    1
    6     4     7    1
    7     7     8    1
    8     7     9    2
    9     9    10    1
   10     9    11    1
   11    11    12    1
   12    11    13    1
   13    11    14    1
   14    14    15    1
   15    14    16    1
   16    14    17    1
@<TRIPOS>SUBSTRUCTURE
       1 MOL1            1 RESIDUE      1      MOL     
@<SCITEGIC>MOL_PROPERTY
VM2 Rank
SciTegic.value.IntegerValue
5

@<SCITEGIC>MOL_PROPERTY
Conf_Id
SciTegic.value.IntegerValue
44

@<SCITEGIC>MOL_PROPERTY
Probability
SciTegic.value.DoubleValue
10.74

@<SCITEGIC>MOL_PROPERTY
Sum Probability
SciTegic.value.DoubleValue
60.87

@<SCITEGIC>MOL_PROPERTY
Delta G
SciTegic.value.DoubleValue
0.170

@<SCITEGIC>MOL_PROPERTY
G
SciTegic.value.DoubleValue
-26.492

@<SCITEGIC>MOL_PROPERTY
E
SciTegic.value.DoubleValue
-36.127

@<SCITEGIC>MOL_PROPERTY
-TS
SciTegic.value.DoubleValue
9.636

@<SCITEGIC>MOL_PROPERTY
U+W
SciTegic.value.DoubleValue
-49.541

@<SCITEGIC>MOL_PROPERTY
U
SciTegic.value.DoubleValue
13.666

@<SCITEGIC>MOL_PROPERTY
W
SciTegic.value.DoubleValue
-63.207

@<SCITEGIC>MOL_PROPERTY
W(PB)
SciTegic.value.DoubleValue
-65.297

@<SCITEGIC>MOL_PROPERTY
W(SA)
SciTegic.value.DoubleValue
2.090

@<SCITEGIC>MOL_PROPERTY
Valence
SciTegic.value.DoubleValue
15.226

@<SCITEGIC>MOL_PROPERTY
Coulomb
SciTegic.value.DoubleValue
-1.822

@<SCITEGIC>MOL_PROPERTY
VdW
SciTegic.value.DoubleValue
0.261

@<SCITEGIC>MOL_PROPERTY
VdW6
SciTegic.value.DoubleValue
-4.165

@<SCITEGIC>MOL_PROPERTY
VdW12
SciTegic.value.DoubleValue
4.426

@<SCITEGIC>MOL_PROPERTY
Bond
SciTegic.value.DoubleValue
0.044

@<SCITEGIC>MOL_PROPERTY
Angle
SciTegic.value.DoubleValue
2.229

@<SCITEGIC>MOL_PROPERTY
Pdih
SciTegic.value.DoubleValue
12.953

@<SCITEGIC>MOL_PROPERTY
Idih
SciTegic.value.DoubleValue
0.000

@<SCITEGIC>MOL_PROPERTY
Tether
SciTegic.value.DoubleValue
0.000

@<TRIPOS>MOLECULE
guest-s20_vm2.mol2 : vm2 ligand conformer 6
          17          16           1
SMALL
USER_CHARGES
 
@<TRIPOS>ATOM
       1    C1      20.034272   18.855721   25.133844 C.2        1 MOL1         0.6132
       2    O1      20.079867   17.676885   25.425799 O.co2      1 MOL1        -0.6749
       3    O2      19.233194   19.635521   25.610326 O.co2      1 MOL1        -0.6749
       4    C2      21.042582   19.384331   24.122124 C.3        1 MOL1        -0.1955
       5    H1      22.010357   18.917460   24.338816 H          1 MOL1         0.0733
       6    H2      21.162171   20.461720   24.288000 H          1 MOL1         0.0733
       7    C3      20.634135   19.095029   22.690035 C.2        1 MOL1        -0.1395
       8    H3      20.650981   18.041382   22.416847 H          1 MOL1         0.0816
       9    C4      20.271761   20.038163   21.811460 C.2        1 MOL1        -0.1394
      10    H4      20.262980   21.082324   22.122483 H          1 MOL1         0.0816
      11    C5      19.849215   19.819941   20.368401 C.3        1 MOL1        -0.1826
      12    H5      18.845074   20.240958   20.223597 H          1 MOL1         0.0736
      13    H6      20.510353   20.401023   19.711329 H          1 MOL1         0.0736
      14    C6      19.847974   18.346409   19.905011 C.3        1 MOL1        -0.2882
      15    H7      19.531579   18.272999   18.856425 H          1 MOL1         0.0749
      16    H8      20.851116   17.907398   19.984874 H          1 MOL1         0.0749
      17    H9      19.155404   17.744515   20.507968 H          1 MOL1         0.0749
@<TRIPOS>BOND
    1     1     2    1
    2     1     3    2
    3     1     4    1
    4     4     5    1
    5     4     6    1
    6     4     7    1
    7     7     8    1
    8     7     9    2
    9     9    10    1
   10     9    11    1
   11    11    12    1
   12    11    13    1
   13    11    14    1
   14    14    15    1
   15    14    16    1
   16    14    17    1
@<TRIPOS>SUBSTRUCTURE
       1 MOL1            1 RESIDUE      1      MOL     
@<SCITEGIC>MOL_PROPERTY
VM2 Rank
SciTegic.value.IntegerValue
6

@<SCITEGIC>MOL_PROPERTY
Conf_Id
SciTegic.value.IntegerValue
54

@<SCITEGIC>MOL_PROPERTY
Probability
SciTegic.value.DoubleValue
10.65

@<SCITEGIC>MOL_PROPERTY
Sum Probability
SciTegic.value.DoubleValue
71.52

@<SCITEGIC>MOL_PROPERTY
Delta G
SciTegic.value.DoubleValue
0.175

@<SCITEGIC>MOL_PROPERTY
G
SciTegic.value.DoubleValue
-26.487

@<SCITEGIC>MOL_PROPERTY
E
SciTegic.value.DoubleValue
-36.461

@<SCITEGIC>MOL_PROPERTY
-TS
SciTegic.value.DoubleValue
9.974

@<SCITEGIC>MOL_PROPERTY
U+W
SciTegic.value.DoubleValue
-49.875

@<SCITEGIC>MOL_PROPERTY
U
SciTegic.value.DoubleValue
13.864

@<SCITEGIC>MOL_PROPERTY
W
SciTegic.value.DoubleValue
-63.738

@<SCITEGIC>MOL_PROPERTY
W(PB)
SciTegic.value.DoubleValue
-65.802

@<SCITEGIC>MOL_PROPERTY
W(SA)
SciTegic.value.DoubleValue
2.064

@<SCITEGIC>MOL_PROPERTY
Valence
SciTegic.value.DoubleValue
14.117

@<SCITEGIC>MOL_PROPERTY
Coulomb
SciTegic.value.DoubleValue
-1.227

@<SCITEGIC>MOL_PROPERTY
VdW
SciTegic.value.DoubleValue
0.974

@<SCITEGIC>MOL_PROPERTY
VdW6
SciTegic.value.DoubleValue
-4.885

@<SCITEGIC>MOL_PROPERTY
VdW12
SciTegic.value.DoubleValue
5.859

@<SCITEGIC>MOL_PROPERTY
Bond
SciTegic.value.DoubleValue
0.094

@<SCITEGIC>MOL_PROPERTY
Angle
SciTegic.value.DoubleValue
2.817

@<SCITEGIC>MOL_PROPERTY
Pdih
SciTegic.value.DoubleValue
11.205

@<SCITEGIC>MOL_PROPERTY
Idih
SciTegic.value.DoubleValue
0.000

@<SCITEGIC>MOL_PROPERTY
Tether
SciTegic.value.DoubleValue
0.000

@<TRIPOS>MOLECULE
guest-s20_vm2.mol2 : vm2 ligand conformer 7
          17          16           1
SMALL
USER_CHARGES
 
@<TRIPOS>ATOM
       1    C1      20.110244   18.998892   25.259209 C.2        1 MOL1         0.6132
       2    O1      20.675418   19.984526   25.690396 O.co2      1 MOL1        -0.6749
       3    O2      20.232954   17.889581   25.740178 O.co2      1 MOL1        -0.6749
       4    C2      19.193583   19.161385   24.053832 C.3        1 MOL1        -0.1955
       5    H1      18.861113   20.205660   24.013929 H          1 MOL1         0.0733
       6    H2      18.301982   18.547418   24.225879 H          1 MOL1         0.0733
       7    C3      19.863702   18.754195   22.755418 C.2        1 MOL1        -0.1395
       8    H3      20.078647   17.690599   22.656615 H          1 MOL1         0.0816
       9    C4      20.187296   19.606133   21.777812 C.2        1 MOL1        -0.1394
      10    H4      19.974967   20.670000   21.878619 H          1 MOL1         0.0816
      11    C5      20.859148   19.198866   20.485500 C.3        1 MOL1        -0.1826
      12    H5      21.710116   19.863708   20.284569 H          1 MOL1         0.0736
      13    H6      21.266334   18.181699   20.567895 H          1 MOL1         0.0736
      14    C6      19.870656   19.258422   19.304655 C.3        1 MOL1        -0.2882
      15    H7      20.364023   18.962538   18.369708 H          1 MOL1         0.0749
      16    H8      19.022658   18.581187   19.471545 H          1 MOL1         0.0749
      17    H9      19.476267   20.274803   19.174826 H          1 MOL1         0.0749
@<TRIPOS>BOND
    1     1     2    1
    2     1     3    2
    3     1     4    1
    4     4     5    1
    5     4     6    1
    6     4     7    1
    7     7     8    1
    8     7     9    2
    9     9    10    1
   10     9    11    1
   11    11    12    1
   12    11    13    1
   13    11    14    1
   14    14    15    1
   15    14    16    1
   16    14    17    1
@<TRIPOS>SUBSTRUCTURE
       1 MOL1            1 RESIDUE      1      MOL     
@<SCITEGIC>MOL_PROPERTY
VM2 Rank
SciTegic.value.IntegerValue
7

@<SCITEGIC>MOL_PROPERTY
Conf_Id
SciTegic.value.IntegerValue
80

@<SCITEGIC>MOL_PROPERTY
Probability
SciTegic.value.DoubleValue
10.56

@<SCITEGIC>MOL_PROPERTY
Sum Probability
SciTegic.value.DoubleValue
82.09

@<SCITEGIC>MOL_PROPERTY
Delta G
SciTegic.value.DoubleValue
0.180

@<SCITEGIC>MOL_PROPERTY
G
SciTegic.value.DoubleValue
-26.482

@<SCITEGIC>MOL_PROPERTY
E
SciTegic.value.DoubleValue
-36.117

@<SCITEGIC>MOL_PROPERTY
-TS
SciTegic.value.DoubleValue
9.636

@<SCITEGIC>MOL_PROPERTY
U+W
SciTegic.value.DoubleValue
-49.531

@<SCITEGIC>MOL_PROPERTY
U
SciTegic.value.DoubleValue
13.666

@<SCITEGIC>MOL_PROPERTY
W
SciTegic.value.DoubleValue
-63.197

@<SCITEGIC>MOL_PROPERTY
W(PB)
SciTegic.value.DoubleValue
-65.301

@<SCITEGIC>MOL_PROPERTY
W(SA)
SciTegic.value.DoubleValue
2.103

@<SCITEGIC>MOL_PROPERTY
Valence
SciTegic.value.DoubleValue
15.226

@<SCITEGIC>MOL_PROPERTY
Coulomb
SciTegic.value.DoubleValue
-1.821

@<SCITEGIC>MOL_PROPERTY
VdW
SciTegic.value.DoubleValue
0.261

@<SCITEGIC>MOL_PROPERTY
VdW6
SciTegic.value.DoubleValue
-4.165

@<SCITEGIC>MOL_PROPERTY
VdW12
SciTegic.value.DoubleValue
4.426

@<SCITEGIC>MOL_PROPERTY
Bond
SciTegic.value.DoubleValue
0.044

@<SCITEGIC>MOL_PROPERTY
Angle
SciTegic.value.DoubleValue
2.229

@<SCITEGIC>MOL_PROPERTY
Pdih
SciTegic.value.DoubleValue
12.953

@<SCITEGIC>MOL_PROPERTY
Idih
SciTegic.value.DoubleValue
0.000

@<SCITEGIC>MOL_PROPERTY
Tether
SciTegic.value.DoubleValue
0.000

@<TRIPOS>MOLECULE
guest-s20_vm2.mol2 : vm2 ligand conformer 8
          17          16           1
SMALL
USER_CHARGES
 
@<TRIPOS>ATOM
       1    C1      20.163233   19.135127   25.145982 C.2        1 MOL1         0.6132
       2    O1      21.273291   19.566014   25.388718 O.co2      1 MOL1        -0.6749
       3    O2      19.153161   19.535201   25.690682 O.co2      1 MOL1        -0.6749
       4    C2      20.029298   18.025819   24.110935 C.3        1 MOL1        -0.1955
       5    H1      19.307365   17.295654   24.494542 H          1 MOL1         0.0733
       6    H2      20.994722   17.511631   24.032075 H          1 MOL1         0.0733
       7    C3      19.577449   18.544304   22.758983 C.2        1 MOL1        -0.1395
       8    H3      18.559420   18.931261   22.725897 H          1 MOL1         0.0816
       9    C4      20.342854   18.552218   21.663396 C.2        1 MOL1        -0.1394
      10    H4      21.362496   18.169896   21.698316 H          1 MOL1         0.0816
      11    C5      19.891334   19.072368   20.316953 C.3        1 MOL1        -0.1826
      12    H5      20.138925   18.341801   19.534974 H          1 MOL1         0.0736
      13    H6      18.799718   19.195908   20.298978 H          1 MOL1         0.0736
      14    C6      20.562380   20.420950   19.991350 C.3        1 MOL1        -0.2882
      15    H7      21.655147   20.318238   19.964278 H          1 MOL1         0.0749
      16    H8      20.230875   20.793999   19.013594 H          1 MOL1         0.0749
      17    H9      20.308579   21.175168   20.747935 H          1 MOL1         0.0749
@<TRIPOS>BOND
    1     1     2    1
    2     1     3    2
    3     1     4    1
    4     4     5    1
    5     4     6    1
    6     4     7    1
    7     7     8    1
    8     7     9    2
    9     9    10    1
   10     9    11    1
   11    11    12    1
   12    11    13    1
   13    11    14    1
   14    14    15    1
   15    14    16    1
   16    14    17    1
@<TRIPOS>SUBSTRUCTURE
       1 MOL1            1 RESIDUE      1      MOL     
@<SCITEGIC>MOL_PROPERTY
VM2 Rank
SciTegic.value.IntegerValue
8

@<SCITEGIC>MOL_PROPERTY
Conf_Id
SciTegic.value.IntegerValue
52

@<SCITEGIC>MOL_PROPERTY
Probability
SciTegic.value.DoubleValue
9.33

@<SCITEGIC>MOL_PROPERTY
Sum Probability
SciTegic.value.DoubleValue
91.42

@<SCITEGIC>MOL_PROPERTY
Delta G
SciTegic.value.DoubleValue
0.254

@<SCITEGIC>MOL_PROPERTY
G
SciTegic.value.DoubleValue
-26.408

@<SCITEGIC>MOL_PROPERTY
E
SciTegic.value.DoubleValue
-36.054

@<SCITEGIC>MOL_PROPERTY
-TS
SciTegic.value.DoubleValue
9.646

@<SCITEGIC>MOL_PROPERTY
U+W
SciTegic.value.DoubleValue
-49.468

@<SCITEGIC>MOL_PROPERTY
U
SciTegic.value.DoubleValue
14.121

@<SCITEGIC>MOL_PROPERTY
W
SciTegic.value.DoubleValue
-63.589

@<SCITEGIC>MOL_PROPERTY
W(PB)
SciTegic.value.DoubleValue
-65.659

@<SCITEGIC>MOL_PROPERTY
W(SA)
SciTegic.value.DoubleValue
2.071

@<SCITEGIC>MOL_PROPERTY
Valence
SciTegic.value.DoubleValue
15.230

@<SCITEGIC>MOL_PROPERTY
Coulomb
SciTegic.value.DoubleValue
-1.333

@<SCITEGIC>MOL_PROPERTY
VdW
SciTegic.value.DoubleValue
0.224

@<SCITEGIC>MOL_PROPERTY
VdW6
SciTegic.value.DoubleValue
-4.212

@<SCITEGIC>MOL_PROPERTY
VdW12
SciTegic.value.DoubleValue
4.436

@<SCITEGIC>MOL_PROPERTY
Bond
SciTegic.value.DoubleValue
0.044

@<SCITEGIC>MOL_PROPERTY
Angle
SciTegic.value.DoubleValue
2.230

@<SCITEGIC>MOL_PROPERTY
Pdih
SciTegic.value.DoubleValue
12.956

@<SCITEGIC>MOL_PROPERTY
Idih
SciTegic.value.DoubleValue
0.000

@<SCITEGIC>MOL_PROPERTY
Tether
SciTegic.value.DoubleValue
0.000

