VeraChem MOL file


 29 28  0  0  0  0  0  0  0  0999 V2000     
   19.5306   19.9313   18.7439 C   0  0  0  0  0  0  0  0  0  0  0  0
   20.3586   20.6519   18.7240 H   0  0  0  0  0  0  0  0  0  0  0  0
   19.5232   19.3997   17.7835 H   0  0  0  0  0  0  0  0  0  0  0  0
   18.5906   20.4925   18.8259 H   0  0  0  0  0  0  0  0  0  0  0  0
   19.6877   18.9384   19.9150 C   0  0  0  0  0  0  0  0  0  0  0  0
   20.6190   18.3689   19.7877 H   0  0  0  0  0  0  0  0  0  0  0  0
   18.8646   18.2106   19.8888 H   0  0  0  0  0  0  0  0  0  0  0  0
   19.7011   19.6615   21.2799 C   0  0  0  0  0  0  0  0  0  0  0  0
   20.5239   20.3896   21.3005 H   0  0  0  0  0  0  0  0  0  0  0  0
   18.7694   20.2312   21.4015 H   0  0  0  0  0  0  0  0  0  0  0  0
   19.8584   18.6705   22.4551 C   0  0  0  0  0  0  0  0  0  0  0  0
   20.7897   18.1006   22.3314 H   0  0  0  0  0  0  0  0  0  0  0  0
   19.0351   17.9429   22.4339 H   0  0  0  0  0  0  0  0  0  0  0  0
   19.8724   19.3943   23.8204 C   0  0  0  0  0  0  0  0  0  0  0  0
   20.6981   20.1192   23.8421 H   0  0  0  0  0  0  0  0  0  0  0  0
   18.9418   19.9662   23.9337 H   0  0  0  0  0  0  0  0  0  0  0  0
   20.0289   18.3991   24.9958 C   0  0  0  0  0  0  0  0  0  0  0  0
   20.9354   17.8003   24.8354 H   0  0  0  0  0  0  0  0  0  0  0  0
   19.1855   17.6957   25.0018 H   0  0  0  0  0  0  0  0  0  0  0  0
   20.1314   19.0989   26.3682 C   0  0  2  0  0  0  0  0  0  0  0  0
   20.9619   19.8106   26.3292 H   0  0  0  0  0  0  0  0  0  0  0  0
   20.4281   18.0708   27.4715 C   0  0  0  0  0  0  0  0  0  0  0  0
   19.6208   17.3322   27.5534 H   0  0  0  0  0  0  0  0  0  0  0  0
   21.3623   17.5344   27.2636 H   0  0  0  0  0  0  0  0  0  0  0  0
   20.5384   18.5660   28.4442 H   0  0  0  0  0  0  0  0  0  0  0  0
   18.8975   19.8911   26.7041 N   0  3  0  0  0  0  0  0  0  0  0  0
   18.7120   20.6104   25.9999 H   0  0  0  0  0  0  0  0  0  0  0  0
   18.9909   20.3638   27.6077 H   0  0  0  0  0  0  0  0  0  0  0  0
   18.0710   19.2897   26.7566 H   0  0  0  0  0  0  0  0  0  0  0  0
  1  2  1  0  0  0  0
  1  3  1  0  0  0  0
  1  4  1  0  0  0  0
  1  5  1  0  0  0  0
  5  6  1  0  0  0  0
  5  7  1  0  0  0  0
  5  8  1  0  0  0  0
  8  9  1  0  0  0  0
  8 10  1  0  0  0  0
  8 11  1  0  0  0  0
 11 12  1  0  0  0  0
 11 13  1  0  0  0  0
 11 14  1  0  0  0  0
 14 15  1  0  0  0  0
 14 16  1  0  0  0  0
 14 17  1  0  0  0  0
 17 18  1  0  0  0  0
 17 19  1  0  0  0  0
 17 20  1  0  0  0  0
 20 21  1  0  0  0  0
 20 22  1  0  0  0  0
 22 23  1  0  0  0  0
 22 24  1  0  0  0  0
 22 25  1  0  0  0  0
 20 26  1  0  0  0  0
 26 27  1  0  0  0  0
 26 28  1  0  0  0  0
 26 29  1  0  0  0  0
M  END
> <VM2 Rank>
1

> <Conf_Id>
715

> <Probability>
10.34

> <Sum Probability>
10.34

> <Delta G>
0.000

> <G>
33.702

> <E>
-3.682

> <-TS>
37.385

> <U+W>
-27.827

> <U>
23.963

> <W>
-51.787

> <W(PB)>
-54.341

> <W(SA)>
2.554

> <Valence>
3.166

> <Coulomb>
19.734

> <VdW>
1.062

> <VdW6>
-7.938

> <VdW12>
9.001

> <Bond>
0.188

> <Angle>
0.880

> <Pdih>
2.098

> <Idih>
0.000

> <Tether>
0.000

$$$$
VeraChem MOL file


 29 28  0  0  0  0  0  0  0  0999 V2000     
   19.0308   19.3522   18.8498 C   0  0  0  0  0  0  0  0  0  0  0  0
   19.5318   19.4841   17.8820 H   0  0  0  0  0  0  0  0  0  0  0  0
   18.5004   18.3913   18.8267 H   0  0  0  0  0  0  0  0  0  0  0  0
   18.2857   20.1516   18.9554 H   0  0  0  0  0  0  0  0  0  0  0  0
   20.0549   19.3928   20.0036 C   0  0  0  0  0  0  0  0  0  0  0  0
   20.5926   20.3511   19.9804 H   0  0  0  0  0  0  0  0  0  0  0  0
   20.8055   18.6043   19.8528 H   0  0  0  0  0  0  0  0  0  0  0  0
   19.3751   19.2095   21.3785 C   0  0  0  0  0  0  0  0  0  0  0  0
   18.6243   19.9985   21.5238 H   0  0  0  0  0  0  0  0  0  0  0  0
   18.8370   18.2516   21.3959 H   0  0  0  0  0  0  0  0  0  0  0  0
   20.3977   19.2492   22.5364 C   0  0  0  0  0  0  0  0  0  0  0  0
   20.9355   20.2073   22.5174 H   0  0  0  0  0  0  0  0  0  0  0  0
   21.1482   18.4601   22.3898 H   0  0  0  0  0  0  0  0  0  0  0  0
   19.7173   19.0656   23.9118 C   0  0  0  0  0  0  0  0  0  0  0  0
   18.9679   19.8559   24.0512 H   0  0  0  0  0  0  0  0  0  0  0  0
   19.1791   18.1087   23.9191 H   0  0  0  0  0  0  0  0  0  0  0  0
   20.7490   19.1031   25.0692 C   0  0  0  0  0  0  0  0  0  0  0  0
   21.3131   20.0438   25.0189 H   0  0  0  0  0  0  0  0  0  0  0  0
   21.4854   18.3015   24.9249 H   0  0  0  0  0  0  0  0  0  0  0  0
   20.1434   18.9722   26.4866 C   0  0  2  0  0  0  0  0  0  0  0  0
   20.9693   19.0447   27.2010 H   0  0  0  0  0  0  0  0  0  0  0  0
   19.4613   17.6099   26.7012 C   0  0  0  0  0  0  0  0  0  0  0  0
   18.5612   17.5050   26.0839 H   0  0  0  0  0  0  0  0  0  0  0  0
   20.1453   16.7883   26.4550 H   0  0  0  0  0  0  0  0  0  0  0  0
   19.1634   17.4914   27.7502 H   0  0  0  0  0  0  0  0  0  0  0  0
   19.2066   20.1014   26.8169 N   0  3  0  0  0  0  0  0  0  0  0  0
   18.3912   20.0999   26.1990 H   0  0  0  0  0  0  0  0  0  0  0  0
   19.6664   21.0113   26.7196 H   0  0  0  0  0  0  0  0  0  0  0  0
   18.8632   20.0332   27.7793 H   0  0  0  0  0  0  0  0  0  0  0  0
  1  2  1  0  0  0  0
  1  3  1  0  0  0  0
  1  4  1  0  0  0  0
  1  5  1  0  0  0  0
  5  6  1  0  0  0  0
  5  7  1  0  0  0  0
  5  8  1  0  0  0  0
  8  9  1  0  0  0  0
  8 10  1  0  0  0  0
  8 11  1  0  0  0  0
 11 12  1  0  0  0  0
 11 13  1  0  0  0  0
 11 14  1  0  0  0  0
 14 15  1  0  0  0  0
 14 16  1  0  0  0  0
 14 17  1  0  0  0  0
 17 18  1  0  0  0  0
 17 19  1  0  0  0  0
 17 20  1  0  0  0  0
 20 21  1  0  0  0  0
 20 22  1  0  0  0  0
 22 23  1  0  0  0  0
 22 24  1  0  0  0  0
 22 25  1  0  0  0  0
 20 26  1  0  0  0  0
 26 27  1  0  0  0  0
 26 28  1  0  0  0  0
 26 29  1  0  0  0  0
M  END
> <VM2 Rank>
2

> <Conf_Id>
441

> <Probability>
5.07

> <Sum Probability>
15.41

> <Delta G>
0.424

> <G>
34.126

> <E>
-3.404

> <-TS>
37.530

> <U+W>
-27.549

> <U>
24.513

> <W>
-52.062

> <W(PB)>
-54.559

> <W(SA)>
2.497

> <Valence>
3.677

> <Coulomb>
19.662

> <VdW>
1.174

> <VdW6>
-8.570

> <VdW12>
9.743

> <Bond>
0.224

> <Angle>
1.211

> <Pdih>
2.243

> <Idih>
0.000

> <Tether>
0.000

$$$$
VeraChem MOL file


 29 28  0  0  0  0  0  0  0  0999 V2000     
   20.2031   19.4673   18.6904 C   0  0  0  0  0  0  0  0  0  0  0  0
   20.5985   20.4914   18.7045 H   0  0  0  0  0  0  0  0  0  0  0  0
   21.0525   18.7734   18.6438 H   0  0  0  0  0  0  0  0  0  0  0  0
   19.6169   19.3449   17.7704 H   0  0  0  0  0  0  0  0  0  0  0  0
   19.3302   19.1928   19.9333 C   0  0  0  0  0  0  0  0  0  0  0  0
   18.9221   18.1741   19.8744 H   0  0  0  0  0  0  0  0  0  0  0  0
   18.4716   19.8789   19.9345 H   0  0  0  0  0  0  0  0  0  0  0  0
   20.1320   19.3585   21.2431 C   0  0  0  0  0  0  0  0  0  0  0  0
   20.9904   18.6726   21.2360 H   0  0  0  0  0  0  0  0  0  0  0  0
   20.5398   20.3775   21.2964 H   0  0  0  0  0  0  0  0  0  0  0  0
   19.2613   19.0843   22.4899 C   0  0  0  0  0  0  0  0  0  0  0  0
   18.8541   18.0651   22.4360 H   0  0  0  0  0  0  0  0  0  0  0  0
   18.4026   19.7701   22.4947 H   0  0  0  0  0  0  0  0  0  0  0  0
   20.0638   19.2507   23.8002 C   0  0  0  0  0  0  0  0  0  0  0  0
   20.9233   18.5679   23.7813 H   0  0  0  0  0  0  0  0  0  0  0  0
   20.4666   20.2716   23.8563 H   0  0  0  0  0  0  0  0  0  0  0  0
   19.1902   18.9708   25.0478 C   0  0  0  0  0  0  0  0  0  0  0  0
   18.8392   17.9305   25.0284 H   0  0  0  0  0  0  0  0  0  0  0  0
   18.2937   19.6028   24.9953 H   0  0  0  0  0  0  0  0  0  0  0  0
   19.9086   19.2524   26.3872 C   0  0  2  0  0  0  0  0  0  0  0  0
   20.2851   20.2797   26.3655 H   0  0  0  0  0  0  0  0  0  0  0  0
   21.0972   18.3024   26.6195 C   0  0  0  0  0  0  0  0  0  0  0  0
   20.7789   17.2530   26.5862 H   0  0  0  0  0  0  0  0  0  0  0  0
   21.8787   18.4491   25.8651 H   0  0  0  0  0  0  0  0  0  0  0  0
   21.5542   18.4881   27.5993 H   0  0  0  0  0  0  0  0  0  0  0  0
   18.9496   19.1767   27.5426 N   0  3  0  0  0  0  0  0  0  0  0  0
   19.4123   19.4013   28.4281 H   0  0  0  0  0  0  0  0  0  0  0  0
   18.5499   18.2390   27.6361 H   0  0  0  0  0  0  0  0  0  0  0  0
   18.1715   19.8332   27.4306 H   0  0  0  0  0  0  0  0  0  0  0  0
  1  2  1  0  0  0  0
  1  3  1  0  0  0  0
  1  4  1  0  0  0  0
  1  5  1  0  0  0  0
  5  6  1  0  0  0  0
  5  7  1  0  0  0  0
  5  8  1  0  0  0  0
  8  9  1  0  0  0  0
  8 10  1  0  0  0  0
  8 11  1  0  0  0  0
 11 12  1  0  0  0  0
 11 13  1  0  0  0  0
 11 14  1  0  0  0  0
 14 15  1  0  0  0  0
 14 16  1  0  0  0  0
 14 17  1  0  0  0  0
 17 18  1  0  0  0  0
 17 19  1  0  0  0  0
 17 20  1  0  0  0  0
 20 21  1  0  0  0  0
 20 22  1  0  0  0  0
 22 23  1  0  0  0  0
 22 24  1  0  0  0  0
 22 25  1  0  0  0  0
 20 26  1  0  0  0  0
 26 27  1  0  0  0  0
 26 28  1  0  0  0  0
 26 29  1  0  0  0  0
M  END
> <VM2 Rank>
3

> <Conf_Id>
58

> <Probability>
5.05

> <Sum Probability>
20.46

> <Delta G>
0.427

> <G>
34.129

> <E>
-3.270

> <-TS>
37.399

> <U+W>
-27.414

> <U>
24.279

> <W>
-51.694

> <W(PB)>
-54.271

> <W(SA)>
2.577

> <Valence>
3.709

> <Coulomb>
19.380

> <VdW>
1.191

> <VdW6>
-8.093

> <VdW12>
9.284

> <Bond>
0.200

> <Angle>
1.161

> <Pdih>
2.348

> <Idih>
0.000

> <Tether>
0.000

$$$$
VeraChem MOL file


 29 28  0  0  0  0  0  0  0  0999 V2000     
   18.8286   18.7944   19.4039 C   0  0  0  0  0  0  0  0  0  0  0  0
   17.9438   19.4300   19.5384 H   0  0  0  0  0  0  0  0  0  0  0  0
   18.8813   18.5120   18.3444 H   0  0  0  0  0  0  0  0  0  0  0  0
   18.6829   17.8743   19.9832 H   0  0  0  0  0  0  0  0  0  0  0  0
   20.1156   19.5361   19.8304 C   0  0  0  0  0  0  0  0  0  0  0  0
   20.2824   20.3786   19.1447 H   0  0  0  0  0  0  0  0  0  0  0  0
   20.9818   18.8696   19.7151 H   0  0  0  0  0  0  0  0  0  0  0  0
   20.0616   20.0783   21.2790 C   0  0  0  0  0  0  0  0  0  0  0  0
   20.9618   20.6820   21.4590 H   0  0  0  0  0  0  0  0  0  0  0  0
   19.2062   20.7598   21.3838 H   0  0  0  0  0  0  0  0  0  0  0  0
   19.9771   18.9655   22.3510 C   0  0  0  0  0  0  0  0  0  0  0  0
   20.8047   18.2568   22.2093 H   0  0  0  0  0  0  0  0  0  0  0  0
   19.0455   18.3976   22.2275 H   0  0  0  0  0  0  0  0  0  0  0  0
   20.0309   19.5438   23.7832 C   0  0  0  0  0  0  0  0  0  0  0  0
   20.9659   20.1055   23.9168 H   0  0  0  0  0  0  0  0  0  0  0  0
   19.2071   20.2582   23.9131 H   0  0  0  0  0  0  0  0  0  0  0  0
   19.9408   18.4306   24.8551 C   0  0  0  0  0  0  0  0  0  0  0  0
   20.7389   17.6982   24.6739 H   0  0  0  0  0  0  0  0  0  0  0  0
   18.9902   17.8906   24.7512 H   0  0  0  0  0  0  0  0  0  0  0  0
   20.0775   18.9690   26.2957 C   0  0  2  0  0  0  0  0  0  0  0  0
   21.0190   19.5222   26.3673 H   0  0  0  0  0  0  0  0  0  0  0  0
   20.1237   17.8056   27.2990 C   0  0  0  0  0  0  0  0  0  0  0  0
   20.2574   18.1796   28.3215 H   0  0  0  0  0  0  0  0  0  0  0  0
   19.1976   17.2178   27.2682 H   0  0  0  0  0  0  0  0  0  0  0  0
   20.9624   17.1336   27.0784 H   0  0  0  0  0  0  0  0  0  0  0  0
   18.9803   19.9328   26.6566 N   0  3  0  0  0  0  0  0  0  0  0  0
   18.9654   20.7364   26.0228 H   0  0  0  0  0  0  0  0  0  0  0  0
   19.0979   20.2946   27.6074 H   0  0  0  0  0  0  0  0  0  0  0  0
   18.0609   19.4856   26.6100 H   0  0  0  0  0  0  0  0  0  0  0  0
  1  2  1  0  0  0  0
  1  3  1  0  0  0  0
  1  4  1  0  0  0  0
  1  5  1  0  0  0  0
  5  6  1  0  0  0  0
  5  7  1  0  0  0  0
  5  8  1  0  0  0  0
  8  9  1  0  0  0  0
  8 10  1  0  0  0  0
  8 11  1  0  0  0  0
 11 12  1  0  0  0  0
 11 13  1  0  0  0  0
 11 14  1  0  0  0  0
 14 15  1  0  0  0  0
 14 16  1  0  0  0  0
 14 17  1  0  0  0  0
 17 18  1  0  0  0  0
 17 19  1  0  0  0  0
 17 20  1  0  0  0  0
 20 21  1  0  0  0  0
 20 22  1  0  0  0  0
 22 23  1  0  0  0  0
 22 24  1  0  0  0  0
 22 25  1  0  0  0  0
 20 26  1  0  0  0  0
 26 27  1  0  0  0  0
 26 28  1  0  0  0  0
 26 29  1  0  0  0  0
M  END
> <VM2 Rank>
4

> <Conf_Id>
1629

> <Probability>
3.88

> <Sum Probability>
24.34

> <Delta G>
0.584

> <G>
34.287

> <E>
-3.209

> <-TS>
37.496

> <U+W>
-27.354

> <U>
24.589

> <W>
-51.942

> <W(PB)>
-54.477

> <W(SA)>
2.535

> <Valence>
3.670

> <Coulomb>
19.723

> <VdW>
1.196

> <VdW6>
-8.561

> <VdW12>
9.756

> <Bond>
0.223

> <Angle>
1.119

> <Pdih>
2.328

> <Idih>
0.000

> <Tether>
0.000

$$$$
VeraChem MOL file


 29 28  0  0  0  0  0  0  0  0999 V2000     
   20.4854   18.8969   19.3013 C   0  0  0  0  0  0  0  0  0  0  0  0
   21.2784   19.6554   19.3313 H   0  0  0  0  0  0  0  0  0  0  0  0
   20.8280   18.0183   19.8619 H   0  0  0  0  0  0  0  0  0  0  0  0
   20.3537   18.5900   18.2556 H   0  0  0  0  0  0  0  0  0  0  0  0
   19.1617   19.4540   19.8721 C   0  0  0  0  0  0  0  0  0  0  0  0
   18.3938   18.6679   19.8592 H   0  0  0  0  0  0  0  0  0  0  0  0
   18.7975   20.2506   19.2083 H   0  0  0  0  0  0  0  0  0  0  0  0
   19.3013   20.0258   21.3035 C   0  0  0  0  0  0  0  0  0  0  0  0
   20.0555   20.8249   21.3072 H   0  0  0  0  0  0  0  0  0  0  0  0
   18.3496   20.4976   21.5846 H   0  0  0  0  0  0  0  0  0  0  0  0
   19.6677   18.9573   22.3612 C   0  0  0  0  0  0  0  0  0  0  0  0
   20.6508   18.5262   22.1311 H   0  0  0  0  0  0  0  0  0  0  0  0
   18.9402   18.1350   22.3190 H   0  0  0  0  0  0  0  0  0  0  0  0
   19.6952   19.5493   23.7885 C   0  0  0  0  0  0  0  0  0  0  0  0
   20.4230   20.3717   23.8293 H   0  0  0  0  0  0  0  0  0  0  0  0
   18.7119   19.9807   24.0183 H   0  0  0  0  0  0  0  0  0  0  0  0
   20.0645   18.4806   24.8459 C   0  0  0  0  0  0  0  0  0  0  0  0
   21.0241   18.0241   24.5688 H   0  0  0  0  0  0  0  0  0  0  0  0
   19.3190   17.6743   24.8351 H   0  0  0  0  0  0  0  0  0  0  0  0
   20.1827   19.0599   26.2722 C   0  0  2  0  0  0  0  0  0  0  0  0
   20.9119   19.8757   26.2517 H   0  0  0  0  0  0  0  0  0  0  0  0
   20.6891   17.9839   27.2458 C   0  0  0  0  0  0  0  0  0  0  0  0
   19.9895   17.1407   27.3045 H   0  0  0  0  0  0  0  0  0  0  0  0
   21.6647   17.5968   26.9260 H   0  0  0  0  0  0  0  0  0  0  0  0
   20.8102   18.3986   28.2541 H   0  0  0  0  0  0  0  0  0  0  0  0
   18.8884   19.6482   26.7637 N   0  3  0  0  0  0  0  0  0  0  0  0
   18.9903   20.0449   27.7023 H   0  0  0  0  0  0  0  0  0  0  0  0
   18.1503   18.9406   26.8082 H   0  0  0  0  0  0  0  0  0  0  0  0
   18.5610   20.3977   26.1483 H   0  0  0  0  0  0  0  0  0  0  0  0
  1  2  1  0  0  0  0
  1  3  1  0  0  0  0
  1  4  1  0  0  0  0
  1  5  1  0  0  0  0
  5  6  1  0  0  0  0
  5  7  1  0  0  0  0
  5  8  1  0  0  0  0
  8  9  1  0  0  0  0
  8 10  1  0  0  0  0
  8 11  1  0  0  0  0
 11 12  1  0  0  0  0
 11 13  1  0  0  0  0
 11 14  1  0  0  0  0
 14 15  1  0  0  0  0
 14 16  1  0  0  0  0
 14 17  1  0  0  0  0
 17 18  1  0  0  0  0
 17 19  1  0  0  0  0
 17 20  1  0  0  0  0
 20 21  1  0  0  0  0
 20 22  1  0  0  0  0
 22 23  1  0  0  0  0
 22 24  1  0  0  0  0
 22 25  1  0  0  0  0
 20 26  1  0  0  0  0
 26 27  1  0  0  0  0
 26 28  1  0  0  0  0
 26 29  1  0  0  0  0
M  END
> <VM2 Rank>
5

> <Conf_Id>
1243

> <Probability>
3.83

> <Sum Probability>
28.17

> <Delta G>
0.591

> <G>
34.293

> <E>
-3.202

> <-TS>
37.495

> <U+W>
-27.346

> <U>
24.574

> <W>
-51.920

> <W(PB)>
-54.457

> <W(SA)>
2.537

> <Valence>
3.669

> <Coulomb>
19.705

> <VdW>
1.200

> <VdW6>
-8.560

> <VdW12>
9.760

> <Bond>
0.223

> <Angle>
1.119

> <Pdih>
2.327

> <Idih>
0.000

> <Tether>
0.000

$$$$
VeraChem MOL file


 29 28  0  0  0  0  0  0  0  0999 V2000     
   20.6750   18.9877   19.1354 C   0  0  0  0  0  0  0  0  0  0  0  0
   20.3357   18.8402   18.1019 H   0  0  0  0  0  0  0  0  0  0  0  0
   21.3260   19.8715   19.1535 H   0  0  0  0  0  0  0  0  0  0  0  0
   21.2759   18.1144   19.4208 H   0  0  0  0  0  0  0  0  0  0  0  0
   19.4708   19.1666   20.0839 C   0  0  0  0  0  0  0  0  0  0  0  0
   18.8214   18.2823   20.0197 H   0  0  0  0  0  0  0  0  0  0  0  0
   18.8707   20.0256   19.7525 H   0  0  0  0  0  0  0  0  0  0  0  0
   19.9211   19.3772   21.5465 C   0  0  0  0  0  0  0  0  0  0  0  0
   20.5270   18.5174   21.8603 H   0  0  0  0  0  0  0  0  0  0  0  0
   20.5678   20.2635   21.6058 H   0  0  0  0  0  0  0  0  0  0  0  0
   18.7137   19.5521   22.4989 C   0  0  0  0  0  0  0  0  0  0  0  0
   18.0965   18.6432   22.4866 H   0  0  0  0  0  0  0  0  0  0  0  0
   18.0758   20.3625   22.1197 H   0  0  0  0  0  0  0  0  0  0  0  0
   19.1143   19.8878   23.9567 C   0  0  0  0  0  0  0  0  0  0  0  0
   19.7293   20.7984   23.9681 H   0  0  0  0  0  0  0  0  0  0  0  0
   18.1985   20.1264   24.5131 H   0  0  0  0  0  0  0  0  0  0  0  0
   19.8699   18.7379   24.6716 C   0  0  0  0  0  0  0  0  0  0  0  0
   20.7969   18.5194   24.1273 H   0  0  0  0  0  0  0  0  0  0  0  0
   19.2649   17.8220   24.6440 H   0  0  0  0  0  0  0  0  0  0  0  0
   20.2342   19.0751   26.1339 C   0  0  2  0  0  0  0  0  0  0  0  0
   20.8046   20.0091   26.1387 H   0  0  0  0  0  0  0  0  0  0  0  0
   21.1160   17.9681   26.7336 C   0  0  0  0  0  0  0  0  0  0  0  0
   22.0356   17.8419   26.1485 H   0  0  0  0  0  0  0  0  0  0  0  0
   21.4076   18.2178   27.7612 H   0  0  0  0  0  0  0  0  0  0  0  0
   20.5881   17.0064   26.7520 H   0  0  0  0  0  0  0  0  0  0  0  0
   19.0210   19.3034   26.9936 N   0  3  0  0  0  0  0  0  0  0  0  0
   18.4311   18.4680   27.0355 H   0  0  0  0  0  0  0  0  0  0  0  0
   18.4460   20.0697   26.6334 H   0  0  0  0  0  0  0  0  0  0  0  0
   19.2830   19.5426   27.9542 H   0  0  0  0  0  0  0  0  0  0  0  0
  1  2  1  0  0  0  0
  1  3  1  0  0  0  0
  1  4  1  0  0  0  0
  1  5  1  0  0  0  0
  5  6  1  0  0  0  0
  5  7  1  0  0  0  0
  5  8  1  0  0  0  0
  8  9  1  0  0  0  0
  8 10  1  0  0  0  0
  8 11  1  0  0  0  0
 11 12  1  0  0  0  0
 11 13  1  0  0  0  0
 11 14  1  0  0  0  0
 14 15  1  0  0  0  0
 14 16  1  0  0  0  0
 14 17  1  0  0  0  0
 17 18  1  0  0  0  0
 17 19  1  0  0  0  0
 17 20  1  0  0  0  0
 20 21  1  0  0  0  0
 20 22  1  0  0  0  0
 22 23  1  0  0  0  0
 22 24  1  0  0  0  0
 22 25  1  0  0  0  0
 20 26  1  0  0  0  0
 26 27  1  0  0  0  0
 26 28  1  0  0  0  0
 26 29  1  0  0  0  0
M  END
> <VM2 Rank>
6

> <Conf_Id>
986

> <Probability>
3.47

> <Sum Probability>
31.64

> <Delta G>
0.651

> <G>
34.353

> <E>
-3.102

> <-TS>
37.455

> <U+W>
-27.247

> <U>
24.711

> <W>
-51.957

> <W(PB)>
-54.510

> <W(SA)>
2.553

> <Valence>
3.735

> <Coulomb>
19.760

> <VdW>
1.216

> <VdW6>
-8.624

> <VdW12>
9.840

> <Bond>
0.236

> <Angle>
1.168

> <Pdih>
2.331

> <Idih>
0.000

> <Tether>
0.000

$$$$
VeraChem MOL file


 29 28  0  0  0  0  0  0  0  0999 V2000     
   19.7045   20.0255   19.0213 C   0  0  0  0  0  0  0  0  0  0  0  0
   19.2423   19.1299   18.5858 H   0  0  0  0  0  0  0  0  0  0  0  0
   18.9303   20.7980   19.1164 H   0  0  0  0  0  0  0  0  0  0  0  0
   20.4611   20.3916   18.3152 H   0  0  0  0  0  0  0  0  0  0  0  0
   20.3440   19.7098   20.3899 C   0  0  0  0  0  0  0  0  0  0  0  0
   20.8267   20.6150   20.7842 H   0  0  0  0  0  0  0  0  0  0  0  0
   21.1363   18.9597   20.2578 H   0  0  0  0  0  0  0  0  0  0  0  0
   19.2995   19.1920   21.4033 C   0  0  0  0  0  0  0  0  0  0  0  0
   18.5086   19.9442   21.5305 H   0  0  0  0  0  0  0  0  0  0  0  0
   18.8179   18.2890   21.0033 H   0  0  0  0  0  0  0  0  0  0  0  0
   19.9363   18.8743   22.7749 C   0  0  0  0  0  0  0  0  0  0  0  0
   20.4224   19.7790   23.1635 H   0  0  0  0  0  0  0  0  0  0  0  0
   20.7242   18.1193   22.6463 H   0  0  0  0  0  0  0  0  0  0  0  0
   18.8871   18.3578   23.7884 C   0  0  0  0  0  0  0  0  0  0  0  0
   18.1091   19.1181   23.9389 H   0  0  0  0  0  0  0  0  0  0  0  0
   18.3772   17.4826   23.3625 H   0  0  0  0  0  0  0  0  0  0  0  0
   19.5032   17.9515   25.1516 C   0  0  0  0  0  0  0  0  0  0  0  0
   20.2036   17.1214   24.9890 H   0  0  0  0  0  0  0  0  0  0  0  0
   18.7089   17.5594   25.8006 H   0  0  0  0  0  0  0  0  0  0  0  0
   20.2407   19.0964   25.8814 C   0  0  2  0  0  0  0  0  0  0  0  0
   21.0408   19.4615   25.2308 H   0  0  0  0  0  0  0  0  0  0  0  0
   20.8785   18.5794   27.1805 C   0  0  0  0  0  0  0  0  0  0  0  0
   21.4368   19.3784   27.6836 H   0  0  0  0  0  0  0  0  0  0  0  0
   20.1166   18.2048   27.8754 H   0  0  0  0  0  0  0  0  0  0  0  0
   21.5812   17.7631   26.9713 H   0  0  0  0  0  0  0  0  0  0  0  0
   19.3422   20.2693   26.1627 N   0  3  0  0  0  0  0  0  0  0  0  0
   18.9411   20.6448   25.2990 H   0  0  0  0  0  0  0  0  0  0  0  0
   19.8512   21.0297   26.6225 H   0  0  0  0  0  0  0  0  0  0  0  0
   18.5657   20.0052   26.7749 H   0  0  0  0  0  0  0  0  0  0  0  0
  1  2  1  0  0  0  0
  1  3  1  0  0  0  0
  1  4  1  0  0  0  0
  1  5  1  0  0  0  0
  5  6  1  0  0  0  0
  5  7  1  0  0  0  0
  5  8  1  0  0  0  0
  8  9  1  0  0  0  0
  8 10  1  0  0  0  0
  8 11  1  0  0  0  0
 11 12  1  0  0  0  0
 11 13  1  0  0  0  0
 11 14  1  0  0  0  0
 14 15  1  0  0  0  0
 14 16  1  0  0  0  0
 14 17  1  0  0  0  0
 17 18  1  0  0  0  0
 17 19  1  0  0  0  0
 17 20  1  0  0  0  0
 20 21  1  0  0  0  0
 20 22  1  0  0  0  0
 22 23  1  0  0  0  0
 22 24  1  0  0  0  0
 22 25  1  0  0  0  0
 20 26  1  0  0  0  0
 26 27  1  0  0  0  0
 26 28  1  0  0  0  0
 26 29  1  0  0  0  0
M  END
> <VM2 Rank>
7

> <Conf_Id>
1223

> <Probability>
3.44

> <Sum Probability>
35.08

> <Delta G>
0.656

> <G>
34.358

> <E>
-3.220

> <-TS>
37.578

> <U+W>
-27.365

> <U>
24.672

> <W>
-52.037

> <W(PB)>
-54.587

> <W(SA)>
2.550

> <Valence>
3.465

> <Coulomb>
20.280

> <VdW>
0.927

> <VdW6>
-8.843

> <VdW12>
9.770

> <Bond>
0.217

> <Angle>
1.094

> <Pdih>
2.153

> <Idih>
0.000

> <Tether>
0.000

$$$$
VeraChem MOL file


 29 28  0  0  0  0  0  0  0  0999 V2000     
   18.6216   18.9169   19.2919 C   0  0  0  0  0  0  0  0  0  0  0  0
   17.8748   19.7128   19.4098 H   0  0  0  0  0  0  0  0  0  0  0  0
   18.8573   18.8314   18.2232 H   0  0  0  0  0  0  0  0  0  0  0  0
   18.1669   17.9708   19.6134 H   0  0  0  0  0  0  0  0  0  0  0  0
   19.8948   19.2259   20.1076 C   0  0  0  0  0  0  0  0  0  0  0  0
   20.3454   20.1585   19.7402 H   0  0  0  0  0  0  0  0  0  0  0  0
   20.6349   18.4301   19.9440 H   0  0  0  0  0  0  0  0  0  0  0  0
   19.5905   19.3521   21.6168 C   0  0  0  0  0  0  0  0  0  0  0  0
   18.8519   20.1499   21.7755 H   0  0  0  0  0  0  0  0  0  0  0  0
   19.1330   18.4183   21.9687 H   0  0  0  0  0  0  0  0  0  0  0  0
   20.8673   19.6578   22.4362 C   0  0  0  0  0  0  0  0  0  0  0  0
   21.3525   20.5525   22.0221 H   0  0  0  0  0  0  0  0  0  0  0  0
   21.5872   18.8358   22.3211 H   0  0  0  0  0  0  0  0  0  0  0  0
   20.5927   19.9007   23.9405 C   0  0  0  0  0  0  0  0  0  0  0  0
   21.5311   20.2134   24.4191 H   0  0  0  0  0  0  0  0  0  0  0  0
   19.8939   20.7411   24.0481 H   0  0  0  0  0  0  0  0  0  0  0  0
   20.0437   18.6517   24.6762 C   0  0  0  0  0  0  0  0  0  0  0  0
   20.7003   17.7973   24.4647 H   0  0  0  0  0  0  0  0  0  0  0  0
   19.0507   18.3900   24.2894 H   0  0  0  0  0  0  0  0  0  0  0  0
   19.9584   18.8475   26.2052 C   0  0  2  0  0  0  0  0  0  0  0  0
   20.9521   19.1233   26.5716 H   0  0  0  0  0  0  0  0  0  0  0  0
   19.5378   17.5373   26.8897 C   0  0  0  0  0  0  0  0  0  0  0  0
   18.5424   17.2173   26.5572 H   0  0  0  0  0  0  0  0  0  0  0  0
   20.2488   16.7331   26.6625 H   0  0  0  0  0  0  0  0  0  0  0  0
   19.5113   17.6597   27.9795 H   0  0  0  0  0  0  0  0  0  0  0  0
   19.0292   19.9661   26.5900 N   0  3  0  0  0  0  0  0  0  0  0  0
   19.0015   20.0969   27.6053 H   0  0  0  0  0  0  0  0  0  0  0  0
   18.0723   19.7800   26.2783 H   0  0  0  0  0  0  0  0  0  0  0  0
   19.3222   20.8544   26.1744 H   0  0  0  0  0  0  0  0  0  0  0  0
  1  2  1  0  0  0  0
  1  3  1  0  0  0  0
  1  4  1  0  0  0  0
  1  5  1  0  0  0  0
  5  6  1  0  0  0  0
  5  7  1  0  0  0  0
  5  8  1  0  0  0  0
  8  9  1  0  0  0  0
  8 10  1  0  0  0  0
  8 11  1  0  0  0  0
 11 12  1  0  0  0  0
 11 13  1  0  0  0  0
 11 14  1  0  0  0  0
 14 15  1  0  0  0  0
 14 16  1  0  0  0  0
 14 17  1  0  0  0  0
 17 18  1  0  0  0  0
 17 19  1  0  0  0  0
 17 20  1  0  0  0  0
 20 21  1  0  0  0  0
 20 22  1  0  0  0  0
 22 23  1  0  0  0  0
 22 24  1  0  0  0  0
 22 25  1  0  0  0  0
 20 26  1  0  0  0  0
 26 27  1  0  0  0  0
 26 28  1  0  0  0  0
 26 29  1  0  0  0  0
M  END
> <VM2 Rank>
8

> <Conf_Id>
1132

> <Probability>
3.40

> <Sum Probability>
38.48

> <Delta G>
0.663

> <G>
34.365

> <E>
-3.137

> <-TS>
37.502

> <U+W>
-27.282

> <U>
24.741

> <W>
-52.022

> <W(PB)>
-54.547

> <W(SA)>
2.525

> <Valence>
3.693

> <Coulomb>
19.919

> <VdW>
1.129

> <VdW6>
-8.666

> <VdW12>
9.794

> <Bond>
0.229

> <Angle>
1.104

> <Pdih>
2.361

> <Idih>
0.000

> <Tether>
0.000

$$$$
