VeraChem MOL file


 20 19  0  0  0  0  0  0  0  0999 V2000     
   19.8544   19.1510   18.8170 C   0  0  0  0  0  0  0  0  0  0  0  0
   20.0357   20.2331   18.7809 H   0  0  0  0  0  0  0  0  0  0  0  0
   20.3379   18.6999   17.9408 H   0  0  0  0  0  0  0  0  0  0  0  0
   18.7732   18.9828   18.7279 H   0  0  0  0  0  0  0  0  0  0  0  0
   20.4072   18.5374   20.1216 C   0  0  0  0  0  0  0  0  0  0  0  0
   21.4948   18.6912   20.1651 H   0  0  0  0  0  0  0  0  0  0  0  0
   20.2421   17.4507   20.1126 H   0  0  0  0  0  0  0  0  0  0  0  0
   19.7440   19.1542   21.3727 C   0  0  0  0  0  0  0  0  0  0  0  0
   19.9122   20.2394   21.3827 H   0  0  0  0  0  0  0  0  0  0  0  0
   18.6579   18.9972   21.3302 H   0  0  0  0  0  0  0  0  0  0  0  0
   20.3006   18.5374   22.6694 C   0  0  0  0  0  0  0  0  0  0  0  0
   21.3792   18.7056   22.7224 H   0  0  0  0  0  0  0  0  0  0  0  0
   20.1208   17.4593   22.6697 H   0  0  0  0  0  0  0  0  0  0  0  0
   19.6775   19.1133   23.9259 N   0  3  0  0  0  0  0  0  0  0  0  0
   18.6546   18.9805   23.9099 H   0  0  0  0  0  0  0  0  0  0  0  0
   19.8196   20.1345   23.9586 H   0  0  0  0  0  0  0  0  0  0  0  0
   20.2824   18.4507   25.1565 C   0  0  0  0  0  0  0  0  0  0  0  0
   20.0902   17.3763   25.1179 H   0  0  0  0  0  0  0  0  0  0  0  0
   21.3591   18.6332   25.1710 H   0  0  0  0  0  0  0  0  0  0  0  0
   19.8251   18.8744   26.0534 H   0  0  0  0  0  0  0  0  0  0  0  0
  1  2  1  0  0  0  0
  1  3  1  0  0  0  0
  1  4  1  0  0  0  0
  1  5  1  0  0  0  0
  5  6  1  0  0  0  0
  5  7  1  0  0  0  0
  5  8  1  0  0  0  0
  8  9  1  0  0  0  0
  8 10  1  0  0  0  0
  8 11  1  0  0  0  0
 11 12  1  0  0  0  0
 11 13  1  0  0  0  0
 11 14  1  0  0  0  0
 14 15  1  0  0  0  0
 14 16  1  0  0  0  0
 14 17  1  0  0  0  0
 17 18  1  0  0  0  0
 17 19  1  0  0  0  0
 17 20  1  0  0  0  0
M  END
> <VM2 Rank>
1

> <Conf_Id>
295

> <Probability>
14.30

> <Sum Probability>
14.30

> <Delta G>
0.000

> <G>
53.936

> <E>
31.434

> <-TS>
22.502

> <U+W>
15.338

> <U>
69.277

> <W>
-53.939

> <W(PB)>
-55.889

> <W(SA)>
1.950

> <Valence>
0.846

> <Coulomb>
68.557

> <VdW>
-0.126

> <VdW6>
-3.008

> <VdW12>
2.882

> <Bond>
0.088

> <Angle>
0.332

> <Pdih>
0.426

> <Idih>
0.000

> <Tether>
0.000

$$$$
VeraChem MOL file


 20 19  0  0  0  0  0  0  0  0999 V2000     
   20.2446   19.5233   19.0575 C   0  0  0  0  0  0  0  0  0  0  0  0
   21.0842   20.2046   19.2476 H   0  0  0  0  0  0  0  0  0  0  0  0
   20.4070   19.0550   18.0781 H   0  0  0  0  0  0  0  0  0  0  0  0
   19.3264   20.1218   18.9958 H   0  0  0  0  0  0  0  0  0  0  0  0
   20.1367   18.4514   20.1636 C   0  0  0  0  0  0  0  0  0  0  0  0
   21.0551   17.8475   20.1778 H   0  0  0  0  0  0  0  0  0  0  0  0
   19.3111   17.7650   19.9276 H   0  0  0  0  0  0  0  0  0  0  0  0
   19.9076   19.0822   21.5548 C   0  0  0  0  0  0  0  0  0  0  0  0
   20.7341   19.7663   21.7862 H   0  0  0  0  0  0  0  0  0  0  0  0
   18.9879   19.6818   21.5410 H   0  0  0  0  0  0  0  0  0  0  0  0
   19.7993   18.0036   22.6525 C   0  0  0  0  0  0  0  0  0  0  0  0
   20.7299   17.4332   22.7055 H   0  0  0  0  0  0  0  0  0  0  0  0
   18.9936   17.3124   22.3922 H   0  0  0  0  0  0  0  0  0  0  0  0
   19.5005   18.5425   24.0421 N   0  3  0  0  0  0  0  0  0  0  0  0
   19.2823   17.7584   24.6768 H   0  0  0  0  0  0  0  0  0  0  0  0
   18.6431   19.1156   24.0265 H   0  0  0  0  0  0  0  0  0  0  0  0
   20.6774   19.3410   24.5924 C   0  0  0  0  0  0  0  0  0  0  0  0
   20.8598   20.2063   23.9521 H   0  0  0  0  0  0  0  0  0  0  0  0
   20.4393   19.6779   25.6038 H   0  0  0  0  0  0  0  0  0  0  0  0
   21.5642   18.7042   24.6162 H   0  0  0  0  0  0  0  0  0  0  0  0
  1  2  1  0  0  0  0
  1  3  1  0  0  0  0
  1  4  1  0  0  0  0
  1  5  1  0  0  0  0
  5  6  1  0  0  0  0
  5  7  1  0  0  0  0
  5  8  1  0  0  0  0
  8  9  1  0  0  0  0
  8 10  1  0  0  0  0
  8 11  1  0  0  0  0
 11 12  1  0  0  0  0
 11 13  1  0  0  0  0
 11 14  1  0  0  0  0
 14 15  1  0  0  0  0
 14 16  1  0  0  0  0
 14 17  1  0  0  0  0
 17 18  1  0  0  0  0
 17 19  1  0  0  0  0
 17 20  1  0  0  0  0
M  END
> <VM2 Rank>
2

> <Conf_Id>
257

> <Probability>
11.16

> <Sum Probability>
25.46

> <Delta G>
0.148

> <G>
54.084

> <E>
31.414

> <-TS>
22.670

> <U+W>
15.318

> <U>
69.657

> <W>
-54.338

> <W(PB)>
-56.237

> <W(SA)>
1.899

> <Valence>
1.137

> <Coulomb>
68.383

> <VdW>
0.138

> <VdW6>
-3.703

> <VdW12>
3.841

> <Bond>
0.125

> <Angle>
0.468

> <Pdih>
0.543

> <Idih>
0.000

> <Tether>
0.000

$$$$
VeraChem MOL file


 20 19  0  0  0  0  0  0  0  0999 V2000     
   19.4687   18.7548   19.0250 C   0  0  0  0  0  0  0  0  0  0  0  0
   19.9765   18.6288   18.0600 H   0  0  0  0  0  0  0  0  0  0  0  0
   18.7727   17.9152   19.1507 H   0  0  0  0  0  0  0  0  0  0  0  0
   18.8813   19.6811   18.9773 H   0  0  0  0  0  0  0  0  0  0  0  0
   20.4939   18.8052   20.1786 C   0  0  0  0  0  0  0  0  0  0  0  0
   21.1967   19.6327   20.0065 H   0  0  0  0  0  0  0  0  0  0  0  0
   21.0886   17.8807   20.1792 H   0  0  0  0  0  0  0  0  0  0  0  0
   19.8069   18.9825   21.5506 C   0  0  0  0  0  0  0  0  0  0  0  0
   19.2165   19.9083   21.5507 H   0  0  0  0  0  0  0  0  0  0  0  0
   19.1063   18.1543   21.7180 H   0  0  0  0  0  0  0  0  0  0  0  0
   20.8390   19.0332   22.6961 C   0  0  0  0  0  0  0  0  0  0  0  0
   21.5478   19.8416   22.4992 H   0  0  0  0  0  0  0  0  0  0  0  0
   21.3984   18.0951   22.7335 H   0  0  0  0  0  0  0  0  0  0  0  0
   20.2446   19.2793   24.0733 N   0  3  0  0  0  0  0  0  0  0  0  0
   19.6803   20.1426   24.0700 H   0  0  0  0  0  0  0  0  0  0  0  0
   21.0031   19.4623   24.7489 H   0  0  0  0  0  0  0  0  0  0  0  0
   19.4130   18.0890   24.5394 C   0  0  0  0  0  0  0  0  0  0  0  0
   20.0403   17.1951   24.5522 H   0  0  0  0  0  0  0  0  0  0  0  0
   19.0359   18.2881   25.5450 H   0  0  0  0  0  0  0  0  0  0  0  0
   18.5739   17.9429   23.8563 H   0  0  0  0  0  0  0  0  0  0  0  0
  1  2  1  0  0  0  0
  1  3  1  0  0  0  0
  1  4  1  0  0  0  0
  1  5  1  0  0  0  0
  5  6  1  0  0  0  0
  5  7  1  0  0  0  0
  5  8  1  0  0  0  0
  8  9  1  0  0  0  0
  8 10  1  0  0  0  0
  8 11  1  0  0  0  0
 11 12  1  0  0  0  0
 11 13  1  0  0  0  0
 11 14  1  0  0  0  0
 14 15  1  0  0  0  0
 14 16  1  0  0  0  0
 14 17  1  0  0  0  0
 17 18  1  0  0  0  0
 17 19  1  0  0  0  0
 17 20  1  0  0  0  0
M  END
> <VM2 Rank>
3

> <Conf_Id>
2

> <Probability>
9.60

> <Sum Probability>
35.07

> <Delta G>
0.237

> <G>
54.174

> <E>
31.503

> <-TS>
22.670

> <U+W>
15.407

> <U>
69.657

> <W>
-54.250

> <W(PB)>
-56.176

> <W(SA)>
1.926

> <Valence>
1.137

> <Coulomb>
68.383

> <VdW>
0.138

> <VdW6>
-3.703

> <VdW12>
3.841

> <Bond>
0.125

> <Angle>
0.468

> <Pdih>
0.543

> <Idih>
0.000

> <Tether>
0.000

$$$$
VeraChem MOL file


 20 19  0  0  0  0  0  0  0  0999 V2000     
   20.8667   19.3665   19.5193 C   0  0  0  0  0  0  0  0  0  0  0  0
   20.5576   20.4198   19.5219 H   0  0  0  0  0  0  0  0  0  0  0  0
   21.7364   19.2628   20.1803 H   0  0  0  0  0  0  0  0  0  0  0  0
   21.1934   19.1163   18.5016 H   0  0  0  0  0  0  0  0  0  0  0  0
   19.7057   18.4446   19.9580 C   0  0  0  0  0  0  0  0  0  0  0  0
   20.0430   17.3984   19.9527 H   0  0  0  0  0  0  0  0  0  0  0  0
   18.8958   18.5113   19.2180 H   0  0  0  0  0  0  0  0  0  0  0  0
   19.1424   18.8035   21.3530 C   0  0  0  0  0  0  0  0  0  0  0  0
   18.7742   19.8381   21.3461 H   0  0  0  0  0  0  0  0  0  0  0  0
   18.2763   18.1625   21.5643 H   0  0  0  0  0  0  0  0  0  0  0  0
   20.1840   18.6322   22.4760 C   0  0  0  0  0  0  0  0  0  0  0  0
   21.0330   19.2957   22.2953 H   0  0  0  0  0  0  0  0  0  0  0  0
   20.5484   17.6019   22.4843 H   0  0  0  0  0  0  0  0  0  0  0  0
   19.6383   18.9444   23.8556 N   0  3  0  0  0  0  0  0  0  0  0  0
   18.8280   18.3409   24.0637 H   0  0  0  0  0  0  0  0  0  0  0  0
   19.2747   19.9093   23.8852 H   0  0  0  0  0  0  0  0  0  0  0  0
   20.7289   18.7528   24.9011 C   0  0  0  0  0  0  0  0  0  0  0  0
   20.3227   18.9808   25.8891 H   0  0  0  0  0  0  0  0  0  0  0  0
   21.0743   17.7170   24.8752 H   0  0  0  0  0  0  0  0  0  0  0  0
   21.5607   19.4254   24.6810 H   0  0  0  0  0  0  0  0  0  0  0  0
  1  2  1  0  0  0  0
  1  3  1  0  0  0  0
  1  4  1  0  0  0  0
  1  5  1  0  0  0  0
  5  6  1  0  0  0  0
  5  7  1  0  0  0  0
  5  8  1  0  0  0  0
  8  9  1  0  0  0  0
  8 10  1  0  0  0  0
  8 11  1  0  0  0  0
 11 12  1  0  0  0  0
 11 13  1  0  0  0  0
 11 14  1  0  0  0  0
 14 15  1  0  0  0  0
 14 16  1  0  0  0  0
 14 17  1  0  0  0  0
 17 18  1  0  0  0  0
 17 19  1  0  0  0  0
 17 20  1  0  0  0  0
M  END
> <VM2 Rank>
4

> <Conf_Id>
148

> <Probability>
7.71

> <Sum Probability>
42.78

> <Delta G>
0.368

> <G>
54.305

> <E>
31.706

> <-TS>
22.599

> <U+W>
15.609

> <U>
69.798

> <W>
-54.189

> <W(PB)>
-56.121

> <W(SA)>
1.932

> <Valence>
1.134

> <Coulomb>
68.735

> <VdW>
-0.070

> <VdW6>
-3.564

> <VdW12>
3.494

> <Bond>
0.108

> <Angle>
0.457

> <Pdih>
0.569

> <Idih>
0.000

> <Tether>
0.000

$$$$
VeraChem MOL file


 20 19  0  0  0  0  0  0  0  0999 V2000     
   19.6008   18.1121   19.4663 C   0  0  0  0  0  0  0  0  0  0  0  0
   19.6694   17.2145   20.0938 H   0  0  0  0  0  0  0  0  0  0  0  0
   18.5509   18.4313   19.4379 H   0  0  0  0  0  0  0  0  0  0  0  0
   19.8911   17.8258   18.4471 H   0  0  0  0  0  0  0  0  0  0  0  0
   20.5129   19.2445   19.9918 C   0  0  0  0  0  0  0  0  0  0  0  0
   20.4841   20.0853   19.2845 H   0  0  0  0  0  0  0  0  0  0  0  0
   21.5556   18.8973   20.0161 H   0  0  0  0  0  0  0  0  0  0  0  0
   20.1000   19.7524   21.3931 C   0  0  0  0  0  0  0  0  0  0  0  0
   20.7388   20.6025   21.6675 H   0  0  0  0  0  0  0  0  0  0  0  0
   19.0698   20.1311   21.3585 H   0  0  0  0  0  0  0  0  0  0  0  0
   20.2150   18.6631   22.4773 C   0  0  0  0  0  0  0  0  0  0  0  0
   21.2409   18.2881   22.5132 H   0  0  0  0  0  0  0  0  0  0  0  0
   19.5526   17.8292   22.2333 H   0  0  0  0  0  0  0  0  0  0  0  0
   19.8496   19.1536   23.8645 N   0  3  0  0  0  0  0  0  0  0  0  0
   18.8875   19.5257   23.8691 H   0  0  0  0  0  0  0  0  0  0  0  0
   20.4508   19.9482   24.1317 H   0  0  0  0  0  0  0  0  0  0  0  0
   19.9875   18.0183   24.8700 C   0  0  0  0  0  0  0  0  0  0  0  0
   21.0204   17.6635   24.8727 H   0  0  0  0  0  0  0  0  0  0  0  0
   19.7217   18.3850   25.8639 H   0  0  0  0  0  0  0  0  0  0  0  0
   19.3176   17.2035   24.5870 H   0  0  0  0  0  0  0  0  0  0  0  0
  1  2  1  0  0  0  0
  1  3  1  0  0  0  0
  1  4  1  0  0  0  0
  1  5  1  0  0  0  0
  5  6  1  0  0  0  0
  5  7  1  0  0  0  0
  5  8  1  0  0  0  0
  8  9  1  0  0  0  0
  8 10  1  0  0  0  0
  8 11  1  0  0  0  0
 11 12  1  0  0  0  0
 11 13  1  0  0  0  0
 11 14  1  0  0  0  0
 14 15  1  0  0  0  0
 14 16  1  0  0  0  0
 14 17  1  0  0  0  0
 17 18  1  0  0  0  0
 17 19  1  0  0  0  0
 17 20  1  0  0  0  0
M  END
> <VM2 Rank>
5

> <Conf_Id>
34

> <Probability>
7.65

> <Sum Probability>
50.42

> <Delta G>
0.373

> <G>
54.310

> <E>
31.711

> <-TS>
22.599

> <U+W>
15.615

> <U>
69.798

> <W>
-54.184

> <W(PB)>
-56.116

> <W(SA)>
1.933

> <Valence>
1.134

> <Coulomb>
68.735

> <VdW>
-0.070

> <VdW6>
-3.565

> <VdW12>
3.494

> <Bond>
0.108

> <Angle>
0.456

> <Pdih>
0.569

> <Idih>
0.000

> <Tether>
0.000

$$$$
VeraChem MOL file


 20 19  0  0  0  0  0  0  0  0999 V2000     
   19.6844   18.8158   18.9888 C   0  0  0  0  0  0  0  0  0  0  0  0
   18.8181   19.4884   18.9413 H   0  0  0  0  0  0  0  0  0  0  0  0
   20.5415   19.3303   18.5351 H   0  0  0  0  0  0  0  0  0  0  0  0
   19.4592   17.9337   18.3755 H   0  0  0  0  0  0  0  0  0  0  0  0
   19.9896   18.4042   20.4454 C   0  0  0  0  0  0  0  0  0  0  0  0
   20.8399   17.7076   20.4564 H   0  0  0  0  0  0  0  0  0  0  0  0
   19.1274   17.8584   20.8519 H   0  0  0  0  0  0  0  0  0  0  0  0
   20.3100   19.6310   21.3317 C   0  0  0  0  0  0  0  0  0  0  0  0
   21.1481   20.1874   20.8914 H   0  0  0  0  0  0  0  0  0  0  0  0
   19.4537   20.3182   21.3480 H   0  0  0  0  0  0  0  0  0  0  0  0
   20.6879   19.2436   22.7755 C   0  0  0  0  0  0  0  0  0  0  0  0
   20.9885   20.1404   23.3232 H   0  0  0  0  0  0  0  0  0  0  0  0
   21.5357   18.5541   22.7610 H   0  0  0  0  0  0  0  0  0  0  0  0
   19.5633   18.5876   23.5547 N   0  3  0  0  0  0  0  0  0  0  0  0
   19.2486   17.7326   23.0728 H   0  0  0  0  0  0  0  0  0  0  0  0
   18.7396   19.2080   23.5803 H   0  0  0  0  0  0  0  0  0  0  0  0
   20.0308   18.2619   24.9669 C   0  0  0  0  0  0  0  0  0  0  0  0
   19.2126   17.7907   25.5160 H   0  0  0  0  0  0  0  0  0  0  0  0
   20.8814   17.5788   24.9159 H   0  0  0  0  0  0  0  0  0  0  0  0
   20.3278   19.1849   25.4694 H   0  0  0  0  0  0  0  0  0  0  0  0
  1  2  1  0  0  0  0
  1  3  1  0  0  0  0
  1  4  1  0  0  0  0
  1  5  1  0  0  0  0
  5  6  1  0  0  0  0
  5  7  1  0  0  0  0
  5  8  1  0  0  0  0
  8  9  1  0  0  0  0
  8 10  1  0  0  0  0
  8 11  1  0  0  0  0
 11 12  1  0  0  0  0
 11 13  1  0  0  0  0
 11 14  1  0  0  0  0
 14 15  1  0  0  0  0
 14 16  1  0  0  0  0
 14 17  1  0  0  0  0
 17 18  1  0  0  0  0
 17 19  1  0  0  0  0
 17 20  1  0  0  0  0
M  END
> <VM2 Rank>
6

> <Conf_Id>
227

> <Probability>
7.25

> <Sum Probability>
57.67

> <Delta G>
0.405

> <G>
54.342

> <E>
31.753

> <-TS>
22.589

> <U+W>
15.657

> <U>
69.962

> <W>
-54.305

> <W(PB)>
-56.224

> <W(SA)>
1.918

> <Valence>
0.982

> <Coulomb>
69.058

> <VdW>
-0.078

> <VdW6>
-3.548

> <VdW12>
3.471

> <Bond>
0.105

> <Angle>
0.408

> <Pdih>
0.469

> <Idih>
0.000

> <Tether>
0.000

$$$$
VeraChem MOL file


 20 19  0  0  0  0  0  0  0  0999 V2000     
   20.1835   19.3100   19.0098 C   0  0  0  0  0  0  0  0  0  0  0  0
   19.6812   18.4781   18.4990 H   0  0  0  0  0  0  0  0  0  0  0  0
   19.5210   20.1845   18.9707 H   0  0  0  0  0  0  0  0  0  0  0  0
   21.0926   19.5515   18.4440 H   0  0  0  0  0  0  0  0  0  0  0  0
   20.5304   18.9398   20.4681 C   0  0  0  0  0  0  0  0  0  0  0  0
   21.0660   19.7785   20.9332 H   0  0  0  0  0  0  0  0  0  0  0  0
   21.2184   18.0826   20.4723 H   0  0  0  0  0  0  0  0  0  0  0  0
   19.2645   18.5954   21.2879 C   0  0  0  0  0  0  0  0  0  0  0  0
   18.5847   19.4575   21.3115 H   0  0  0  0  0  0  0  0  0  0  0  0
   18.7198   17.7824   20.7897 H   0  0  0  0  0  0  0  0  0  0  0  0
   19.5871   18.1535   22.7294 C   0  0  0  0  0  0  0  0  0  0  0  0
   20.2692   17.2998   22.7079 H   0  0  0  0  0  0  0  0  0  0  0  0
   18.6654   17.8397   23.2259 H   0  0  0  0  0  0  0  0  0  0  0  0
   20.2194   19.2374   23.5822 N   0  3  0  0  0  0  0  0  0  0  0  0
   19.6057   20.0658   23.6166 H   0  0  0  0  0  0  0  0  0  0  0  0
   21.0967   19.5631   23.1501 H   0  0  0  0  0  0  0  0  0  0  0  0
   20.4812   18.7079   24.9857 C   0  0  0  0  0  0  0  0  0  0  0  0
   21.1583   17.8530   24.9274 H   0  0  0  0  0  0  0  0  0  0  0  0
   20.9360   19.4974   25.5881 H   0  0  0  0  0  0  0  0  0  0  0  0
   19.5352   18.3999   25.4363 H   0  0  0  0  0  0  0  0  0  0  0  0
  1  2  1  0  0  0  0
  1  3  1  0  0  0  0
  1  4  1  0  0  0  0
  1  5  1  0  0  0  0
  5  6  1  0  0  0  0
  5  7  1  0  0  0  0
  5  8  1  0  0  0  0
  8  9  1  0  0  0  0
  8 10  1  0  0  0  0
  8 11  1  0  0  0  0
 11 12  1  0  0  0  0
 11 13  1  0  0  0  0
 11 14  1  0  0  0  0
 14 15  1  0  0  0  0
 14 16  1  0  0  0  0
 14 17  1  0  0  0  0
 17 18  1  0  0  0  0
 17 19  1  0  0  0  0
 17 20  1  0  0  0  0
M  END
> <VM2 Rank>
7

> <Conf_Id>
85

> <Probability>
6.76

> <Sum Probability>
64.44

> <Delta G>
0.446

> <G>
54.383

> <E>
31.794

> <-TS>
22.589

> <U+W>
15.698

> <U>
69.962

> <W>
-54.265

> <W(PB)>
-56.166

> <W(SA)>
1.901

> <Valence>
0.982

> <Coulomb>
69.058

> <VdW>
-0.077

> <VdW6>
-3.548

> <VdW12>
3.471

> <Bond>
0.105

> <Angle>
0.408

> <Pdih>
0.469

> <Idih>
0.000

> <Tether>
0.000

$$$$
VeraChem MOL file


 20 19  0  0  0  0  0  0  0  0999 V2000     
   19.9200   18.3277   19.2181 C   0  0  0  0  0  0  0  0  0  0  0  0
   19.1805   17.5283   19.3569 H   0  0  0  0  0  0  0  0  0  0  0  0
   19.4297   19.1597   18.6959 H   0  0  0  0  0  0  0  0  0  0  0  0
   20.7134   17.9420   18.5648 H   0  0  0  0  0  0  0  0  0  0  0  0
   20.5031   18.7867   20.5721 C   0  0  0  0  0  0  0  0  0  0  0  0
   21.2615   19.5630   20.3981 H   0  0  0  0  0  0  0  0  0  0  0  0
   21.0178   17.9399   21.0463 H   0  0  0  0  0  0  0  0  0  0  0  0
   19.4039   19.3333   21.5132 C   0  0  0  0  0  0  0  0  0  0  0  0
   18.8686   20.1494   21.0102 H   0  0  0  0  0  0  0  0  0  0  0  0
   18.6579   18.5531   21.7124 H   0  0  0  0  0  0  0  0  0  0  0  0
   19.9682   19.8726   22.8464 C   0  0  0  0  0  0  0  0  0  0  0  0
   19.1525   20.2800   23.4490 H   0  0  0  0  0  0  0  0  0  0  0  0
   20.6654   20.6868   22.6329 H   0  0  0  0  0  0  0  0  0  0  0  0
   20.7070   18.8539   23.7014 N   0  3  0  0  0  0  0  0  0  0  0  0
   21.1551   19.3327   24.4984 H   0  0  0  0  0  0  0  0  0  0  0  0
   21.4862   18.4404   23.1685 H   0  0  0  0  0  0  0  0  0  0  0  0
   19.7639   17.7699   24.2117 C   0  0  0  0  0  0  0  0  0  0  0  0
   18.9608   18.2344   24.7879 H   0  0  0  0  0  0  0  0  0  0  0  0
   19.3444   17.2262   23.3630 H   0  0  0  0  0  0  0  0  0  0  0  0
   20.3224   17.0804   24.8486 H   0  0  0  0  0  0  0  0  0  0  0  0
  1  2  1  0  0  0  0
  1  3  1  0  0  0  0
  1  4  1  0  0  0  0
  1  5  1  0  0  0  0
  5  6  1  0  0  0  0
  5  7  1  0  0  0  0
  5  8  1  0  0  0  0
  8  9  1  0  0  0  0
  8 10  1  0  0  0  0
  8 11  1  0  0  0  0
 11 12  1  0  0  0  0
 11 13  1  0  0  0  0
 11 14  1  0  0  0  0
 14 15  1  0  0  0  0
 14 16  1  0  0  0  0
 14 17  1  0  0  0  0
 17 18  1  0  0  0  0
 17 19  1  0  0  0  0
 17 20  1  0  0  0  0
M  END
> <VM2 Rank>
8

> <Conf_Id>
109

> <Probability>
5.59

> <Sum Probability>
70.03

> <Delta G>
0.560

> <G>
54.497

> <E>
31.685

> <-TS>
22.812

> <U+W>
15.588

> <U>
70.298

> <W>
-54.710

> <W(PB)>
-56.587

> <W(SA)>
1.877

> <Valence>
1.245

> <Coulomb>
68.933

> <VdW>
0.120

> <VdW6>
-4.430

> <VdW12>
4.550

> <Bond>
0.148

> <Angle>
0.587

> <Pdih>
0.510

> <Idih>
0.000

> <Tether>
0.000

$$$$
