@<TRIPOS>MOLECULE
guest-6_vm2.mol2 : vm2 ligand conformer 1
          13          12           1
SMALL
USER_CHARGES
 
@<TRIPOS>ATOM
       1    C1      20.072621   19.240319   23.932603 C.2        1 MOL1         0.6021
       2    O1      20.642153   20.227866   24.351824 O.co2      1 MOL1        -0.6904
       3    O2      19.946477   18.215916   24.572951 O.co2      1 MOL1        -0.6904
       4    C2      19.501660   19.282397   22.519191 C.3        1 MOL1        -0.2102
       5    H1      19.179000   20.309963   22.311785 H          1 MOL1         0.0687
       6    H2      18.605289   18.650803   22.494149 H          1 MOL1         0.0687
       7    C3      20.513021   18.814595   21.444873 C.3        1 MOL1        -0.1974
       8    H3      21.410364   19.447773   21.485898 H          1 MOL1         0.0689
       9    H4      20.836440   17.788272   21.668224 H          1 MOL1         0.0689
      10    C4      19.906068   18.868906   20.028558 C.3        1 MOL1        -0.2987
      11    H5      20.637318   18.533897   19.281362 H          1 MOL1         0.0700
      12    H6      19.023721   18.219684   19.954202 H          1 MOL1         0.0700
      13    H7      19.602090   19.891915   19.770474 H          1 MOL1         0.0700
@<TRIPOS>BOND
    1     1     2    1
    2     1     3    2
    3     1     4    1
    4     4     5    1
    5     4     6    1
    6     4     7    1
    7     7     8    1
    8     7     9    1
    9     7    10    1
   10    10    11    1
   11    10    12    1
   12    10    13    1
@<TRIPOS>SUBSTRUCTURE
       1 MOL1            1 RESIDUE      1      MOL     
@<SCITEGIC>MOL_PROPERTY
VM2 Rank
SciTegic.value.IntegerValue
1

@<SCITEGIC>MOL_PROPERTY
Conf_Id
SciTegic.value.IntegerValue
1

@<SCITEGIC>MOL_PROPERTY
Probability
SciTegic.value.DoubleValue
88.65

@<SCITEGIC>MOL_PROPERTY
Sum Probability
SciTegic.value.DoubleValue
88.65

@<SCITEGIC>MOL_PROPERTY
Delta G
SciTegic.value.DoubleValue
0.000

@<SCITEGIC>MOL_PROPERTY
G
SciTegic.value.DoubleValue
-44.757

@<SCITEGIC>MOL_PROPERTY
E
SciTegic.value.DoubleValue
-49.835

@<SCITEGIC>MOL_PROPERTY
-TS
SciTegic.value.DoubleValue
5.078

@<SCITEGIC>MOL_PROPERTY
U+W
SciTegic.value.DoubleValue
-59.672

@<SCITEGIC>MOL_PROPERTY
U
SciTegic.value.DoubleValue
7.389

@<SCITEGIC>MOL_PROPERTY
W
SciTegic.value.DoubleValue
-67.060

@<SCITEGIC>MOL_PROPERTY
W(PB)
SciTegic.value.DoubleValue
-68.767

@<SCITEGIC>MOL_PROPERTY
W(SA)
SciTegic.value.DoubleValue
1.707

@<SCITEGIC>MOL_PROPERTY
Valence
SciTegic.value.DoubleValue
5.822

@<SCITEGIC>MOL_PROPERTY
Coulomb
SciTegic.value.DoubleValue
1.255

@<SCITEGIC>MOL_PROPERTY
VdW
SciTegic.value.DoubleValue
0.312

@<SCITEGIC>MOL_PROPERTY
VdW6
SciTegic.value.DoubleValue
-3.061

@<SCITEGIC>MOL_PROPERTY
VdW12
SciTegic.value.DoubleValue
3.372

@<SCITEGIC>MOL_PROPERTY
Bond
SciTegic.value.DoubleValue
0.059

@<SCITEGIC>MOL_PROPERTY
Angle
SciTegic.value.DoubleValue
2.241

@<SCITEGIC>MOL_PROPERTY
Pdih
SciTegic.value.DoubleValue
3.522

@<SCITEGIC>MOL_PROPERTY
Idih
SciTegic.value.DoubleValue
0.000

@<SCITEGIC>MOL_PROPERTY
Tether
SciTegic.value.DoubleValue
0.000

