VeraChem MOL file


 17 16  0  0  0  0  0  0  0  0999 V2000     
   20.1216   19.0268   25.0643 C   0  0  0  0  0  0  0  0  0  0  0  0
   21.2292   19.3333   25.4595 O   0  5  0  0  0  0  0  0  0  0  0  0
   19.0984   19.5456   25.4655 O   0  0  0  0  0  0  0  0  0  0  0  0
   20.0077   17.9136   24.0272 C   0  0  0  0  0  0  0  0  0  0  0  0
   19.0748   17.3708   24.2188 H   0  0  0  0  0  0  0  0  0  0  0  0
   20.8163   17.1973   24.2139 H   0  0  0  0  0  0  0  0  0  0  0  0
   20.0480   18.3594   22.5719 C   0  0  0  0  0  0  0  0  0  0  0  0
   19.9642   17.5396   21.8613 H   0  0  0  0  0  0  0  0  0  0  0  0
   20.1730   19.6233   22.1416 C   0  0  0  0  0  0  0  0  0  0  0  0
   20.2564   20.4371   22.8608 H   0  0  0  0  0  0  0  0  0  0  0  0
   20.2152   20.0872   20.6950 C   0  0  0  0  0  0  0  0  0  0  0  0
   19.4084   20.8142   20.5309 H   0  0  0  0  0  0  0  0  0  0  0  0
   21.1490   20.6402   20.5259 H   0  0  0  0  0  0  0  0  0  0  0  0
   20.0998   18.9628   19.6420 C   0  0  0  0  0  0  0  0  0  0  0  0
   20.1387   19.3805   18.6276 H   0  0  0  0  0  0  0  0  0  0  0  0
   20.9238   18.2441   19.7410 H   0  0  0  0  0  0  0  0  0  0  0  0
   19.1504   18.4214   19.7460 H   0  0  0  0  0  0  0  0  0  0  0  0
  1  2  1  0  0  0  0
  1  3  2  0  0  0  0
  1  4  1  0  0  0  0
  4  5  1  0  0  0  0
  4  6  1  0  0  0  0
  4  7  1  0  0  0  0
  7  8  1  0  0  0  0
  7  9  2  0  0  0  0
  9 10  1  0  0  0  0
  9 11  1  0  0  0  0
 11 12  1  0  0  0  0
 11 13  1  0  0  0  0
 11 14  1  0  0  0  0
 14 15  1  0  0  0  0
 14 16  1  0  0  0  0
 14 17  1  0  0  0  0
M  END
> <VM2 Rank>
1

> <Conf_Id>
122

> <Probability>
14.28

> <Sum Probability>
14.28

> <Delta G>
0.000

> <G>
-26.661

> <E>
-36.827

> <-TS>
10.165

> <U+W>
-50.240

> <U>
14.007

> <W>
-64.247

> <W(PB)>
-66.286

> <W(SA)>
2.040

> <Valence>
12.998

> <Coulomb>
-0.405

> <VdW>
1.414

> <VdW6>
-5.682

> <VdW12>
7.096

> <Bond>
0.147

> <Angle>
3.367

> <Pdih>
9.484

> <Idih>
0.001

> <Tether>
0.000

$$$$
