VeraChem MOL file


 16 16  0  0  0  0  0  0  0  0999 V2000     
   19.6971   19.0164   20.9391 C   0  0  0  0  0  0  0  0  0  0  0  0
   19.6785   19.9333   20.3344 H   0  0  0  0  0  0  0  0  0  0  0  0
   20.1313   18.2118   20.3294 H   0  0  0  0  0  0  0  0  0  0  0  0
   18.2981   18.6038   21.4168 C   0  0  0  0  0  0  0  0  0  0  0  0
   17.7280   19.4984   21.7036 H   0  0  0  0  0  0  0  0  0  0  0  0
   17.7318   18.0676   20.6432 H   0  0  0  0  0  0  0  0  0  0  0  0
   18.5586   17.7366   22.6617 C   0  0  0  0  0  0  0  0  0  0  0  0
   18.6890   16.6897   22.3578 H   0  0  0  0  0  0  0  0  0  0  0  0
   17.7164   17.7774   23.3652 H   0  0  0  0  0  0  0  0  0  0  0  0
   19.8756   18.2476   23.2815 C   0  0  0  0  0  0  0  0  0  0  0  0
   20.5433   17.3965   23.4794 H   0  0  0  0  0  0  0  0  0  0  0  0
   20.5130   19.1857   22.2345 C   0  0  0  0  0  0  0  0  0  0  0  0
   21.5724   18.9478   22.0751 H   0  0  0  0  0  0  0  0  0  0  0  0
   20.4512   20.2286   22.5740 H   0  0  0  0  0  0  0  0  0  0  0  0
   19.6066   18.9649   24.4805 O   0  0  0  0  0  0  0  0  0  0  0  0
   19.1944   18.3291   25.1027 H   0  0  0  0  0  0  0  0  0  0  0  0
  1  2  1  0  0  0  0
  1  3  1  0  0  0  0
  1  4  1  0  0  0  0
  4  5  1  0  0  0  0
  4  6  1  0  0  0  0
  4  7  1  0  0  0  0
  7  8  1  0  0  0  0
  7  9  1  0  0  0  0
  7 10  1  0  0  0  0
 10 11  1  0  0  0  0
  1 12  1  0  0  0  0
 10 12  1  0  0  0  0
 12 13  1  0  0  0  0
 12 14  1  0  0  0  0
 10 15  1  0  0  0  0
 15 16  1  0  0  0  0
M  END
> <VM2 Rank>
1

> <Conf_Id>
236

> <Probability>
36.24

> <Sum Probability>
36.24

> <Delta G>
0.000

> <G>
30.218

> <E>
15.547

> <-TS>
14.671

> <U+W>
3.028

> <U>
5.894

> <W>
-2.866

> <W(PB)>
-4.607

> <W(SA)>
1.741

> <Valence>
13.780

> <Coulomb>
-8.518

> <VdW>
0.632

> <VdW6>
-3.302

> <VdW12>
3.934

> <Bond>
0.054

> <Angle>
4.031

> <Pdih>
9.696

> <Idih>
0.000

> <Tether>
0.000

$$$$
