VeraChem MOL file


 26 25  0  0  0  0  0  0  0  0999 V2000     
   20.2415   18.6564   18.8060 C   0  0  0  0  0  0  0  0  0  0  0  0
   19.6045   19.4971   18.5017 H   0  0  0  0  0  0  0  0  0  0  0  0
   21.0558   18.5689   18.0750 H   0  0  0  0  0  0  0  0  0  0  0  0
   19.6426   17.7377   18.7548 H   0  0  0  0  0  0  0  0  0  0  0  0
   20.8051   18.8729   20.2264 C   0  0  0  0  0  0  0  0  0  0  0  0
   21.4263   19.7795   20.2377 H   0  0  0  0  0  0  0  0  0  0  0  0
   21.4643   18.0335   20.4887 H   0  0  0  0  0  0  0  0  0  0  0  0
   19.6784   18.9994   21.2757 C   0  0  0  0  0  0  0  0  0  0  0  0
   19.0207   19.8375   21.0067 H   0  0  0  0  0  0  0  0  0  0  0  0
   19.0593   18.0917   21.2594 H   0  0  0  0  0  0  0  0  0  0  0  0
   20.2389   19.2172   22.6994 C   0  0  0  0  0  0  0  0  0  0  0  0
   20.8550   20.1272   22.7151 H   0  0  0  0  0  0  0  0  0  0  0  0
   20.8999   18.3792   22.9576 H   0  0  0  0  0  0  0  0  0  0  0  0
   19.1076   19.3422   23.7488 C   0  0  0  0  0  0  0  0  0  0  0  0
   18.4279   20.1490   23.4433 H   0  0  0  0  0  0  0  0  0  0  0  0
   18.5118   18.4198   23.7646 H   0  0  0  0  0  0  0  0  0  0  0  0
   19.6331   19.6456   25.1687 C   0  0  1  0  0  0  0  0  0  0  0  0
   20.2418   20.5539   25.1222 H   0  0  0  0  0  0  0  0  0  0  0  0
   18.4605   19.8996   26.1296 C   0  0  0  0  0  0  0  0  0  0  0  0
   17.8446   20.7376   25.7802 H   0  0  0  0  0  0  0  0  0  0  0  0
   18.8276   20.1521   27.1320 H   0  0  0  0  0  0  0  0  0  0  0  0
   17.8173   19.0147   26.2139 H   0  0  0  0  0  0  0  0  0  0  0  0
   20.5229   18.5547   25.6994 N   0  3  0  0  0  0  0  0  0  0  0  0
   21.3337   18.4050   25.0931 H   0  0  0  0  0  0  0  0  0  0  0  0
   20.8770   18.7816   26.6330 H   0  0  0  0  0  0  0  0  0  0  0  0
   20.0218   17.6652   25.7697 H   0  0  0  0  0  0  0  0  0  0  0  0
  1  2  1  0  0  0  0
  1  3  1  0  0  0  0
  1  4  1  0  0  0  0
  1  5  1  0  0  0  0
  5  6  1  0  0  0  0
  5  7  1  0  0  0  0
  5  8  1  0  0  0  0
  8  9  1  0  0  0  0
  8 10  1  0  0  0  0
  8 11  1  0  0  0  0
 11 12  1  0  0  0  0
 11 13  1  0  0  0  0
 11 14  1  0  0  0  0
 14 15  1  0  0  0  0
 14 16  1  0  0  0  0
 14 17  1  0  0  0  0
 17 18  1  0  0  0  0
 17 19  1  0  0  0  0
 19 20  1  0  0  0  0
 19 21  1  0  0  0  0
 19 22  1  0  0  0  0
 17 23  1  0  0  0  0
 23 24  1  0  0  0  0
 23 25  1  0  0  0  0
 23 26  1  0  0  0  0
M  END
> <VM2 Rank>
1

> <Conf_Id>
300

> <Probability>
17.04

> <Sum Probability>
17.04

> <Delta G>
0.000

> <G>
23.710

> <E>
-8.843

> <-TS>
32.552

> <U+W>
-30.304

> <U>
23.517

> <W>
-53.818

> <W(PB)>
-56.163

> <W(SA)>
2.346

> <Valence>
2.737

> <Coulomb>
19.862

> <VdW>
0.919

> <VdW6>
-6.793

> <VdW12>
7.712

> <Bond>
0.171

> <Angle>
0.873

> <Pdih>
1.693

> <Idih>
0.000

> <Tether>
0.000

$$$$
