VeraChem MOL file


 29 28  0  0  0  0  0  0  0  0999 V2000     
   19.9950   18.9913   18.8122 C   0  0  0  0  0  0  0  0  0  0  0  0
   20.3035   17.9387   18.7676 H   0  0  0  0  0  0  0  0  0  0  0  0
   19.4252   19.2145   17.9009 H   0  0  0  0  0  0  0  0  0  0  0  0
   20.8996   19.6134   18.8051 H   0  0  0  0  0  0  0  0  0  0  0  0
   19.1426   19.2666   20.0690 C   0  0  0  0  0  0  0  0  0  0  0  0
   18.2298   18.6557   20.0314 H   0  0  0  0  0  0  0  0  0  0  0  0
   18.8212   20.3176   20.0685 H   0  0  0  0  0  0  0  0  0  0  0  0
   19.9220   18.9603   21.3669 C   0  0  0  0  0  0  0  0  0  0  0  0
   20.2432   17.9095   21.3619 H   0  0  0  0  0  0  0  0  0  0  0  0
   20.8346   19.5715   21.3990 H   0  0  0  0  0  0  0  0  0  0  0  0
   19.0717   19.2347   22.6277 C   0  0  0  0  0  0  0  0  0  0  0  0
   18.1592   18.6234   22.5948 H   0  0  0  0  0  0  0  0  0  0  0  0
   18.7506   20.2856   22.6318 H   0  0  0  0  0  0  0  0  0  0  0  0
   19.8518   18.9283   23.9260 C   0  0  0  0  0  0  0  0  0  0  0  0
   20.1729   17.8774   23.9215 H   0  0  0  0  0  0  0  0  0  0  0  0
   20.7644   19.5395   23.9585 H   0  0  0  0  0  0  0  0  0  0  0  0
   19.0013   19.2028   25.1867 C   0  0  0  0  0  0  0  0  0  0  0  0
   18.0885   18.5916   25.1547 H   0  0  0  0  0  0  0  0  0  0  0  0
   18.6800   20.2538   25.1918 H   0  0  0  0  0  0  0  0  0  0  0  0
   19.7803   18.8966   26.4847 C   0  0  0  0  0  0  0  0  0  0  0  0
   20.0987   17.8456   26.4858 H   0  0  0  0  0  0  0  0  0  0  0  0
   20.6907   19.5096   26.5230 H   0  0  0  0  0  0  0  0  0  0  0  0
   18.9245   19.1732   27.7332 C   0  0  0  0  0  0  0  0  0  0  0  0
   18.0245   18.5528   27.7075 H   0  0  0  0  0  0  0  0  0  0  0  0
   18.6188   20.2229   27.7451 H   0  0  0  0  0  0  0  0  0  0  0  0
   19.6549   18.8841   29.0286 N   0  3  0  0  0  0  0  0  0  0  0  0
   19.0673   19.0748   29.8479 H   0  0  0  0  0  0  0  0  0  0  0  0
   20.4995   19.4573   29.1269 H   0  0  0  0  0  0  0  0  0  0  0  0
   19.9465   17.9031   29.0919 H   0  0  0  0  0  0  0  0  0  0  0  0
  1  2  1  0  0  0  0
  1  3  1  0  0  0  0
  1  4  1  0  0  0  0
  1  5  1  0  0  0  0
  5  6  1  0  0  0  0
  5  7  1  0  0  0  0
  5  8  1  0  0  0  0
  8  9  1  0  0  0  0
  8 10  1  0  0  0  0
  8 11  1  0  0  0  0
 11 12  1  0  0  0  0
 11 13  1  0  0  0  0
 11 14  1  0  0  0  0
 14 15  1  0  0  0  0
 14 16  1  0  0  0  0
 14 17  1  0  0  0  0
 17 18  1  0  0  0  0
 17 19  1  0  0  0  0
 17 20  1  0  0  0  0
 20 21  1  0  0  0  0
 20 22  1  0  0  0  0
 20 23  1  0  0  0  0
 23 24  1  0  0  0  0
 23 25  1  0  0  0  0
 23 26  1  0  0  0  0
 26 27  1  0  0  0  0
 26 28  1  0  0  0  0
 26 29  1  0  0  0  0
M  END
> <VM2 Rank>
1

> <Conf_Id>
1428

> <Probability>
5.23

> <Sum Probability>
5.23

> <Delta G>
0.000

> <G>
58.146

> <E>
20.962

> <-TS>
37.184

> <U+W>
-3.182

> <U>
47.674

> <W>
-50.849

> <W(PB)>
-53.429

> <W(SA)>
2.580

> <Valence>
2.587

> <Coulomb>
44.357

> <VdW>
0.730

> <VdW6>
-6.901

> <VdW12>
7.631

> <Bond>
0.145

> <Angle>
0.401

> <Pdih>
2.040

> <Idih>
0.000

> <Tether>
0.000

$$$$
