@<TRIPOS>MOLECULE
guest-3_vm2.mol2 : vm2 ligand conformer 1
          29          28           1
SMALL
USER_CHARGES
 
@<TRIPOS>ATOM
       1    C1      19.995010   18.991329   18.812230 C.3        1 MOL1        -0.2427
       2    H1      20.303505   17.938668   18.767606 H          1 MOL1         0.0958
       3    H2      19.425151   19.214523   17.900912 H          1 MOL1         0.0958
       4    H3      20.899563   19.613412   18.805055 H          1 MOL1         0.0958
       5    C2      19.142621   19.266598   20.069009 C.3        1 MOL1        -0.1412
       6    H4      18.229776   18.655698   20.031406 H          1 MOL1         0.0947
       7    H5      18.821155   20.317578   20.068500 H          1 MOL1         0.0947
       8    C3      19.922026   18.960290   21.366947 C.3        1 MOL1        -0.1437
       9    H6      20.243213   17.909470   21.361934 H          1 MOL1         0.0947
      10    H7      20.834614   19.571490   21.399018 H          1 MOL1         0.0947
      11    C4      19.071662   19.234748   22.627730 C.3        1 MOL1        -0.1437
      12    H8      18.159176   18.623409   22.594803 H          1 MOL1         0.0947
      13    H9      18.750573   20.285620   22.631835 H          1 MOL1         0.0947
      14    C5      19.851786   18.928262   23.925987 C.3        1 MOL1        -0.1437
      15    H10     20.172902   17.877372   23.921451 H          1 MOL1         0.0947
      16    H11     20.764355   19.539545   23.958459 H          1 MOL1         0.0947
      17    C6      19.001283   19.202827   25.186697 C.3        1 MOL1        -0.1437
      18    H12     18.088517   18.591600   25.154679 H          1 MOL1         0.0947
      19    H13     18.680048   20.253804   25.191757 H          1 MOL1         0.0947
      20    C7      19.780295   18.896641   26.484672 C.3        1 MOL1        -0.1477
      21    H14     20.098749   17.845593   26.485792 H          1 MOL1         0.0947
      22    H15     20.690747   19.509601   26.523036 H          1 MOL1         0.0947
      23    C8      18.924456   19.173169   27.733161 C.3        1 MOL1         0.0145
      24    H16     18.024499   18.552778   27.707543 H          1 MOL1         0.0921
      25    H17     18.618842   20.222893   27.745056 H          1 MOL1         0.0921
      26    N1      19.654863   18.884136   29.028570 N.4        1 MOL1        -0.5969
      27    H18     19.067325   19.074755   29.847854 H          1 MOL1         0.3603
      28    H19     20.499503   19.457265   29.126872 H          1 MOL1         0.3603
      29    H20     19.946492   17.903065   29.091905 H          1 MOL1         0.3603
@<TRIPOS>BOND
    1     1     2    1
    2     1     3    1
    3     1     4    1
    4     1     5    1
    5     5     6    1
    6     5     7    1
    7     5     8    1
    8     8     9    1
    9     8    10    1
   10     8    11    1
   11    11    12    1
   12    11    13    1
   13    11    14    1
   14    14    15    1
   15    14    16    1
   16    14    17    1
   17    17    18    1
   18    17    19    1
   19    17    20    1
   20    20    21    1
   21    20    22    1
   22    20    23    1
   23    23    24    1
   24    23    25    1
   25    23    26    1
   26    26    27    1
   27    26    28    1
   28    26    29    1
@<TRIPOS>SUBSTRUCTURE
       1 MOL1            1 RESIDUE      1      MOL     
@<SCITEGIC>MOL_PROPERTY
VM2 Rank
SciTegic.value.IntegerValue
1

@<SCITEGIC>MOL_PROPERTY
Conf_Id
SciTegic.value.IntegerValue
1428

@<SCITEGIC>MOL_PROPERTY
Probability
SciTegic.value.DoubleValue
5.23

@<SCITEGIC>MOL_PROPERTY
Sum Probability
SciTegic.value.DoubleValue
5.23

@<SCITEGIC>MOL_PROPERTY
Delta G
SciTegic.value.DoubleValue
0.000

@<SCITEGIC>MOL_PROPERTY
G
SciTegic.value.DoubleValue
58.146

@<SCITEGIC>MOL_PROPERTY
E
SciTegic.value.DoubleValue
20.962

@<SCITEGIC>MOL_PROPERTY
-TS
SciTegic.value.DoubleValue
37.184

@<SCITEGIC>MOL_PROPERTY
U+W
SciTegic.value.DoubleValue
-3.182

@<SCITEGIC>MOL_PROPERTY
U
SciTegic.value.DoubleValue
47.674

@<SCITEGIC>MOL_PROPERTY
W
SciTegic.value.DoubleValue
-50.849

@<SCITEGIC>MOL_PROPERTY
W(PB)
SciTegic.value.DoubleValue
-53.429

@<SCITEGIC>MOL_PROPERTY
W(SA)
SciTegic.value.DoubleValue
2.580

@<SCITEGIC>MOL_PROPERTY
Valence
SciTegic.value.DoubleValue
2.587

@<SCITEGIC>MOL_PROPERTY
Coulomb
SciTegic.value.DoubleValue
44.357

@<SCITEGIC>MOL_PROPERTY
VdW
SciTegic.value.DoubleValue
0.730

@<SCITEGIC>MOL_PROPERTY
VdW6
SciTegic.value.DoubleValue
-6.901

@<SCITEGIC>MOL_PROPERTY
VdW12
SciTegic.value.DoubleValue
7.631

@<SCITEGIC>MOL_PROPERTY
Bond
SciTegic.value.DoubleValue
0.145

@<SCITEGIC>MOL_PROPERTY
Angle
SciTegic.value.DoubleValue
0.401

@<SCITEGIC>MOL_PROPERTY
Pdih
SciTegic.value.DoubleValue
2.040

@<SCITEGIC>MOL_PROPERTY
Idih
SciTegic.value.DoubleValue
0.000

@<SCITEGIC>MOL_PROPERTY
Tether
SciTegic.value.DoubleValue
0.000

