VeraChem MOL file


 17 16  0  0  0  0  0  0  0  0999 V2000     
   19.7724   19.0787   25.2791 C   0  0  0  0  0  0  0  0  0  0  0  0
   19.3188   19.9200   26.0302 O   0  5  0  0  0  0  0  0  0  0  0  0
   20.4466   18.1425   25.6657 O   0  0  0  0  0  0  0  0  0  0  0  0
   19.4751   19.2205   23.8280 C   0  0  0  0  0  0  0  0  0  0  0  0
   18.8677   20.0786   23.5497 H   0  0  0  0  0  0  0  0  0  0  0  0
   19.9149   18.3608   22.8811 C   0  0  0  0  0  0  0  0  0  0  0  0
   20.5261   17.4991   23.1486 H   0  0  0  0  0  0  0  0  0  0  0  0
   19.6099   18.5135   21.4070 C   0  0  0  0  0  0  0  0  0  0  0  0
   18.5800   18.8710   21.2716 H   0  0  0  0  0  0  0  0  0  0  0  0
   19.6672   17.5327   20.9160 H   0  0  0  0  0  0  0  0  0  0  0  0
   20.5929   19.4889   20.7279 C   0  0  0  0  0  0  0  0  0  0  0  0
   20.5339   20.4720   21.2154 H   0  0  0  0  0  0  0  0  0  0  0  0
   21.6221   19.1281   20.8627 H   0  0  0  0  0  0  0  0  0  0  0  0
   20.2944   19.6430   19.2230 C   0  0  0  0  0  0  0  0  0  0  0  0
   20.3778   18.6786   18.7050 H   0  0  0  0  0  0  0  0  0  0  0  0
   19.2807   20.0325   19.0614 H   0  0  0  0  0  0  0  0  0  0  0  0
   21.0034   20.3400   18.7575 H   0  0  0  0  0  0  0  0  0  0  0  0
  1  2  1  0  0  0  0
  1  3  2  0  0  0  0
  1  4  1  0  0  0  0
  4  5  1  0  0  0  0
  4  6  2  0  0  0  0
  6  7  1  0  0  0  0
  6  8  1  0  0  0  0
  8  9  1  0  0  0  0
  8 10  1  0  0  0  0
  8 11  1  0  0  0  0
 11 12  1  0  0  0  0
 11 13  1  0  0  0  0
 11 14  1  0  0  0  0
 14 15  1  0  0  0  0
 14 16  1  0  0  0  0
 14 17  1  0  0  0  0
M  END
> <VM2 Rank>
1

> <Conf_Id>
77

> <Probability>
31.59

> <Sum Probability>
31.59

> <Delta G>
0.000

> <G>
-29.181

> <E>
-40.002

> <-TS>
10.820

> <U+W>
-53.415

> <U>
9.048

> <W>
-62.460

> <W(PB)>
-64.544

> <W(SA)>
2.084

> <Valence>
2.652

> <Coulomb>
5.579

> <VdW>
0.818

> <VdW6>
-4.535

> <VdW12>
5.352

> <Bond>
0.063

> <Angle>
2.579

> <Pdih>
0.010

> <Idih>
0.000

> <Tether>
0.000

$$$$
VeraChem MOL file


 17 16  0  0  0  0  0  0  0  0999 V2000     
   19.9275   18.8981   25.2800 C   0  0  0  0  0  0  0  0  0  0  0  0
   19.1016   19.7072   25.6588 O   0  5  0  0  0  0  0  0  0  0  0  0
   20.6879   18.3272   26.0373 O   0  0  0  0  0  0  0  0  0  0  0  0
   20.0296   18.5757   23.8309 C   0  0  0  0  0  0  0  0  0  0  0  0
   20.7879   17.8448   23.5596 H   0  0  0  0  0  0  0  0  0  0  0  0
   19.2499   19.1346   22.8776 C   0  0  0  0  0  0  0  0  0  0  0  0
   18.4885   19.8696   23.1381 H   0  0  0  0  0  0  0  0  0  0  0  0
   19.3615   18.8025   21.4057 C   0  0  0  0  0  0  0  0  0  0  0  0
   18.4026   19.0042   20.9095 H   0  0  0  0  0  0  0  0  0  0  0  0
   19.5606   17.7299   21.2767 H   0  0  0  0  0  0  0  0  0  0  0  0
   20.4766   19.6242   20.7272 C   0  0  0  0  0  0  0  0  0  0  0  0
   20.2741   20.6966   20.8558 H   0  0  0  0  0  0  0  0  0  0  0  0
   21.4375   19.4204   21.2199 H   0  0  0  0  0  0  0  0  0  0  0  0
   20.5905   19.2984   19.2244 C   0  0  0  0  0  0  0  0  0  0  0  0
   19.6518   19.5234   18.7013 H   0  0  0  0  0  0  0  0  0  0  0  0
   21.3883   19.8920   18.7594 H   0  0  0  0  0  0  0  0  0  0  0  0
   20.8237   18.2368   19.0693 H   0  0  0  0  0  0  0  0  0  0  0  0
  1  2  1  0  0  0  0
  1  3  2  0  0  0  0
  1  4  1  0  0  0  0
  4  5  1  0  0  0  0
  4  6  2  0  0  0  0
  6  7  1  0  0  0  0
  6  8  1  0  0  0  0
  8  9  1  0  0  0  0
  8 10  1  0  0  0  0
  8 11  1  0  0  0  0
 11 12  1  0  0  0  0
 11 13  1  0  0  0  0
 11 14  1  0  0  0  0
 14 15  1  0  0  0  0
 14 16  1  0  0  0  0
 14 17  1  0  0  0  0
M  END
> <VM2 Rank>
2

> <Conf_Id>
91

> <Probability>
29.57

> <Sum Probability>
61.15

> <Delta G>
0.039

> <G>
-29.142

> <E>
-39.964

> <-TS>
10.822

> <U+W>
-53.378

> <U>
9.048

> <W>
-62.426

> <W(PB)>
-64.506

> <W(SA)>
2.080

> <Valence>
2.652

> <Coulomb>
5.578

> <VdW>
0.818

> <VdW6>
-4.535

> <VdW12>
5.352

> <Bond>
0.063

> <Angle>
2.579

> <Pdih>
0.010

> <Idih>
0.000

> <Tether>
0.000

$$$$
VeraChem MOL file


 17 16  0  0  0  0  0  0  0  0999 V2000     
   19.6120   18.9988   25.1047 C   0  0  0  0  0  0  0  0  0  0  0  0
   20.0487   20.0912   25.4151 O   0  5  0  0  0  0  0  0  0  0  0  0
   18.9313   18.3236   25.8521 O   0  0  0  0  0  0  0  0  0  0  0  0
   19.9134   18.4419   23.7582 C   0  0  0  0  0  0  0  0  0  0  0  0
   19.4937   17.4615   23.5452 H   0  0  0  0  0  0  0  0  0  0  0  0
   20.6554   19.0825   22.8266 C   0  0  0  0  0  0  0  0  0  0  0  0
   21.0779   20.0666   23.0283 H   0  0  0  0  0  0  0  0  0  0  0  0
   20.9548   18.5111   21.4566 C   0  0  0  0  0  0  0  0  0  0  0  0
   21.1696   17.4374   21.5443 H   0  0  0  0  0  0  0  0  0  0  0  0
   21.8648   18.9731   21.0506 H   0  0  0  0  0  0  0  0  0  0  0  0
   19.7866   18.7145   20.4669 C   0  0  0  0  0  0  0  0  0  0  0  0
   20.0155   18.1908   19.5286 H   0  0  0  0  0  0  0  0  0  0  0  0
   18.8749   18.2522   20.8700 H   0  0  0  0  0  0  0  0  0  0  0  0
   19.5227   20.2044   20.1617 C   0  0  0  0  0  0  0  0  0  0  0  0
   20.4179   20.6846   19.7456 H   0  0  0  0  0  0  0  0  0  0  0  0
   18.7104   20.3106   19.4311 H   0  0  0  0  0  0  0  0  0  0  0  0
   19.2320   20.7492   21.0694 H   0  0  0  0  0  0  0  0  0  0  0  0
  1  2  1  0  0  0  0
  1  3  2  0  0  0  0
  1  4  1  0  0  0  0
  4  5  1  0  0  0  0
  4  6  2  0  0  0  0
  6  7  1  0  0  0  0
  6  8  1  0  0  0  0
  8  9  1  0  0  0  0
  8 10  1  0  0  0  0
  8 11  1  0  0  0  0
 11 12  1  0  0  0  0
 11 13  1  0  0  0  0
 11 14  1  0  0  0  0
 14 15  1  0  0  0  0
 14 16  1  0  0  0  0
 14 17  1  0  0  0  0
M  END
> <VM2 Rank>
3

> <Conf_Id>
178

> <Probability>
9.89

> <Sum Probability>
71.04

> <Delta G>
0.692

> <G>
-28.489

> <E>
-39.464

> <-TS>
10.974

> <U+W>
-52.877

> <U>
10.067

> <W>
-62.945

> <W(PB)>
-64.982

> <W(SA)>
2.037

> <Valence>
2.779

> <Coulomb>
6.473

> <VdW>
0.815

> <VdW6>
-5.087

> <VdW12>
5.902

> <Bond>
0.078

> <Angle>
2.651

> <Pdih>
0.050

> <Idih>
0.000

> <Tether>
0.000

$$$$
VeraChem MOL file


 17 16  0  0  0  0  0  0  0  0999 V2000     
   19.5814   19.0520   25.1001 C   0  0  0  0  0  0  0  0  0  0  0  0
   19.6102   19.8934   25.9771 O   0  5  0  0  0  0  0  0  0  0  0  0
   18.9770   18.0019   25.2120 O   0  0  0  0  0  0  0  0  0  0  0  0
   20.3284   19.3405   23.8460 C   0  0  0  0  0  0  0  0  0  0  0  0
   20.8474   20.2956   23.8116 H   0  0  0  0  0  0  0  0  0  0  0  0
   20.3820   18.4975   22.7898 C   0  0  0  0  0  0  0  0  0  0  0  0
   19.8630   17.5395   22.8123 H   0  0  0  0  0  0  0  0  0  0  0  0
   21.1414   18.7996   21.5150 C   0  0  0  0  0  0  0  0  0  0  0  0
   21.3883   17.8630   20.9972 H   0  0  0  0  0  0  0  0  0  0  0  0
   22.1003   19.2752   21.7615 H   0  0  0  0  0  0  0  0  0  0  0  0
   20.3485   19.7223   20.5634 C   0  0  0  0  0  0  0  0  0  0  0  0
   20.1010   20.6609   21.0783 H   0  0  0  0  0  0  0  0  0  0  0  0
   20.9861   19.9913   19.7100 H   0  0  0  0  0  0  0  0  0  0  0  0
   19.0562   19.0608   20.0388 C   0  0  0  0  0  0  0  0  0  0  0  0
   19.2808   18.1260   19.5088 H   0  0  0  0  0  0  0  0  0  0  0  0
   18.3666   18.8313   20.8615 H   0  0  0  0  0  0  0  0  0  0  0  0
   18.5363   19.7296   19.3407 H   0  0  0  0  0  0  0  0  0  0  0  0
  1  2  1  0  0  0  0
  1  3  2  0  0  0  0
  1  4  1  0  0  0  0
  4  5  1  0  0  0  0
  4  6  2  0  0  0  0
  6  7  1  0  0  0  0
  6  8  1  0  0  0  0
  8  9  1  0  0  0  0
  8 10  1  0  0  0  0
  8 11  1  0  0  0  0
 11 12  1  0  0  0  0
 11 13  1  0  0  0  0
 11 14  1  0  0  0  0
 14 15  1  0  0  0  0
 14 16  1  0  0  0  0
 14 17  1  0  0  0  0
M  END
> <VM2 Rank>
4

> <Conf_Id>
150

> <Probability>
9.88

> <Sum Probability>
80.92

> <Delta G>
0.693

> <G>
-28.488

> <E>
-39.460

> <-TS>
10.972

> <U+W>
-52.874

> <U>
10.067

> <W>
-62.941

> <W(PB)>
-64.976

> <W(SA)>
2.034

> <Valence>
2.779

> <Coulomb>
6.474

> <VdW>
0.815

> <VdW6>
-5.087

> <VdW12>
5.902

> <Bond>
0.078

> <Angle>
2.651

> <Pdih>
0.050

> <Idih>
0.000

> <Tether>
0.000

$$$$
VeraChem MOL file


 17 16  0  0  0  0  0  0  0  0999 V2000     
   19.8303   19.1916   25.0914 C   0  0  0  0  0  0  0  0  0  0  0  0
   19.3133   20.0185   25.8172 O   0  5  0  0  0  0  0  0  0  0  0  0
   20.6965   18.4272   25.4733 O   0  0  0  0  0  0  0  0  0  0  0  0
   19.3641   19.1287   23.6798 C   0  0  0  0  0  0  0  0  0  0  0  0
   18.5882   19.8395   23.4049 H   0  0  0  0  0  0  0  0  0  0  0  0
   19.8514   18.2616   22.7631 C   0  0  0  0  0  0  0  0  0  0  0  0
   20.6314   17.5487   23.0292 H   0  0  0  0  0  0  0  0  0  0  0  0
   19.3767   18.2019   21.3260 C   0  0  0  0  0  0  0  0  0  0  0  0
   18.4116   18.7150   21.2161 H   0  0  0  0  0  0  0  0  0  0  0  0
   19.1983   17.1539   21.0507 H   0  0  0  0  0  0  0  0  0  0  0  0
   20.4023   18.8099   20.3442 C   0  0  0  0  0  0  0  0  0  0  0  0
   21.3687   18.2989   20.4552 H   0  0  0  0  0  0  0  0  0  0  0  0
   20.0660   18.6252   19.3147 H   0  0  0  0  0  0  0  0  0  0  0  0
   20.5904   20.3286   20.5469 C   0  0  0  0  0  0  0  0  0  0  0  0
   19.6371   20.8609   20.4328 H   0  0  0  0  0  0  0  0  0  0  0  0
   20.9880   20.5486   21.5462 H   0  0  0  0  0  0  0  0  0  0  0  0
   21.2949   20.7323   19.8083 H   0  0  0  0  0  0  0  0  0  0  0  0
  1  2  1  0  0  0  0
  1  3  2  0  0  0  0
  1  4  1  0  0  0  0
  4  5  1  0  0  0  0
  4  6  2  0  0  0  0
  6  7  1  0  0  0  0
  6  8  1  0  0  0  0
  8  9  1  0  0  0  0
  8 10  1  0  0  0  0
  8 11  1  0  0  0  0
 11 12  1  0  0  0  0
 11 13  1  0  0  0  0
 11 14  1  0  0  0  0
 14 15  1  0  0  0  0
 14 16  1  0  0  0  0
 14 17  1  0  0  0  0
M  END
> <VM2 Rank>
5

> <Conf_Id>
171

> <Probability>
9.54

> <Sum Probability>
90.46

> <Delta G>
0.714

> <G>
-28.468

> <E>
-39.435

> <-TS>
10.967

> <U+W>
-52.848

> <U>
10.243

> <W>
-63.091

> <W(PB)>
-65.120

> <W(SA)>
2.028

> <Valence>
2.822

> <Coulomb>
6.636

> <VdW>
0.785

> <VdW6>
-5.215

> <VdW12>
6.000

> <Bond>
0.080

> <Angle>
2.678

> <Pdih>
0.064

> <Idih>
0.000

> <Tether>
0.000

$$$$
VeraChem MOL file


 17 16  0  0  0  0  0  0  0  0999 V2000     
   19.5892   19.1222   25.0684 C   0  0  0  0  0  0  0  0  0  0  0  0
   19.4557   20.0595   25.8308 O   0  5  0  0  0  0  0  0  0  0  0  0
   19.2058   17.9977   25.3309 O   0  0  0  0  0  0  0  0  0  0  0  0
   20.2569   19.3860   23.7651 C   0  0  0  0  0  0  0  0  0  0  0  0
   20.5750   20.4119   23.5947 H   0  0  0  0  0  0  0  0  0  0  0  0
   20.4699   18.4397   22.8223 C   0  0  0  0  0  0  0  0  0  0  0  0
   20.1512   17.4102   22.9834 H   0  0  0  0  0  0  0  0  0  0  0  0
   21.1477   18.7119   21.4953 C   0  0  0  0  0  0  0  0  0  0  0  0
   21.8970   17.9311   21.3088 H   0  0  0  0  0  0  0  0  0  0  0  0
   21.6986   19.6617   21.5305 H   0  0  0  0  0  0  0  0  0  0  0  0
   20.1463   18.7362   20.3198 C   0  0  0  0  0  0  0  0  0  0  0  0
   20.7036   18.8087   19.3756 H   0  0  0  0  0  0  0  0  0  0  0  0
   19.5930   17.7875   20.2854 H   0  0  0  0  0  0  0  0  0  0  0  0
   19.1535   19.9147   20.4095 C   0  0  0  0  0  0  0  0  0  0  0  0
   18.4841   19.9228   19.5396 H   0  0  0  0  0  0  0  0  0  0  0  0
   18.5319   19.8413   21.3114 H   0  0  0  0  0  0  0  0  0  0  0  0
   19.6852   20.8747   20.4372 H   0  0  0  0  0  0  0  0  0  0  0  0
  1  2  1  0  0  0  0
  1  3  2  0  0  0  0
  1  4  1  0  0  0  0
  4  5  1  0  0  0  0
  4  6  2  0  0  0  0
  6  7  1  0  0  0  0
  6  8  1  0  0  0  0
  8  9  1  0  0  0  0
  8 10  1  0  0  0  0
  8 11  1  0  0  0  0
 11 12  1  0  0  0  0
 11 13  1  0  0  0  0
 11 14  1  0  0  0  0
 14 15  1  0  0  0  0
 14 16  1  0  0  0  0
 14 17  1  0  0  0  0
M  END
> <VM2 Rank>
6

> <Conf_Id>
164

> <Probability>
9.54

> <Sum Probability>
100.00

> <Delta G>
0.714

> <G>
-28.467

> <E>
-39.435

> <-TS>
10.968

> <U+W>
-52.849

> <U>
10.243

> <W>
-63.092

> <W(PB)>
-65.137

> <W(SA)>
2.046

> <Valence>
2.822

> <Coulomb>
6.636

> <VdW>
0.785

> <VdW6>
-5.215

> <VdW12>
6.000

> <Bond>
0.080

> <Angle>
2.678

> <Pdih>
0.063

> <Idih>
0.000

> <Tether>
0.000

$$$$
