VeraChem MOL file


 22 21  0  0  0  0  0  0  0  0999 V2000     
   19.8314   19.1341   26.1875 C   0  0  0  0  0  0  0  0  0  0  0  0
   20.0586   20.2372   26.6435 O   0  5  0  0  0  0  0  0  0  0  0  0
   20.1746   18.0998   26.7250 O   0  0  0  0  0  0  0  0  0  0  0  0
   19.0946   19.0434   24.8559 C   0  0  0  0  0  0  0  0  0  0  0  0
   18.3980   19.8881   24.7937 H   0  0  0  0  0  0  0  0  0  0  0  0
   18.4928   18.1266   24.8613 H   0  0  0  0  0  0  0  0  0  0  0  0
   20.0506   19.0481   23.6377 C   0  0  0  0  0  0  0  0  0  0  0  0
   20.6549   19.9658   23.6541 H   0  0  0  0  0  0  0  0  0  0  0  0
   20.7496   18.2043   23.7217 H   0  0  0  0  0  0  0  0  0  0  0  0
   19.2808   18.9555   22.3025 C   0  0  0  0  0  0  0  0  0  0  0  0
   18.5822   19.7997   22.2223 H   0  0  0  0  0  0  0  0  0  0  0  0
   18.6768   18.0378   22.2899 H   0  0  0  0  0  0  0  0  0  0  0  0
   20.2363   18.9603   21.0900 C   0  0  0  0  0  0  0  0  0  0  0  0
   20.8405   19.8778   21.1023 H   0  0  0  0  0  0  0  0  0  0  0  0
   20.9351   18.1162   21.1698 H   0  0  0  0  0  0  0  0  0  0  0  0
   19.4677   18.8679   19.7552 C   0  0  0  0  0  0  0  0  0  0  0  0
   18.7690   19.7118   19.6707 H   0  0  0  0  0  0  0  0  0  0  0  0
   18.8634   17.9502   19.7383 H   0  0  0  0  0  0  0  0  0  0  0  0
   20.4254   18.8729   18.5468 C   0  0  0  0  0  0  0  0  0  0  0  0
   21.1157   18.0202   18.5893 H   0  0  0  0  0  0  0  0  0  0  0  0
   21.0206   19.7950   18.5212 H   0  0  0  0  0  0  0  0  0  0  0  0
   19.8624   18.8067   17.6067 H   0  0  0  0  0  0  0  0  0  0  0  0
  1  2  1  0  0  0  0
  1  3  2  0  0  0  0
  1  4  1  0  0  0  0
  4  5  1  0  0  0  0
  4  6  1  0  0  0  0
  4  7  1  0  0  0  0
  7  8  1  0  0  0  0
  7  9  1  0  0  0  0
  7 10  1  0  0  0  0
 10 11  1  0  0  0  0
 10 12  1  0  0  0  0
 10 13  1  0  0  0  0
 13 14  1  0  0  0  0
 13 15  1  0  0  0  0
 13 16  1  0  0  0  0
 16 17  1  0  0  0  0
 16 18  1  0  0  0  0
 16 19  1  0  0  0  0
 19 20  1  0  0  0  0
 19 21  1  0  0  0  0
 19 22  1  0  0  0  0
M  END
> <VM2 Rank>
1

> <Conf_Id>
236

> <Probability>
33.65

> <Sum Probability>
33.65

> <Delta G>
0.000

> <G>
-16.998

> <E>
-36.566

> <-TS>
19.568

> <U+W>
-54.450

> <U>
5.779

> <W>
-60.230

> <W(PB)>
-62.557

> <W(SA)>
2.328

> <Valence>
7.101

> <Coulomb>
-2.079

> <VdW>
0.757

> <VdW6>
-6.496

> <VdW12>
7.253

> <Bond>
0.100

> <Angle>
2.262

> <Pdih>
4.739

> <Idih>
0.001

> <Tether>
0.000

$$$$
VeraChem MOL file


 22 21  0  0  0  0  0  0  0  0999 V2000     
   19.7291   18.8549   25.9655 C   0  0  0  0  0  0  0  0  0  0  0  0
   19.2130   19.6430   26.7331 O   0  5  0  0  0  0  0  0  0  0  0  0
   20.5233   18.0022   26.3100 O   0  0  0  0  0  0  0  0  0  0  0  0
   19.3784   18.9568   24.4854 C   0  0  0  0  0  0  0  0  0  0  0  0
   18.3434   19.3100   24.4046 H   0  0  0  0  0  0  0  0  0  0  0  0
   19.4111   17.9455   24.0649 H   0  0  0  0  0  0  0  0  0  0  0  0
   20.3291   19.9035   23.7076 C   0  0  0  0  0  0  0  0  0  0  0  0
   20.3426   20.8805   24.2104 H   0  0  0  0  0  0  0  0  0  0  0  0
   21.3556   19.5148   23.7577 H   0  0  0  0  0  0  0  0  0  0  0  0
   19.9205   20.1122   22.2300 C   0  0  0  0  0  0  0  0  0  0  0  0
   20.5731   20.8805   21.7933 H   0  0  0  0  0  0  0  0  0  0  0  0
   18.8976   20.5105   22.1839 H   0  0  0  0  0  0  0  0  0  0  0  0
   20.0179   18.8260   21.3776 C   0  0  0  0  0  0  0  0  0  0  0  0
   21.0269   18.4008   21.4683 H   0  0  0  0  0  0  0  0  0  0  0  0
   19.3163   18.0713   21.7558 H   0  0  0  0  0  0  0  0  0  0  0  0
   19.7076   19.1023   19.8915 C   0  0  0  0  0  0  0  0  0  0  0  0
   20.4100   19.8506   19.4987 H   0  0  0  0  0  0  0  0  0  0  0  0
   18.6997   19.5298   19.7970 H   0  0  0  0  0  0  0  0  0  0  0  0
   19.8011   17.8181   19.0433 C   0  0  0  0  0  0  0  0  0  0  0  0
   20.8090   17.3858   19.0950 H   0  0  0  0  0  0  0  0  0  0  0  0
   19.5781   18.0329   17.9901 H   0  0  0  0  0  0  0  0  0  0  0  0
   19.0856   17.0628   19.3940 H   0  0  0  0  0  0  0  0  0  0  0  0
  1  2  1  0  0  0  0
  1  3  2  0  0  0  0
  1  4  1  0  0  0  0
  4  5  1  0  0  0  0
  4  6  1  0  0  0  0
  4  7  1  0  0  0  0
  7  8  1  0  0  0  0
  7  9  1  0  0  0  0
  7 10  1  0  0  0  0
 10 11  1  0  0  0  0
 10 12  1  0  0  0  0
 10 13  1  0  0  0  0
 13 14  1  0  0  0  0
 13 15  1  0  0  0  0
 13 16  1  0  0  0  0
 16 17  1  0  0  0  0
 16 18  1  0  0  0  0
 16 19  1  0  0  0  0
 19 20  1  0  0  0  0
 19 21  1  0  0  0  0
 19 22  1  0  0  0  0
M  END
> <VM2 Rank>
2

> <Conf_Id>
121

> <Probability>
8.69

> <Sum Probability>
42.34

> <Delta G>
0.807

> <G>
-16.191

> <E>
-35.868

> <-TS>
19.678

> <U+W>
-53.753

> <U>
6.782

> <W>
-60.535

> <W(PB)>
-62.847

> <W(SA)>
2.311

> <Valence>
7.621

> <Coulomb>
-1.711

> <VdW>
0.872

> <VdW6>
-7.188

> <VdW12>
8.060

> <Bond>
0.142

> <Angle>
2.504

> <Pdih>
4.974

> <Idih>
0.001

> <Tether>
0.000

$$$$
VeraChem MOL file


 22 21  0  0  0  0  0  0  0  0999 V2000     
   20.1334   19.1302   25.9560 C   0  0  0  0  0  0  0  0  0  0  0  0
   19.6139   19.9160   26.7236 O   0  5  0  0  0  0  0  0  0  0  0  0
   20.6477   18.0868   26.3071 O   0  0  0  0  0  0  0  0  0  0  0  0
   20.1190   19.4612   24.4679 C   0  0  0  0  0  0  0  0  0  0  0  0
   21.0341   19.0507   24.0264 H   0  0  0  0  0  0  0  0  0  0  0  0
   20.1665   20.5515   24.3614 H   0  0  0  0  0  0  0  0  0  0  0  0
   18.8654   18.9069   23.7423 C   0  0  0  0  0  0  0  0  0  0  0  0
   18.8530   17.8107   23.8170 H   0  0  0  0  0  0  0  0  0  0  0  0
   17.9681   19.2636   24.2667 H   0  0  0  0  0  0  0  0  0  0  0  0
   18.7730   19.3309   22.2572 C   0  0  0  0  0  0  0  0  0  0  0  0
   18.7755   20.4273   22.1868 H   0  0  0  0  0  0  0  0  0  0  0  0
   17.8054   18.9961   21.8589 H   0  0  0  0  0  0  0  0  0  0  0  0
   19.9060   18.7497   21.3802 C   0  0  0  0  0  0  0  0  0  0  0  0
   20.8770   19.1337   21.7189 H   0  0  0  0  0  0  0  0  0  0  0  0
   19.9349   17.6574   21.4940 H   0  0  0  0  0  0  0  0  0  0  0  0
   19.7144   19.1071   19.8913 C   0  0  0  0  0  0  0  0  0  0  0  0
   19.6830   20.1992   19.7738 H   0  0  0  0  0  0  0  0  0  0  0  0
   18.7486   18.7199   19.5380 H   0  0  0  0  0  0  0  0  0  0  0  0
   20.8471   18.5302   19.0184 C   0  0  0  0  0  0  0  0  0  0  0  0
   21.8229   18.9261   19.3291 H   0  0  0  0  0  0  0  0  0  0  0  0
   20.6948   18.7933   17.9636 H   0  0  0  0  0  0  0  0  0  0  0  0
   20.8817   17.4354   19.0932 H   0  0  0  0  0  0  0  0  0  0  0  0
  1  2  1  0  0  0  0
  1  3  2  0  0  0  0
  1  4  1  0  0  0  0
  4  5  1  0  0  0  0
  4  6  1  0  0  0  0
  4  7  1  0  0  0  0
  7  8  1  0  0  0  0
  7  9  1  0  0  0  0
  7 10  1  0  0  0  0
 10 11  1  0  0  0  0
 10 12  1  0  0  0  0
 10 13  1  0  0  0  0
 13 14  1  0  0  0  0
 13 15  1  0  0  0  0
 13 16  1  0  0  0  0
 16 17  1  0  0  0  0
 16 18  1  0  0  0  0
 16 19  1  0  0  0  0
 19 20  1  0  0  0  0
 19 21  1  0  0  0  0
 19 22  1  0  0  0  0
M  END
> <VM2 Rank>
3

> <Conf_Id>
324

> <Probability>
7.79

> <Sum Probability>
50.12

> <Delta G>
0.873

> <G>
-16.125

> <E>
-35.803

> <-TS>
19.677

> <U+W>
-53.688

> <U>
6.782

> <W>
-60.470

> <W(PB)>
-62.789

> <W(SA)>
2.320

> <Valence>
7.621

> <Coulomb>
-1.711

> <VdW>
0.872

> <VdW6>
-7.188

> <VdW12>
8.060

> <Bond>
0.142

> <Angle>
2.504

> <Pdih>
4.974

> <Idih>
0.001

> <Tether>
0.000

$$$$
VeraChem MOL file


 22 21  0  0  0  0  0  0  0  0999 V2000     
   19.9961   19.0328   25.9874 C   0  0  0  0  0  0  0  0  0  0  0  0
   20.3225   20.0799   26.5104 O   0  5  0  0  0  0  0  0  0  0  0  0
   20.4206   17.9476   26.3318 O   0  0  0  0  0  0  0  0  0  0  0  0
   19.0155   19.0853   24.8213 C   0  0  0  0  0  0  0  0  0  0  0  0
   18.3318   19.9263   24.9890 H   0  0  0  0  0  0  0  0  0  0  0  0
   18.4134   18.1690   24.8408 H   0  0  0  0  0  0  0  0  0  0  0  0
   19.7191   19.2328   23.4497 C   0  0  0  0  0  0  0  0  0  0  0  0
   20.3246   20.1496   23.4494 H   0  0  0  0  0  0  0  0  0  0  0  0
   20.4115   18.3915   23.3142 H   0  0  0  0  0  0  0  0  0  0  0  0
   18.7022   19.2788   22.2857 C   0  0  0  0  0  0  0  0  0  0  0  0
   17.9737   20.0779   22.4798 H   0  0  0  0  0  0  0  0  0  0  0  0
   18.1326   18.3399   22.2536 H   0  0  0  0  0  0  0  0  0  0  0  0
   19.3550   19.5357   20.9068 C   0  0  0  0  0  0  0  0  0  0  0  0
   18.5571   19.6779   20.1652 H   0  0  0  0  0  0  0  0  0  0  0  0
   19.9216   20.4764   20.9374 H   0  0  0  0  0  0  0  0  0  0  0  0
   20.2767   18.3874   20.4374 C   0  0  0  0  0  0  0  0  0  0  0  0
   19.7249   17.4375   20.4573 H   0  0  0  0  0  0  0  0  0  0  0  0
   21.1264   18.2792   21.1242 H   0  0  0  0  0  0  0  0  0  0  0  0
   20.8123   18.6387   19.0134 C   0  0  0  0  0  0  0  0  0  0  0  0
   21.4671   17.8168   18.6960 H   0  0  0  0  0  0  0  0  0  0  0  0
   21.3922   19.5699   18.9710 H   0  0  0  0  0  0  0  0  0  0  0  0
   19.9889   18.7140   18.2911 H   0  0  0  0  0  0  0  0  0  0  0  0
  1  2  1  0  0  0  0
  1  3  2  0  0  0  0
  1  4  1  0  0  0  0
  4  5  1  0  0  0  0
  4  6  1  0  0  0  0
  4  7  1  0  0  0  0
  7  8  1  0  0  0  0
  7  9  1  0  0  0  0
  7 10  1  0  0  0  0
 10 11  1  0  0  0  0
 10 12  1  0  0  0  0
 10 13  1  0  0  0  0
 13 14  1  0  0  0  0
 13 15  1  0  0  0  0
 13 16  1  0  0  0  0
 16 17  1  0  0  0  0
 16 18  1  0  0  0  0
 16 19  1  0  0  0  0
 19 20  1  0  0  0  0
 19 21  1  0  0  0  0
 19 22  1  0  0  0  0
M  END
> <VM2 Rank>
4

> <Conf_Id>
132

> <Probability>
7.72

> <Sum Probability>
57.84

> <Delta G>
0.878

> <G>
-16.120

> <E>
-35.794

> <-TS>
19.673

> <U+W>
-53.679

> <U>
7.026

> <W>
-60.705

> <W(PB)>
-63.009

> <W(SA)>
2.304

> <Valence>
7.638

> <Coulomb>
-1.488

> <VdW>
0.877

> <VdW6>
-7.165

> <VdW12>
8.042

> <Bond>
0.134

> <Angle>
2.513

> <Pdih>
4.990

> <Idih>
0.001

> <Tether>
0.000

$$$$
VeraChem MOL file


 22 21  0  0  0  0  0  0  0  0999 V2000     
   19.6004   19.0274   25.9802 C   0  0  0  0  0  0  0  0  0  0  0  0
   19.2262   20.0649   26.4902 O   0  5  0  0  0  0  0  0  0  0  0  0
   19.1946   17.9306   26.3102 O   0  0  0  0  0  0  0  0  0  0  0  0
   20.6207   19.1075   24.8503 C   0  0  0  0  0  0  0  0  0  0  0  0
   21.2468   18.2082   24.8920 H   0  0  0  0  0  0  0  0  0  0  0  0
   21.2743   19.9670   25.0420 H   0  0  0  0  0  0  0  0  0  0  0  0
   19.9632   19.2360   23.4540 C   0  0  0  0  0  0  0  0  0  0  0  0
   19.2996   18.3760   23.2942 H   0  0  0  0  0  0  0  0  0  0  0  0
   19.3330   20.1358   23.4313 H   0  0  0  0  0  0  0  0  0  0  0  0
   21.0198   19.3105   22.3275 C   0  0  0  0  0  0  0  0  0  0  0  0
   21.6157   18.3876   22.3164 H   0  0  0  0  0  0  0  0  0  0  0  0
   21.7187   20.1291   22.5473 H   0  0  0  0  0  0  0  0  0  0  0  0
   20.4104   19.5501   20.9258 C   0  0  0  0  0  0  0  0  0  0  0  0
   19.8177   20.4751   20.9353 H   0  0  0  0  0  0  0  0  0  0  0  0
   21.2303   19.7142   20.2133 H   0  0  0  0  0  0  0  0  0  0  0  0
   19.5377   18.3774   20.4242 C   0  0  0  0  0  0  0  0  0  0  0  0
   18.6671   18.2460   21.0800 H   0  0  0  0  0  0  0  0  0  0  0  0
   20.1140   17.4428   20.4645 H   0  0  0  0  0  0  0  0  0  0  0  0
   19.0471   18.6146   18.9817 C   0  0  0  0  0  0  0  0  0  0  0  0
   19.8936   18.7124   18.2894 H   0  0  0  0  0  0  0  0  0  0  0  0
   18.4441   19.5299   18.9178 H   0  0  0  0  0  0  0  0  0  0  0  0
   18.4266   17.7754   18.6413 H   0  0  0  0  0  0  0  0  0  0  0  0
  1  2  1  0  0  0  0
  1  3  2  0  0  0  0
  1  4  1  0  0  0  0
  4  5  1  0  0  0  0
  4  6  1  0  0  0  0
  4  7  1  0  0  0  0
  7  8  1  0  0  0  0
  7  9  1  0  0  0  0
  7 10  1  0  0  0  0
 10 11  1  0  0  0  0
 10 12  1  0  0  0  0
 10 13  1  0  0  0  0
 13 14  1  0  0  0  0
 13 15  1  0  0  0  0
 13 16  1  0  0  0  0
 16 17  1  0  0  0  0
 16 18  1  0  0  0  0
 16 19  1  0  0  0  0
 19 20  1  0  0  0  0
 19 21  1  0  0  0  0
 19 22  1  0  0  0  0
M  END
> <VM2 Rank>
5

> <Conf_Id>
309

> <Probability>
7.30

> <Sum Probability>
65.14

> <Delta G>
0.911

> <G>
-16.087

> <E>
-35.761

> <-TS>
19.674

> <U+W>
-53.646

> <U>
7.026

> <W>
-60.672

> <W(PB)>
-62.965

> <W(SA)>
2.292

> <Valence>
7.638

> <Coulomb>
-1.488

> <VdW>
0.877

> <VdW6>
-7.165

> <VdW12>
8.042

> <Bond>
0.134

> <Angle>
2.513

> <Pdih>
4.990

> <Idih>
0.001

> <Tether>
0.000

$$$$
VeraChem MOL file


 22 21  0  0  0  0  0  0  0  0999 V2000     
   19.7329   19.2233   26.0947 C   0  0  0  0  0  0  0  0  0  0  0  0
   20.1388   20.2915   26.5078 O   0  5  0  0  0  0  0  0  0  0  0  0
   19.7907   18.1897   26.7310 O   0  0  0  0  0  0  0  0  0  0  0  0
   19.1378   19.1729   24.6920 C   0  0  0  0  0  0  0  0  0  0  0  0
   18.6462   20.1333   24.4957 H   0  0  0  0  0  0  0  0  0  0  0  0
   18.3586   18.4013   24.6799 H   0  0  0  0  0  0  0  0  0  0  0  0
   20.1959   18.8809   23.5996 C   0  0  0  0  0  0  0  0  0  0  0  0
   20.9752   19.6550   23.6329 H   0  0  0  0  0  0  0  0  0  0  0  0
   20.6879   17.9230   23.8182 H   0  0  0  0  0  0  0  0  0  0  0  0
   19.5686   18.8351   22.1893 C   0  0  0  0  0  0  0  0  0  0  0  0
   19.0741   19.7935   21.9842 H   0  0  0  0  0  0  0  0  0  0  0  0
   18.7916   18.0591   22.1583 H   0  0  0  0  0  0  0  0  0  0  0  0
   20.6294   18.5471   21.1021 C   0  0  0  0  0  0  0  0  0  0  0  0
   21.3808   19.3486   21.0965 H   0  0  0  0  0  0  0  0  0  0  0  0
   21.1632   17.6221   21.3596 H   0  0  0  0  0  0  0  0  0  0  0  0
   20.0305   18.3899   19.6851 C   0  0  0  0  0  0  0  0  0  0  0  0
   19.2829   17.5848   19.6854 H   0  0  0  0  0  0  0  0  0  0  0  0
   20.8277   18.0727   18.9988 H   0  0  0  0  0  0  0  0  0  0  0  0
   19.3953   19.6885   19.1424 C   0  0  0  0  0  0  0  0  0  0  0  0
   18.5181   19.9824   19.7321 H   0  0  0  0  0  0  0  0  0  0  0  0
   19.0662   19.5499   18.1044 H   0  0  0  0  0  0  0  0  0  0  0  0
   20.1163   20.5161   19.1607 H   0  0  0  0  0  0  0  0  0  0  0  0
  1  2  1  0  0  0  0
  1  3  2  0  0  0  0
  1  4  1  0  0  0  0
  4  5  1  0  0  0  0
  4  6  1  0  0  0  0
  4  7  1  0  0  0  0
  7  8  1  0  0  0  0
  7  9  1  0  0  0  0
  7 10  1  0  0  0  0
 10 11  1  0  0  0  0
 10 12  1  0  0  0  0
 10 13  1  0  0  0  0
 13 14  1  0  0  0  0
 13 15  1  0  0  0  0
 13 16  1  0  0  0  0
 16 17  1  0  0  0  0
 16 18  1  0  0  0  0
 16 19  1  0  0  0  0
 19 20  1  0  0  0  0
 19 21  1  0  0  0  0
 19 22  1  0  0  0  0
M  END
> <VM2 Rank>
6

> <Conf_Id>
131

> <Probability>
6.71

> <Sum Probability>
71.85

> <Delta G>
0.961

> <G>
-16.037

> <E>
-35.714

> <-TS>
19.677

> <U+W>
-53.599

> <U>
6.751

> <W>
-60.350

> <W(PB)>
-62.659

> <W(SA)>
2.309

> <Valence>
7.602

> <Coulomb>
-1.744

> <VdW>
0.893

> <VdW6>
-7.110

> <VdW12>
8.004

> <Bond>
0.131

> <Angle>
2.489

> <Pdih>
4.982

> <Idih>
0.001

> <Tether>
0.000

$$$$
VeraChem MOL file


 22 21  0  0  0  0  0  0  0  0999 V2000     
   19.7435   19.0279   26.1022 C   0  0  0  0  0  0  0  0  0  0  0  0
   19.6871   20.1073   26.6573 O   0  5  0  0  0  0  0  0  0  0  0  0
   20.2603   18.0443   26.5941 O   0  0  0  0  0  0  0  0  0  0  0  0
   19.1523   18.9065   24.7022 C   0  0  0  0  0  0  0  0  0  0  0  0
   18.2944   19.5863   24.6345 H   0  0  0  0  0  0  0  0  0  0  0  0
   18.7680   17.8865   24.5819 H   0  0  0  0  0  0  0  0  0  0  0  0
   20.1772   19.2267   23.5863 C   0  0  0  0  0  0  0  0  0  0  0  0
   20.5620   20.2460   23.7290 H   0  0  0  0  0  0  0  0  0  0  0  0
   21.0353   18.5461   23.6755 H   0  0  0  0  0  0  0  0  0  0  0  0
   19.5544   19.0967   22.1793 C   0  0  0  0  0  0  0  0  0  0  0  0
   18.6982   19.7795   22.0924 H   0  0  0  0  0  0  0  0  0  0  0  0
   19.1672   18.0776   22.0500 H   0  0  0  0  0  0  0  0  0  0  0  0
   20.5824   19.4137   21.0689 C   0  0  0  0  0  0  0  0  0  0  0  0
   21.0120   20.4079   21.2528 H   0  0  0  0  0  0  0  0  0  0  0  0
   21.4160   18.7000   21.1213 H   0  0  0  0  0  0  0  0  0  0  0  0
   19.9759   19.3966   19.6465 C   0  0  0  0  0  0  0  0  0  0  0  0
   20.7370   19.7448   18.9347 H   0  0  0  0  0  0  0  0  0  0  0  0
   19.1456   20.1139   19.5884 H   0  0  0  0  0  0  0  0  0  0  0  0
   19.4869   17.9994   19.2071 C   0  0  0  0  0  0  0  0  0  0  0  0
   20.2930   17.2584   19.2856 H   0  0  0  0  0  0  0  0  0  0  0  0
   19.1491   18.0219   18.1630 H   0  0  0  0  0  0  0  0  0  0  0  0
   18.6441   17.6583   19.8212 H   0  0  0  0  0  0  0  0  0  0  0  0
  1  2  1  0  0  0  0
  1  3  2  0  0  0  0
  1  4  1  0  0  0  0
  4  5  1  0  0  0  0
  4  6  1  0  0  0  0
  4  7  1  0  0  0  0
  7  8  1  0  0  0  0
  7  9  1  0  0  0  0
  7 10  1  0  0  0  0
 10 11  1  0  0  0  0
 10 12  1  0  0  0  0
 10 13  1  0  0  0  0
 13 14  1  0  0  0  0
 13 15  1  0  0  0  0
 13 16  1  0  0  0  0
 16 17  1  0  0  0  0
 16 18  1  0  0  0  0
 16 19  1  0  0  0  0
 19 20  1  0  0  0  0
 19 21  1  0  0  0  0
 19 22  1  0  0  0  0
M  END
> <VM2 Rank>
7

> <Conf_Id>
99

> <Probability>
6.33

> <Sum Probability>
78.18

> <Delta G>
0.996

> <G>
-16.002

> <E>
-35.679

> <-TS>
19.677

> <U+W>
-53.564

> <U>
6.751

> <W>
-60.315

> <W(PB)>
-62.637

> <W(SA)>
2.321

> <Valence>
7.602

> <Coulomb>
-1.744

> <VdW>
0.893

> <VdW6>
-7.110

> <VdW12>
8.004

> <Bond>
0.131

> <Angle>
2.489

> <Pdih>
4.982

> <Idih>
0.001

> <Tether>
0.000

$$$$
VeraChem MOL file


 22 21  0  0  0  0  0  0  0  0999 V2000     
   19.9959   19.0181   25.8023 C   0  0  0  0  0  0  0  0  0  0  0  0
   20.5947   19.9817   26.2379 O   0  5  0  0  0  0  0  0  0  0  0  0
   20.3756   17.8719   25.9402 O   0  0  0  0  0  0  0  0  0  0  0  0
   18.6863   19.2618   25.0576 C   0  0  0  0  0  0  0  0  0  0  0  0
   18.1022   19.9781   25.6472 H   0  0  0  0  0  0  0  0  0  0  0  0
   18.1149   18.3258   25.0383 H   0  0  0  0  0  0  0  0  0  0  0  0
   18.8716   19.8059   23.6172 C   0  0  0  0  0  0  0  0  0  0  0  0
   17.8888   20.0807   23.2109 H   0  0  0  0  0  0  0  0  0  0  0  0
   19.4691   20.7276   23.6504 H   0  0  0  0  0  0  0  0  0  0  0  0
   19.5431   18.7804   22.6764 C   0  0  0  0  0  0  0  0  0  0  0  0
   18.9491   17.8563   22.6571 H   0  0  0  0  0  0  0  0  0  0  0  0
   20.5347   18.5133   23.0674 H   0  0  0  0  0  0  0  0  0  0  0  0
   19.6887   19.3308   21.2414 C   0  0  0  0  0  0  0  0  0  0  0  0
   18.6981   19.5959   20.8472 H   0  0  0  0  0  0  0  0  0  0  0  0
   20.2828   20.2548   21.2616 H   0  0  0  0  0  0  0  0  0  0  0  0
   20.3600   18.3076   20.3015 C   0  0  0  0  0  0  0  0  0  0  0  0
   19.7676   17.3824   20.2775 H   0  0  0  0  0  0  0  0  0  0  0  0
   21.3521   18.0414   20.6917 H   0  0  0  0  0  0  0  0  0  0  0  0
   20.5041   18.8609   18.8695 C   0  0  0  0  0  0  0  0  0  0  0  0
   19.5227   19.1062   18.4426 H   0  0  0  0  0  0  0  0  0  0  0  0
   20.9829   18.1209   18.2152 H   0  0  0  0  0  0  0  0  0  0  0  0
   21.1192   19.7703   18.8599 H   0  0  0  0  0  0  0  0  0  0  0  0
  1  2  1  0  0  0  0
  1  3  2  0  0  0  0
  1  4  1  0  0  0  0
  4  5  1  0  0  0  0
  4  6  1  0  0  0  0
  4  7  1  0  0  0  0
  7  8  1  0  0  0  0
  7  9  1  0  0  0  0
  7 10  1  0  0  0  0
 10 11  1  0  0  0  0
 10 12  1  0  0  0  0
 10 13  1  0  0  0  0
 13 14  1  0  0  0  0
 13 15  1  0  0  0  0
 13 16  1  0  0  0  0
 16 17  1  0  0  0  0
 16 18  1  0  0  0  0
 16 19  1  0  0  0  0
 19 20  1  0  0  0  0
 19 21  1  0  0  0  0
 19 22  1  0  0  0  0
M  END
> <VM2 Rank>
8

> <Conf_Id>
134

> <Probability>
2.99

> <Sum Probability>
81.17

> <Delta G>
1.443

> <G>
-15.555

> <E>
-35.435

> <-TS>
19.880

> <U+W>
-53.320

> <U>
7.937

> <W>
-61.257

> <W(PB)>
-63.561

> <W(SA)>
2.304

> <Valence>
7.358

> <Coulomb>
-0.021

> <VdW>
0.600

> <VdW6>
-7.363

> <VdW12>
7.964

> <Bond>
0.121

> <Angle>
2.425

> <Pdih>
4.811

> <Idih>
0.001

> <Tether>
0.000

$$$$
