@<TRIPOS>MOLECULE
guest-s11_vm2.mol2 : vm2 ligand conformer 1
          20          19           1
SMALL
USER_CHARGES
 
@<TRIPOS>ATOM
       1    N1      19.735795   18.939116   25.647866 N.4        1 MOL1        -0.5919
       2    H1      20.263166   19.185106   26.492241 H          1 MOL1         0.3682
       3    H2      18.838666   19.431443   25.704101 H          1 MOL1         0.3682
       4    H3      19.533133   17.936151   25.705978 H          1 MOL1         0.3682
       5    C1      20.497263   19.291192   24.385844 C.3        1 MOL1         0.0252
       6    H4      21.451112   18.757116   24.407078 H          1 MOL1         0.0971
       7    H5      20.704476   20.364602   24.405048 H          1 MOL1         0.0971
       8    C2      19.732576   18.934399   23.098512 C.3        1 MOL1        -0.1369
       9    H6      19.512730   17.858444   23.090958 H          1 MOL1         0.0997
      10    H7      18.768541   19.460339   23.089045 H          1 MOL1         0.0997
      11    C3      20.542086   19.308976   21.837117 C.3        1 MOL1        -0.1329
      12    H8      21.508062   18.785100   21.852452 H          1 MOL1         0.0997
      13    H9      20.764718   20.385102   21.850539 H          1 MOL1         0.0997
      14    C4      19.783869   18.955163   20.538096 C.3        1 MOL1        -0.1305
      15    H10     19.561003   17.879042   20.519573 H          1 MOL1         0.0997
      16    H11     18.817756   19.478857   20.517657 H          1 MOL1         0.0997
      17    C5      20.596411   19.331154   19.280565 C.3        1 MOL1        -0.2320
      18    H12     20.042037   19.072530   18.369069 H          1 MOL1         0.1008
      19    H13     20.805644   20.408500   19.252936 H          1 MOL1         0.1008
      20    H14     21.554691   18.796129   19.254846 H          1 MOL1         0.1008
@<TRIPOS>BOND
    1     1     2    1
    2     1     3    1
    3     1     4    1
    4     1     5    1
    5     5     6    1
    6     5     7    1
    7     5     8    1
    8     8     9    1
    9     8    10    1
   10     8    11    1
   11    11    12    1
   12    11    13    1
   13    11    14    1
   14    14    15    1
   15    14    16    1
   16    14    17    1
   17    17    18    1
   18    17    19    1
   19    17    20    1
@<TRIPOS>SUBSTRUCTURE
       1 MOL1            1 RESIDUE      1      MOL     
@<SCITEGIC>MOL_PROPERTY
VM2 Rank
SciTegic.value.IntegerValue
1

@<SCITEGIC>MOL_PROPERTY
Conf_Id
SciTegic.value.IntegerValue
170

@<SCITEGIC>MOL_PROPERTY
Probability
SciTegic.value.DoubleValue
18.31

@<SCITEGIC>MOL_PROPERTY
Sum Probability
SciTegic.value.DoubleValue
18.31

@<SCITEGIC>MOL_PROPERTY
Delta G
SciTegic.value.DoubleValue
0.000

@<SCITEGIC>MOL_PROPERTY
G
SciTegic.value.DoubleValue
27.005

@<SCITEGIC>MOL_PROPERTY
E
SciTegic.value.DoubleValue
4.317

@<SCITEGIC>MOL_PROPERTY
-TS
SciTegic.value.DoubleValue
22.689

@<SCITEGIC>MOL_PROPERTY
U+W
SciTegic.value.DoubleValue
-11.779

@<SCITEGIC>MOL_PROPERTY
U
SciTegic.value.DoubleValue
45.772

@<SCITEGIC>MOL_PROPERTY
W
SciTegic.value.DoubleValue
-57.550

@<SCITEGIC>MOL_PROPERTY
W(PB)
SciTegic.value.DoubleValue
-59.509

@<SCITEGIC>MOL_PROPERTY
W(SA)
SciTegic.value.DoubleValue
1.960

@<SCITEGIC>MOL_PROPERTY
Valence
SciTegic.value.DoubleValue
1.299

@<SCITEGIC>MOL_PROPERTY
Coulomb
SciTegic.value.DoubleValue
44.177

@<SCITEGIC>MOL_PROPERTY
VdW
SciTegic.value.DoubleValue
0.297

@<SCITEGIC>MOL_PROPERTY
VdW6
SciTegic.value.DoubleValue
-3.490

@<SCITEGIC>MOL_PROPERTY
VdW12
SciTegic.value.DoubleValue
3.786

@<SCITEGIC>MOL_PROPERTY
Bond
SciTegic.value.DoubleValue
0.096

@<SCITEGIC>MOL_PROPERTY
Angle
SciTegic.value.DoubleValue
0.381

@<SCITEGIC>MOL_PROPERTY
Pdih
SciTegic.value.DoubleValue
0.822

@<SCITEGIC>MOL_PROPERTY
Idih
SciTegic.value.DoubleValue
0.000

@<SCITEGIC>MOL_PROPERTY
Tether
SciTegic.value.DoubleValue
0.000

