VeraChem MOL file


 22 22  0  0  0  0  0  0  0  0999 V2000     
   19.8825   19.0490   20.9026 C   0  0  0  0  0  0  0  0  0  0  0  0
   20.8932   19.1566   20.4859 H   0  0  0  0  0  0  0  0  0  0  0  0
   19.2824   18.5760   20.1134 H   0  0  0  0  0  0  0  0  0  0  0  0
   19.2917   20.4493   21.1836 C   0  0  0  0  0  0  0  0  0  0  0  0
   19.3610   21.0412   20.2608 H   0  0  0  0  0  0  0  0  0  0  0  0
   18.2185   20.3558   21.3990 H   0  0  0  0  0  0  0  0  0  0  0  0
   19.9806   21.2344   22.3249 C   0  0  0  0  0  0  0  0  0  0  0  0
   19.6224   22.2720   22.2799 H   0  0  0  0  0  0  0  0  0  0  0  0
   21.0669   21.2803   22.1688 H   0  0  0  0  0  0  0  0  0  0  0  0
   19.6467   20.6732   23.7283 C   0  0  0  0  0  0  0  0  0  0  0  0
   19.7185   21.4905   24.4577 H   0  0  0  0  0  0  0  0  0  0  0  0
   18.5974   20.3507   23.7487 H   0  0  0  0  0  0  0  0  0  0  0  0
   20.5644   19.5313   24.2234 C   0  0  0  0  0  0  0  0  0  0  0  0
   21.4771   19.9849   24.6358 H   0  0  0  0  0  0  0  0  0  0  0  0
   21.0068   18.5018   23.1578 C   0  0  0  0  0  0  0  0  0  0  0  0
   21.8884   18.8894   22.6312 H   0  0  0  0  0  0  0  0  0  0  0  0
   21.3564   17.5991   23.6767 H   0  0  0  0  0  0  0  0  0  0  0  0
   19.9265   18.1001   22.1235 C   0  0  0  0  0  0  0  0  0  0  0  0
   20.1660   17.0931   21.7555 H   0  0  0  0  0  0  0  0  0  0  0  0
   18.9371   18.0248   22.5940 H   0  0  0  0  0  0  0  0  0  0  0  0
   19.8869   18.8389   25.2629 O   0  0  0  0  0  0  0  0  0  0  0  0
   19.1422   18.3715   24.8327 H   0  0  0  0  0  0  0  0  0  0  0  0
  1  2  1  0  0  0  0
  1  3  1  0  0  0  0
  1  4  1  0  0  0  0
  4  5  1  0  0  0  0
  4  6  1  0  0  0  0
  4  7  1  0  0  0  0
  7  8  1  0  0  0  0
  7  9  1  0  0  0  0
  7 10  1  0  0  0  0
 10 11  1  0  0  0  0
 10 12  1  0  0  0  0
 10 13  1  0  0  0  0
 13 14  1  0  0  0  0
 13 15  1  0  0  0  0
 15 16  1  0  0  0  0
 15 17  1  0  0  0  0
  1 18  1  0  0  0  0
 15 18  1  0  0  0  0
 18 19  1  0  0  0  0
 18 20  1  0  0  0  0
 13 21  1  0  0  0  0
 21 22  1  0  0  0  0
M  END
> <VM2 Rank>
1

> <Conf_Id>
1132

> <Probability>
7.58

> <Sum Probability>
7.58

> <Delta G>
0.000

> <G>
47.363

> <E>
20.694

> <-TS>
26.668

> <U+W>
2.809

> <U>
4.530

> <W>
-1.721

> <W(PB)>
-3.723

> <W(SA)>
2.002

> <Valence>
12.224

> <Coulomb>
-9.755

> <VdW>
2.062

> <VdW6>
-9.196

> <VdW12>
11.257

> <Bond>
0.216

> <Angle>
2.754

> <Pdih>
9.253

> <Idih>
0.000

> <Tether>
0.000

$$$$
