VeraChem MOL file


 26 25  0  0  0  0  0  0  0  0999 V2000     
   19.9837   18.6238   26.4861 N   0  3  0  0  0  0  0  0  0  0  0  0
   20.8628   18.0855   26.5331 H   0  0  0  0  0  0  0  0  0  0  0  0
   19.2304   17.9187   26.4755 H   0  0  0  0  0  0  0  0  0  0  0  0
   19.9441   19.4507   25.2166 C   0  0  0  0  0  0  0  0  0  0  0  0
   20.7597   20.1767   25.2638 H   0  0  0  0  0  0  0  0  0  0  0  0
   18.9975   19.9966   25.2015 H   0  0  0  0  0  0  0  0  0  0  0  0
   20.0757   18.6065   23.9359 C   0  0  0  0  0  0  0  0  0  0  0  0
   21.0204   18.0470   23.9630 H   0  0  0  0  0  0  0  0  0  0  0  0
   19.2641   17.8676   23.9008 H   0  0  0  0  0  0  0  0  0  0  0  0
   20.0303   19.4900   22.6695 C   0  0  0  0  0  0  0  0  0  0  0  0
   20.8404   20.2315   22.7111 H   0  0  0  0  0  0  0  0  0  0  0  0
   19.0862   20.0521   22.6489 H   0  0  0  0  0  0  0  0  0  0  0  0
   20.1618   18.6528   21.3767 C   0  0  0  0  0  0  0  0  0  0  0  0
   21.1058   18.0907   21.3971 H   0  0  0  0  0  0  0  0  0  0  0  0
   19.3518   17.9114   21.3349 H   0  0  0  0  0  0  0  0  0  0  0  0
   20.1163   19.5367   20.1103 C   0  0  0  0  0  0  0  0  0  0  0  0
   20.9263   20.2788   20.1462 H   0  0  0  0  0  0  0  0  0  0  0  0
   19.1725   20.0993   20.0839 H   0  0  0  0  0  0  0  0  0  0  0  0
   20.2479   18.6974   18.8214 C   0  0  0  0  0  0  0  0  0  0  0  0
   19.4313   17.9683   18.7398 H   0  0  0  0  0  0  0  0  0  0  0  0
   21.1988   18.1492   18.8025 H   0  0  0  0  0  0  0  0  0  0  0  0
   20.2134   19.3422   17.9337 H   0  0  0  0  0  0  0  0  0  0  0  0
   19.8481   19.5321   27.7004 C   0  0  0  0  0  0  0  0  0  0  0  0
   18.8967   20.0656   27.6454 H   0  0  0  0  0  0  0  0  0  0  0  0
   19.8782   18.9242   28.6075 H   0  0  0  0  0  0  0  0  0  0  0  0
   20.6736   20.2472   27.7081 H   0  0  0  0  0  0  0  0  0  0  0  0
  1  2  1  0  0  0  0
  1  3  1  0  0  0  0
  1  4  1  0  0  0  0
  4  5  1  0  0  0  0
  4  6  1  0  0  0  0
  4  7  1  0  0  0  0
  7  8  1  0  0  0  0
  7  9  1  0  0  0  0
  7 10  1  0  0  0  0
 10 11  1  0  0  0  0
 10 12  1  0  0  0  0
 10 13  1  0  0  0  0
 13 14  1  0  0  0  0
 13 15  1  0  0  0  0
 13 16  1  0  0  0  0
 16 17  1  0  0  0  0
 16 18  1  0  0  0  0
 16 19  1  0  0  0  0
 19 20  1  0  0  0  0
 19 21  1  0  0  0  0
 19 22  1  0  0  0  0
  1 23  1  0  0  0  0
 23 24  1  0  0  0  0
 23 25  1  0  0  0  0
 23 26  1  0  0  0  0
M  END
> <VM2 Rank>
1

> <Conf_Id>
1411

> <Probability>
6.92

> <Sum Probability>
6.92

> <Delta G>
0.000

> <G>
75.466

> <E>
43.303

> <-TS>
32.163

> <U+W>
21.842

> <U>
70.357

> <W>
-48.515

> <W(PB)>
-50.856

> <W(SA)>
2.341

> <Valence>
1.714

> <Coulomb>
68.480

> <VdW>
0.163

> <VdW6>
-5.268

> <VdW12>
5.431

> <Bond>
0.126

> <Angle>
0.350

> <Pdih>
1.238

> <Idih>
0.000

> <Tether>
0.000

$$$$
VeraChem MOL file


 26 25  0  0  0  0  0  0  0  0999 V2000     
   20.3923   19.0036   26.6222 N   0  3  0  0  0  0  0  0  0  0  0  0
   20.8629   19.5629   27.3515 H   0  0  0  0  0  0  0  0  0  0  0  0
   20.8764   18.0925   26.6321 H   0  0  0  0  0  0  0  0  0  0  0  0
   20.5687   19.6777   25.2718 C   0  0  0  0  0  0  0  0  0  0  0  0
   21.6300   19.9160   25.1643 H   0  0  0  0  0  0  0  0  0  0  0  0
   20.0105   20.6172   25.2890 H   0  0  0  0  0  0  0  0  0  0  0  0
   20.1225   18.8244   24.0671 C   0  0  0  0  0  0  0  0  0  0  0  0
   20.6520   17.8627   24.0860 H   0  0  0  0  0  0  0  0  0  0  0  0
   19.0502   18.6034   24.1455 H   0  0  0  0  0  0  0  0  0  0  0  0
   20.4031   19.5463   22.7305 C   0  0  0  0  0  0  0  0  0  0  0  0
   21.4764   19.7694   22.6529 H   0  0  0  0  0  0  0  0  0  0  0  0
   19.8767   20.5110   22.7181 H   0  0  0  0  0  0  0  0  0  0  0  0
   19.9616   18.7009   21.5140 C   0  0  0  0  0  0  0  0  0  0  0  0
   20.4877   17.7362   21.5264 H   0  0  0  0  0  0  0  0  0  0  0  0
   18.8883   18.4780   21.5912 H   0  0  0  0  0  0  0  0  0  0  0  0
   20.2425   19.4231   20.1774 C   0  0  0  0  0  0  0  0  0  0  0  0
   21.3155   19.6461   20.0942 H   0  0  0  0  0  0  0  0  0  0  0  0
   19.7163   20.3879   20.1591 H   0  0  0  0  0  0  0  0  0  0  0  0
   19.8003   18.5760   18.9651 C   0  0  0  0  0  0  0  0  0  0  0  0
   20.3352   17.6177   18.9367 H   0  0  0  0  0  0  0  0  0  0  0  0
   20.0077   19.1052   18.0260 H   0  0  0  0  0  0  0  0  0  0  0  0
   18.7235   18.3654   19.0021 H   0  0  0  0  0  0  0  0  0  0  0  0
   18.9170   18.8379   26.9689 C   0  0  0  0  0  0  0  0  0  0  0  0
   18.8315   18.3853   27.9593 H   0  0  0  0  0  0  0  0  0  0  0  0
   18.4361   19.8185   26.9690 H   0  0  0  0  0  0  0  0  0  0  0  0
   18.4415   18.1918   26.2282 H   0  0  0  0  0  0  0  0  0  0  0  0
  1  2  1  0  0  0  0
  1  3  1  0  0  0  0
  1  4  1  0  0  0  0
  4  5  1  0  0  0  0
  4  6  1  0  0  0  0
  4  7  1  0  0  0  0
  7  8  1  0  0  0  0
  7  9  1  0  0  0  0
  7 10  1  0  0  0  0
 10 11  1  0  0  0  0
 10 12  1  0  0  0  0
 10 13  1  0  0  0  0
 13 14  1  0  0  0  0
 13 15  1  0  0  0  0
 13 16  1  0  0  0  0
 16 17  1  0  0  0  0
 16 18  1  0  0  0  0
 16 19  1  0  0  0  0
 19 20  1  0  0  0  0
 19 21  1  0  0  0  0
 19 22  1  0  0  0  0
  1 23  1  0  0  0  0
 23 24  1  0  0  0  0
 23 25  1  0  0  0  0
 23 26  1  0  0  0  0
M  END
> <VM2 Rank>
2

> <Conf_Id>
1192

> <Probability>
4.26

> <Sum Probability>
11.17

> <Delta G>
0.290

> <G>
75.756

> <E>
43.422

> <-TS>
32.333

> <U+W>
21.960

> <U>
70.745

> <W>
-48.785

> <W(PB)>
-51.114

> <W(SA)>
2.329

> <Valence>
1.993

> <Coulomb>
68.323

> <VdW>
0.429

> <VdW6>
-5.973

> <VdW12>
6.402

> <Bond>
0.161

> <Angle>
0.472

> <Pdih>
1.360

> <Idih>
0.000

> <Tether>
0.000

$$$$
VeraChem MOL file


 26 25  0  0  0  0  0  0  0  0999 V2000     
   19.4984   18.9123   26.5906 N   0  3  0  0  0  0  0  0  0  0  0  0
   19.2090   17.9221   26.5732 H   0  0  0  0  0  0  0  0  0  0  0  0
   18.8747   19.3597   27.2811 H   0  0  0  0  0  0  0  0  0  0  0  0
   19.2843   19.5464   25.2263 C   0  0  0  0  0  0  0  0  0  0  0  0
   19.6384   20.5791   25.2758 H   0  0  0  0  0  0  0  0  0  0  0  0
   18.2069   19.5658   25.0431 H   0  0  0  0  0  0  0  0  0  0  0  0
   19.9770   18.8096   24.0619 C   0  0  0  0  0  0  0  0  0  0  0  0
   21.0637   18.8094   24.2168 H   0  0  0  0  0  0  0  0  0  0  0  0
   19.6530   17.7605   24.0507 H   0  0  0  0  0  0  0  0  0  0  0  0
   19.6505   19.4693   22.7038 C   0  0  0  0  0  0  0  0  0  0  0  0
   19.9704   20.5206   22.7214 H   0  0  0  0  0  0  0  0  0  0  0  0
   18.5624   19.4711   22.5497 H   0  0  0  0  0  0  0  0  0  0  0  0
   20.3380   18.7394   21.5274 C   0  0  0  0  0  0  0  0  0  0  0  0
   21.4261   18.7378   21.6812 H   0  0  0  0  0  0  0  0  0  0  0  0
   20.0185   17.6881   21.5099 H   0  0  0  0  0  0  0  0  0  0  0  0
   20.0112   19.3994   20.1692 C   0  0  0  0  0  0  0  0  0  0  0  0
   20.3310   20.4509   20.1809 H   0  0  0  0  0  0  0  0  0  0  0  0
   18.9238   19.4010   20.0094 H   0  0  0  0  0  0  0  0  0  0  0  0
   20.6996   18.6680   18.9970 C   0  0  0  0  0  0  0  0  0  0  0  0
   21.7914   18.6797   19.1109 H   0  0  0  0  0  0  0  0  0  0  0  0
   20.4556   19.1509   18.0419 H   0  0  0  0  0  0  0  0  0  0  0  0
   20.3732   17.6215   18.9382 H   0  0  0  0  0  0  0  0  0  0  0  0
   20.9489   19.0457   27.0407 C   0  0  0  0  0  0  0  0  0  0  0  0
   21.2205   20.1032   27.0673 H   0  0  0  0  0  0  0  0  0  0  0  0
   21.0546   18.6127   28.0380 H   0  0  0  0  0  0  0  0  0  0  0  0
   21.5957   18.5142   26.3398 H   0  0  0  0  0  0  0  0  0  0  0  0
  1  2  1  0  0  0  0
  1  3  1  0  0  0  0
  1  4  1  0  0  0  0
  4  5  1  0  0  0  0
  4  6  1  0  0  0  0
  4  7  1  0  0  0  0
  7  8  1  0  0  0  0
  7  9  1  0  0  0  0
  7 10  1  0  0  0  0
 10 11  1  0  0  0  0
 10 12  1  0  0  0  0
 10 13  1  0  0  0  0
 13 14  1  0  0  0  0
 13 15  1  0  0  0  0
 13 16  1  0  0  0  0
 16 17  1  0  0  0  0
 16 18  1  0  0  0  0
 16 19  1  0  0  0  0
 19 20  1  0  0  0  0
 19 21  1  0  0  0  0
 19 22  1  0  0  0  0
  1 23  1  0  0  0  0
 23 24  1  0  0  0  0
 23 25  1  0  0  0  0
 23 26  1  0  0  0  0
M  END
> <VM2 Rank>
3

> <Conf_Id>
37

> <Probability>
4.21

> <Sum Probability>
15.38

> <Delta G>
0.296

> <G>
75.762

> <E>
43.429

> <-TS>
32.333

> <U+W>
21.967

> <U>
70.745

> <W>
-48.778

> <W(PB)>
-51.115

> <W(SA)>
2.337

> <Valence>
1.993

> <Coulomb>
68.323

> <VdW>
0.429

> <VdW6>
-5.973

> <VdW12>
6.403

> <Bond>
0.161

> <Angle>
0.472

> <Pdih>
1.360

> <Idih>
0.000

> <Tether>
0.000

$$$$
VeraChem MOL file


 26 25  0  0  0  0  0  0  0  0999 V2000     
   19.3272   19.1681   25.9039 N   0  3  0  0  0  0  0  0  0  0  0  0
   18.7828   18.2916   25.9026 H   0  0  0  0  0  0  0  0  0  0  0  0
   18.8267   19.8054   25.2664 H   0  0  0  0  0  0  0  0  0  0  0  0
   20.7303   18.9115   25.3886 C   0  0  0  0  0  0  0  0  0  0  0  0
   21.2210   18.2345   26.0926 H   0  0  0  0  0  0  0  0  0  0  0  0
   21.2711   19.8612   25.3953 H   0  0  0  0  0  0  0  0  0  0  0  0
   20.7755   18.2988   23.9749 C   0  0  0  0  0  0  0  0  0  0  0  0
   21.8196   18.0572   23.7351 H   0  0  0  0  0  0  0  0  0  0  0  0
   20.2254   17.3483   23.9694 H   0  0  0  0  0  0  0  0  0  0  0  0
   20.2077   19.2478   22.8928 C   0  0  0  0  0  0  0  0  0  0  0  0
   20.7445   20.2061   22.9287 H   0  0  0  0  0  0  0  0  0  0  0  0
   19.1521   19.4659   23.1028 H   0  0  0  0  0  0  0  0  0  0  0  0
   20.3293   18.6416   21.4762 C   0  0  0  0  0  0  0  0  0  0  0  0
   21.3844   18.4262   21.2575 H   0  0  0  0  0  0  0  0  0  0  0  0
   19.7954   17.6818   21.4402 H   0  0  0  0  0  0  0  0  0  0  0  0
   19.7623   19.5870   20.3936 C   0  0  0  0  0  0  0  0  0  0  0  0
   20.2946   20.5481   20.4243 H   0  0  0  0  0  0  0  0  0  0  0  0
   18.7058   19.8033   20.6057 H   0  0  0  0  0  0  0  0  0  0  0  0
   19.8862   18.9783   18.9804 C   0  0  0  0  0  0  0  0  0  0  0  0
   19.4786   19.6637   18.2260 H   0  0  0  0  0  0  0  0  0  0  0  0
   19.3347   18.0318   18.9083 H   0  0  0  0  0  0  0  0  0  0  0  0
   20.9358   18.7826   18.7254 H   0  0  0  0  0  0  0  0  0  0  0  0
   19.3896   19.7569   27.3064 C   0  0  0  0  0  0  0  0  0  0  0  0
   19.9426   20.6983   27.2764 H   0  0  0  0  0  0  0  0  0  0  0  0
   18.3737   19.9369   27.6649 H   0  0  0  0  0  0  0  0  0  0  0  0
   19.8952   19.0516   27.9697 H   0  0  0  0  0  0  0  0  0  0  0  0
  1  2  1  0  0  0  0
  1  3  1  0  0  0  0
  1  4  1  0  0  0  0
  4  5  1  0  0  0  0
  4  6  1  0  0  0  0
  4  7  1  0  0  0  0
  7  8  1  0  0  0  0
  7  9  1  0  0  0  0
  7 10  1  0  0  0  0
 10 11  1  0  0  0  0
 10 12  1  0  0  0  0
 10 13  1  0  0  0  0
 13 14  1  0  0  0  0
 13 15  1  0  0  0  0
 13 16  1  0  0  0  0
 16 17  1  0  0  0  0
 16 18  1  0  0  0  0
 16 19  1  0  0  0  0
 19 20  1  0  0  0  0
 19 21  1  0  0  0  0
 19 22  1  0  0  0  0
  1 23  1  0  0  0  0
 23 24  1  0  0  0  0
 23 25  1  0  0  0  0
 23 26  1  0  0  0  0
M  END
> <VM2 Rank>
4

> <Conf_Id>
1284

> <Probability>
3.12

> <Sum Probability>
18.50

> <Delta G>
0.475

> <G>
75.941

> <E>
43.686

> <-TS>
32.255

> <U+W>
22.224

> <U>
71.143

> <W>
-48.919

> <W(PB)>
-51.255

> <W(SA)>
2.337

> <Valence>
1.835

> <Coulomb>
69.101

> <VdW>
0.206

> <VdW6>
-5.849

> <VdW12>
6.055

> <Bond>
0.142

> <Angle>
0.413

> <Pdih>
1.279

> <Idih>
0.000

> <Tether>
0.000

$$$$
VeraChem MOL file


 26 25  0  0  0  0  0  0  0  0999 V2000     
   20.5559   19.2935   25.9475 N   0  3  0  0  0  0  0  0  0  0  0  0
   20.9610   20.0232   25.3420 H   0  0  0  0  0  0  0  0  0  0  0  0
   21.2647   18.5448   25.9906 H   0  0  0  0  0  0  0  0  0  0  0  0
   19.2731   18.7628   25.3370 C   0  0  0  0  0  0  0  0  0  0  0  0
   18.5527   19.5838   25.2990 H   0  0  0  0  0  0  0  0  0  0  0  0
   18.8809   17.9958   26.0096 H   0  0  0  0  0  0  0  0  0  0  0  0
   19.4515   18.1637   23.9280 C   0  0  0  0  0  0  0  0  0  0  0  0
   20.1810   17.3437   23.9678 H   0  0  0  0  0  0  0  0  0  0  0  0
   18.4970   17.7183   23.6173 H   0  0  0  0  0  0  0  0  0  0  0  0
   19.8907   19.2155   22.8816 C   0  0  0  0  0  0  0  0  0  0  0  0
   20.8634   19.6403   23.1635 H   0  0  0  0  0  0  0  0  0  0  0  0
   19.1706   20.0456   22.8730 H   0  0  0  0  0  0  0  0  0  0  0  0
   19.9933   18.6073   21.4643 C   0  0  0  0  0  0  0  0  0  0  0  0
   20.7109   17.7751   21.4725 H   0  0  0  0  0  0  0  0  0  0  0  0
   19.0212   18.1852   21.1738 H   0  0  0  0  0  0  0  0  0  0  0  0
   20.4325   19.6553   20.4174 C   0  0  0  0  0  0  0  0  0  0  0  0
   21.4062   20.0786   20.7014 H   0  0  0  0  0  0  0  0  0  0  0  0
   19.7165   20.4892   20.4039 H   0  0  0  0  0  0  0  0  0  0  0  0
   20.5330   19.0444   19.0033 C   0  0  0  0  0  0  0  0  0  0  0  0
   21.2676   18.2290   18.9767 H   0  0  0  0  0  0  0  0  0  0  0  0
   20.8459   19.8032   18.2744 H   0  0  0  0  0  0  0  0  0  0  0  0
   19.5648   18.6429   18.6768 H   0  0  0  0  0  0  0  0  0  0  0  0
   20.2779   19.8476   27.3379 C   0  0  0  0  0  0  0  0  0  0  0  0
   19.8798   19.0501   27.9692 H   0  0  0  0  0  0  0  0  0  0  0  0
   21.2090   20.2263   27.7654 H   0  0  0  0  0  0  0  0  0  0  0  0
   19.5499   20.6583   27.2625 H   0  0  0  0  0  0  0  0  0  0  0  0
  1  2  1  0  0  0  0
  1  3  1  0  0  0  0
  1  4  1  0  0  0  0
  4  5  1  0  0  0  0
  4  6  1  0  0  0  0
  4  7  1  0  0  0  0
  7  8  1  0  0  0  0
  7  9  1  0  0  0  0
  7 10  1  0  0  0  0
 10 11  1  0  0  0  0
 10 12  1  0  0  0  0
 10 13  1  0  0  0  0
 13 14  1  0  0  0  0
 13 15  1  0  0  0  0
 13 16  1  0  0  0  0
 16 17  1  0  0  0  0
 16 18  1  0  0  0  0
 16 19  1  0  0  0  0
 19 20  1  0  0  0  0
 19 21  1  0  0  0  0
 19 22  1  0  0  0  0
  1 23  1  0  0  0  0
 23 24  1  0  0  0  0
 23 25  1  0  0  0  0
 23 26  1  0  0  0  0
M  END
> <VM2 Rank>
5

> <Conf_Id>
484

> <Probability>
3.10

> <Sum Probability>
21.61

> <Delta G>
0.478

> <G>
75.944

> <E>
43.689

> <-TS>
32.255

> <U+W>
22.227

> <U>
71.142

> <W>
-48.916

> <W(PB)>
-51.253

> <W(SA)>
2.337

> <Valence>
1.835

> <Coulomb>
69.101

> <VdW>
0.206

> <VdW6>
-5.849

> <VdW12>
6.055

> <Bond>
0.142

> <Angle>
0.413

> <Pdih>
1.279

> <Idih>
0.000

> <Tether>
0.000

$$$$
VeraChem MOL file


 26 25  0  0  0  0  0  0  0  0999 V2000     
   19.9280   18.8065   26.2896 N   0  3  0  0  0  0  0  0  0  0  0  0
   20.7994   19.0415   26.7899 H   0  0  0  0  0  0  0  0  0  0  0  0
   19.8664   17.7767   26.3147 H   0  0  0  0  0  0  0  0  0  0  0  0
   20.0012   19.2913   24.8557 C   0  0  0  0  0  0  0  0  0  0  0  0
   20.0759   20.3815   24.8737 H   0  0  0  0  0  0  0  0  0  0  0  0
   19.0646   19.0178   24.3640 H   0  0  0  0  0  0  0  0  0  0  0  0
   21.1918   18.7031   24.0742 C   0  0  0  0  0  0  0  0  0  0  0  0
   22.1233   18.9473   24.6021 H   0  0  0  0  0  0  0  0  0  0  0  0
   21.1177   17.6076   24.0576 H   0  0  0  0  0  0  0  0  0  0  0  0
   21.2800   19.2401   22.6261 C   0  0  0  0  0  0  0  0  0  0  0  0
   22.1972   18.8521   22.1618 H   0  0  0  0  0  0  0  0  0  0  0  0
   21.3817   20.3342   22.6467 H   0  0  0  0  0  0  0  0  0  0  0  0
   20.0626   18.8450   21.7556 C   0  0  0  0  0  0  0  0  0  0  0  0
   19.9439   17.7526   21.7643 H   0  0  0  0  0  0  0  0  0  0  0  0
   19.1430   19.2683   22.1814 H   0  0  0  0  0  0  0  0  0  0  0  0
   20.2165   19.3334   20.2979 C   0  0  0  0  0  0  0  0  0  0  0  0
   21.1299   18.9087   19.8582 H   0  0  0  0  0  0  0  0  0  0  0  0
   20.3363   20.4258   20.2833 H   0  0  0  0  0  0  0  0  0  0  0  0
   19.0011   18.9402   19.4311 C   0  0  0  0  0  0  0  0  0  0  0  0
   19.1291   19.2950   18.4003 H   0  0  0  0  0  0  0  0  0  0  0  0
   18.0757   19.3795   19.8258 H   0  0  0  0  0  0  0  0  0  0  0  0
   18.8753   17.8501   19.3987 H   0  0  0  0  0  0  0  0  0  0  0  0
   18.7270   19.4305   26.9867 C   0  0  0  0  0  0  0  0  0  0  0  0
   18.8308   20.5177   26.9767 H   0  0  0  0  0  0  0  0  0  0  0  0
   17.8152   19.1408   26.4597 H   0  0  0  0  0  0  0  0  0  0  0  0
   18.6861   19.0734   28.0182 H   0  0  0  0  0  0  0  0  0  0  0  0
  1  2  1  0  0  0  0
  1  3  1  0  0  0  0
  1  4  1  0  0  0  0
  4  5  1  0  0  0  0
  4  6  1  0  0  0  0
  4  7  1  0  0  0  0
  7  8  1  0  0  0  0
  7  9  1  0  0  0  0
  7 10  1  0  0  0  0
 10 11  1  0  0  0  0
 10 12  1  0  0  0  0
 10 13  1  0  0  0  0
 13 14  1  0  0  0  0
 13 15  1  0  0  0  0
 13 16  1  0  0  0  0
 16 17  1  0  0  0  0
 16 18  1  0  0  0  0
 16 19  1  0  0  0  0
 19 20  1  0  0  0  0
 19 21  1  0  0  0  0
 19 22  1  0  0  0  0
  1 23  1  0  0  0  0
 23 24  1  0  0  0  0
 23 25  1  0  0  0  0
 23 26  1  0  0  0  0
M  END
> <VM2 Rank>
6

> <Conf_Id>
1273

> <Probability>
2.72

> <Sum Probability>
24.33

> <Delta G>
0.556

> <G>
76.022

> <E>
43.762

> <-TS>
32.260

> <U+W>
22.300

> <U>
71.138

> <W>
-48.837

> <W(PB)>
-51.182

> <W(SA)>
2.344

> <Valence>
2.016

> <Coulomb>
68.932

> <VdW>
0.190

> <VdW6>
-5.902

> <VdW12>
6.091

> <Bond>
0.149

> <Angle>
0.477

> <Pdih>
1.390

> <Idih>
0.000

> <Tether>
0.000

$$$$
VeraChem MOL file


 26 25  0  0  0  0  0  0  0  0999 V2000     
   20.0150   18.8154   26.2927 N   0  3  0  0  0  0  0  0  0  0  0  0
   20.2811   17.8191   26.3295 H   0  0  0  0  0  0  0  0  0  0  0  0
   19.0812   18.8662   26.7290 H   0  0  0  0  0  0  0  0  0  0  0  0
   19.9461   19.2856   24.8538 C   0  0  0  0  0  0  0  0  0  0  0  0
   20.9507   19.2102   24.4308 H   0  0  0  0  0  0  0  0  0  0  0  0
   19.6519   20.3382   24.8586 H   0  0  0  0  0  0  0  0  0  0  0  0
   18.9564   18.4749   23.9950 C   0  0  0  0  0  0  0  0  0  0  0  0
   19.2510   17.4170   23.9915 H   0  0  0  0  0  0  0  0  0  0  0  0
   17.9601   18.5224   24.4546 H   0  0  0  0  0  0  0  0  0  0  0  0
   18.8633   18.9935   22.5405 C   0  0  0  0  0  0  0  0  0  0  0  0
   18.5418   20.0443   22.5461 H   0  0  0  0  0  0  0  0  0  0  0  0
   18.0780   18.4317   22.0159 H   0  0  0  0  0  0  0  0  0  0  0  0
   20.1933   18.8583   21.7603 C   0  0  0  0  0  0  0  0  0  0  0  0
   20.9764   19.4554   22.2464 H   0  0  0  0  0  0  0  0  0  0  0  0
   20.5290   17.8123   21.7850 H   0  0  0  0  0  0  0  0  0  0  0  0
   20.0465   19.3160   20.2919 C   0  0  0  0  0  0  0  0  0  0  0  0
   19.7100   20.3619   20.2611 H   0  0  0  0  0  0  0  0  0  0  0  0
   19.2706   18.7190   19.7923 H   0  0  0  0  0  0  0  0  0  0  0  0
   21.3738   19.1823   19.5152 C   0  0  0  0  0  0  0  0  0  0  0  0
   21.2494   19.5114   18.4754 H   0  0  0  0  0  0  0  0  0  0  0  0
   21.7190   18.1403   19.4995 H   0  0  0  0  0  0  0  0  0  0  0  0
   22.1616   19.7965   19.9706 H   0  0  0  0  0  0  0  0  0  0  0  0
   21.0136   19.6639   27.0677 C   0  0  0  0  0  0  0  0  0  0  0  0
   20.6935   20.7079   27.0426 H   0  0  0  0  0  0  0  0  0  0  0  0
   21.0533   19.3151   28.1020 H   0  0  0  0  0  0  0  0  0  0  0  0
   21.9996   19.5679   26.6079 H   0  0  0  0  0  0  0  0  0  0  0  0
  1  2  1  0  0  0  0
  1  3  1  0  0  0  0
  1  4  1  0  0  0  0
  4  5  1  0  0  0  0
  4  6  1  0  0  0  0
  4  7  1  0  0  0  0
  7  8  1  0  0  0  0
  7  9  1  0  0  0  0
  7 10  1  0  0  0  0
 10 11  1  0  0  0  0
 10 12  1  0  0  0  0
 10 13  1  0  0  0  0
 13 14  1  0  0  0  0
 13 15  1  0  0  0  0
 13 16  1  0  0  0  0
 16 17  1  0  0  0  0
 16 18  1  0  0  0  0
 16 19  1  0  0  0  0
 19 20  1  0  0  0  0
 19 21  1  0  0  0  0
 19 22  1  0  0  0  0
  1 23  1  0  0  0  0
 23 24  1  0  0  0  0
 23 25  1  0  0  0  0
 23 26  1  0  0  0  0
M  END
> <VM2 Rank>
7

> <Conf_Id>
934

> <Probability>
2.56

> <Sum Probability>
26.89

> <Delta G>
0.592

> <G>
76.058

> <E>
43.798

> <-TS>
32.260

> <U+W>
22.336

> <U>
71.138

> <W>
-48.802

> <W(PB)>
-51.136

> <W(SA)>
2.335

> <Valence>
2.016

> <Coulomb>
68.932

> <VdW>
0.190

> <VdW6>
-5.902

> <VdW12>
6.091

> <Bond>
0.149

> <Angle>
0.477

> <Pdih>
1.390

> <Idih>
0.000

> <Tether>
0.000

$$$$
VeraChem MOL file


 26 25  0  0  0  0  0  0  0  0999 V2000     
   19.5903   19.7662   26.0204 N   0  3  0  0  0  0  0  0  0  0  0  0
   18.9706   19.9966   26.8132 H   0  0  0  0  0  0  0  0  0  0  0  0
   19.4496   20.5282   25.3405 H   0  0  0  0  0  0  0  0  0  0  0  0
   19.1662   18.4381   25.4124 C   0  0  0  0  0  0  0  0  0  0  0  0
   18.0901   18.4923   25.2290 H   0  0  0  0  0  0  0  0  0  0  0  0
   19.3405   17.6614   26.1613 H   0  0  0  0  0  0  0  0  0  0  0  0
   19.8805   18.0565   24.0973 C   0  0  0  0  0  0  0  0  0  0  0  0
   20.9569   17.9407   24.2782 H   0  0  0  0  0  0  0  0  0  0  0  0
   19.5134   17.0718   23.7790 H   0  0  0  0  0  0  0  0  0  0  0  0
   19.6410   19.0832   22.9649 C   0  0  0  0  0  0  0  0  0  0  0  0
   20.0434   20.0619   23.2587 H   0  0  0  0  0  0  0  0  0  0  0  0
   18.5607   19.2143   22.8117 H   0  0  0  0  0  0  0  0  0  0  0  0
   20.3004   18.6402   21.6391 C   0  0  0  0  0  0  0  0  0  0  0  0
   21.3801   18.5058   21.7928 H   0  0  0  0  0  0  0  0  0  0  0  0
   19.8987   17.6631   21.3368 H   0  0  0  0  0  0  0  0  0  0  0  0
   20.0653   19.6654   20.5073 C   0  0  0  0  0  0  0  0  0  0  0  0
   20.4682   20.6442   20.8033 H   0  0  0  0  0  0  0  0  0  0  0  0
   18.9863   19.8021   20.3485 H   0  0  0  0  0  0  0  0  0  0  0  0
   20.7248   19.2194   19.1849 C   0  0  0  0  0  0  0  0  0  0  0  0
   21.8104   19.1072   19.3032 H   0  0  0  0  0  0  0  0  0  0  0  0
   20.5471   19.9596   18.3940 H   0  0  0  0  0  0  0  0  0  0  0  0
   20.3170   18.2586   18.8446 H   0  0  0  0  0  0  0  0  0  0  0  0
   21.0396   19.7210   26.4907 C   0  0  0  0  0  0  0  0  0  0  0  0
   21.1547   18.9173   27.2213 H   0  0  0  0  0  0  0  0  0  0  0  0
   21.6917   19.5397   25.6339 H   0  0  0  0  0  0  0  0  0  0  0  0
   21.2958   20.6776   26.9513 H   0  0  0  0  0  0  0  0  0  0  0  0
  1  2  1  0  0  0  0
  1  3  1  0  0  0  0
  1  4  1  0  0  0  0
  4  5  1  0  0  0  0
  4  6  1  0  0  0  0
  4  7  1  0  0  0  0
  7  8  1  0  0  0  0
  7  9  1  0  0  0  0
  7 10  1  0  0  0  0
 10 11  1  0  0  0  0
 10 12  1  0  0  0  0
 10 13  1  0  0  0  0
 13 14  1  0  0  0  0
 13 15  1  0  0  0  0
 13 16  1  0  0  0  0
 16 17  1  0  0  0  0
 16 18  1  0  0  0  0
 16 19  1  0  0  0  0
 19 20  1  0  0  0  0
 19 21  1  0  0  0  0
 19 22  1  0  0  0  0
  1 23  1  0  0  0  0
 23 24  1  0  0  0  0
 23 25  1  0  0  0  0
 23 26  1  0  0  0  0
M  END
> <VM2 Rank>
8

> <Conf_Id>
1544

> <Probability>
2.55

> <Sum Probability>
29.44

> <Delta G>
0.595

> <G>
76.061

> <E>
43.581

> <-TS>
32.479

> <U+W>
22.120

> <U>
71.480

> <W>
-49.360

> <W(PB)>
-51.654

> <W(SA)>
2.294

> <Valence>
2.084

> <Coulomb>
68.999

> <VdW>
0.396

> <VdW6>
-6.753

> <VdW12>
7.148

> <Bond>
0.184

> <Angle>
0.576

> <Pdih>
1.325

> <Idih>
0.000

> <Tether>
0.000

$$$$
