@<TRIPOS>MOLECULE
guest-s18_vm2.mol2 : vm2 ligand conformer 1
          16          15           1
SMALL
USER_CHARGES
 
@<TRIPOS>ATOM
       1    C1      20.071762   19.431793   24.656685 C.2        1 MOL1         0.6075
       2    O1      20.484097   20.508019   25.040820 O.co2      1 MOL1        -0.6830
       3    O2      19.240310   18.778395   25.254682 O.co2      1 MOL1        -0.6830
       4    C2      20.614015   18.879440   23.343121 C.3        1 MOL1        -0.2050
       5    H1      20.628645   17.785052   23.413484 H          1 MOL1         0.0710
       6    H2      21.654015   19.211121   23.237104 H          1 MOL1         0.0710
       7    C3      19.783927   19.324243   22.113827 C.3        1 MOL1        -0.1947
       8    H3      18.742971   18.995757   22.240551 H          1 MOL1         0.0712
       9    H4      19.768327   20.421898   22.064196 H          1 MOL1         0.0712
      10    C4      20.353442   18.752175   20.798931 C.3        1 MOL1        -0.1921
      11    H5      20.368570   17.654491   20.847905 H          1 MOL1         0.0712
      12    H6      21.394210   19.080971   20.671522 H          1 MOL1         0.0712
      13    C5      19.522447   19.198934   19.579933 C.3        1 MOL1        -0.2936
      14    H7      19.516218   20.293039   19.488471 H          1 MOL1         0.0724
      15    H8      18.482995   18.856042   19.666169 H          1 MOL1         0.0724
      16    H9      19.940563   18.783766   18.653670 H          1 MOL1         0.0724
@<TRIPOS>BOND
    1     1     2    1
    2     1     3    2
    3     1     4    1
    4     4     5    1
    5     4     6    1
    6     4     7    1
    7     7     8    1
    8     7     9    1
    9     7    10    1
   10    10    11    1
   11    10    12    1
   12    10    13    1
   13    13    14    1
   14    13    15    1
   15    13    16    1
@<TRIPOS>SUBSTRUCTURE
       1 MOL1            1 RESIDUE      1      MOL     
@<SCITEGIC>MOL_PROPERTY
VM2 Rank
SciTegic.value.IntegerValue
1

@<SCITEGIC>MOL_PROPERTY
Conf_Id
SciTegic.value.IntegerValue
166

@<SCITEGIC>MOL_PROPERTY
Probability
SciTegic.value.DoubleValue
57.83

@<SCITEGIC>MOL_PROPERTY
Sum Probability
SciTegic.value.DoubleValue
57.83

@<SCITEGIC>MOL_PROPERTY
Delta G
SciTegic.value.DoubleValue
0.000

@<SCITEGIC>MOL_PROPERTY
G
SciTegic.value.DoubleValue
-35.660

@<SCITEGIC>MOL_PROPERTY
E
SciTegic.value.DoubleValue
-45.569

@<SCITEGIC>MOL_PROPERTY
-TS
SciTegic.value.DoubleValue
9.910

@<SCITEGIC>MOL_PROPERTY
U+W
SciTegic.value.DoubleValue
-58.089

@<SCITEGIC>MOL_PROPERTY
U
SciTegic.value.DoubleValue
6.298

@<SCITEGIC>MOL_PROPERTY
W
SciTegic.value.DoubleValue
-64.387

@<SCITEGIC>MOL_PROPERTY
W(PB)
SciTegic.value.DoubleValue
-66.329

@<SCITEGIC>MOL_PROPERTY
W(SA)
SciTegic.value.DoubleValue
1.942

@<SCITEGIC>MOL_PROPERTY
Valence
SciTegic.value.DoubleValue
6.246

@<SCITEGIC>MOL_PROPERTY
Coulomb
SciTegic.value.DoubleValue
-0.408

@<SCITEGIC>MOL_PROPERTY
VdW
SciTegic.value.DoubleValue
0.460

@<SCITEGIC>MOL_PROPERTY
VdW6
SciTegic.value.DoubleValue
-4.207

@<SCITEGIC>MOL_PROPERTY
VdW12
SciTegic.value.DoubleValue
4.667

@<SCITEGIC>MOL_PROPERTY
Bond
SciTegic.value.DoubleValue
0.072

@<SCITEGIC>MOL_PROPERTY
Angle
SciTegic.value.DoubleValue
2.246

@<SCITEGIC>MOL_PROPERTY
Pdih
SciTegic.value.DoubleValue
3.928

@<SCITEGIC>MOL_PROPERTY
Idih
SciTegic.value.DoubleValue
0.001

@<SCITEGIC>MOL_PROPERTY
Tether
SciTegic.value.DoubleValue
0.000

