VeraChem MOL file


 19 18  0  0  0  0  0  0  0  0999 V2000     
   19.9539   19.2771   25.5145 C   0  0  0  0  0  0  0  0  0  0  0  0
   20.6501   18.4763   26.1063 O   0  5  0  0  0  0  0  0  0  0  0  0
   19.7318   20.4018   25.9168 O   0  0  0  0  0  0  0  0  0  0  0  0
   19.3419   18.8542   24.1837 C   0  0  0  0  0  0  0  0  0  0  0  0
   18.3779   19.3654   24.0741 H   0  0  0  0  0  0  0  0  0  0  0  0
   19.1346   17.7782   24.2304 H   0  0  0  0  0  0  0  0  0  0  0  0
   20.2549   19.1703   22.9735 C   0  0  0  0  0  0  0  0  0  0  0  0
   20.4634   20.2489   22.9483 H   0  0  0  0  0  0  0  0  0  0  0  0
   21.2201   18.6616   23.1046 H   0  0  0  0  0  0  0  0  0  0  0  0
   19.6127   18.7328   21.6394 C   0  0  0  0  0  0  0  0  0  0  0  0
   18.6475   19.2419   21.5119 H   0  0  0  0  0  0  0  0  0  0  0  0
   19.4043   17.6544   21.6683 H   0  0  0  0  0  0  0  0  0  0  0  0
   20.5245   19.0489   20.4356 C   0  0  0  0  0  0  0  0  0  0  0  0
   20.7337   20.1271   20.4021 H   0  0  0  0  0  0  0  0  0  0  0  0
   21.4905   18.5397   20.5585 H   0  0  0  0  0  0  0  0  0  0  0  0
   19.8802   18.6107   19.1052 C   0  0  0  0  0  0  0  0  0  0  0  0
   19.6887   17.5296   19.0988 H   0  0  0  0  0  0  0  0  0  0  0  0
   18.9263   19.1290   18.9413 H   0  0  0  0  0  0  0  0  0  0  0  0
   20.5415   18.8428   18.2603 H   0  0  0  0  0  0  0  0  0  0  0  0
  1  2  1  0  0  0  0
  1  3  2  0  0  0  0
  1  4  1  0  0  0  0
  4  5  1  0  0  0  0
  4  6  1  0  0  0  0
  4  7  1  0  0  0  0
  7  8  1  0  0  0  0
  7  9  1  0  0  0  0
  7 10  1  0  0  0  0
 10 11  1  0  0  0  0
 10 12  1  0  0  0  0
 10 13  1  0  0  0  0
 13 14  1  0  0  0  0
 13 15  1  0  0  0  0
 13 16  1  0  0  0  0
 16 17  1  0  0  0  0
 16 18  1  0  0  0  0
 16 19  1  0  0  0  0
M  END
> <VM2 Rank>
1

> <Conf_Id>
193

> <Probability>
41.07

> <Sum Probability>
41.07

> <Delta G>
0.000

> <G>
-26.152

> <E>
-40.889

> <-TS>
14.737

> <U+W>
-56.091

> <U>
5.975

> <W>
-62.065

> <W(PB)>
-64.218

> <W(SA)>
2.153

> <Valence>
6.673

> <Coulomb>
-1.307

> <VdW>
0.610

> <VdW6>
-5.351

> <VdW12>
5.961

> <Bond>
0.086

> <Angle>
2.253

> <Pdih>
4.333

> <Idih>
0.001

> <Tether>
0.000

$$$$
VeraChem MOL file


 19 18  0  0  0  0  0  0  0  0999 V2000     
   19.8292   19.3146   25.3695 C   0  0  0  0  0  0  0  0  0  0  0  0
   20.1458   18.4559   26.1686 O   0  5  0  0  0  0  0  0  0  0  0  0
   19.7258   20.4915   25.6530 O   0  0  0  0  0  0  0  0  0  0  0  0
   19.5681   18.8951   23.9272 C   0  0  0  0  0  0  0  0  0  0  0  0
   18.7936   19.5565   23.5227 H   0  0  0  0  0  0  0  0  0  0  0  0
   19.1559   17.8790   23.9376 H   0  0  0  0  0  0  0  0  0  0  0  0
   20.8442   18.9455   23.0471 C   0  0  0  0  0  0  0  0  0  0  0  0
   21.2226   19.9763   23.0081 H   0  0  0  0  0  0  0  0  0  0  0  0
   21.6284   18.3453   23.5289 H   0  0  0  0  0  0  0  0  0  0  0  0
   20.6254   18.4139   21.6108 C   0  0  0  0  0  0  0  0  0  0  0  0
   20.2552   17.3804   21.6531 H   0  0  0  0  0  0  0  0  0  0  0  0
   21.5982   18.3749   21.1016 H   0  0  0  0  0  0  0  0  0  0  0  0
   19.6562   19.2806   20.7759 C   0  0  0  0  0  0  0  0  0  0  0  0
   18.6554   19.2713   21.2272 H   0  0  0  0  0  0  0  0  0  0  0  0
   19.9988   20.3246   20.7758 H   0  0  0  0  0  0  0  0  0  0  0  0
   19.5553   18.7750   19.3228 C   0  0  0  0  0  0  0  0  0  0  0  0
   20.5340   18.8067   18.8265 H   0  0  0  0  0  0  0  0  0  0  0  0
   19.1882   17.7407   19.2918 H   0  0  0  0  0  0  0  0  0  0  0  0
   18.8616   19.3984   18.7438 H   0  0  0  0  0  0  0  0  0  0  0  0
  1  2  1  0  0  0  0
  1  3  2  0  0  0  0
  1  4  1  0  0  0  0
  4  5  1  0  0  0  0
  4  6  1  0  0  0  0
  4  7  1  0  0  0  0
  7  8  1  0  0  0  0
  7  9  1  0  0  0  0
  7 10  1  0  0  0  0
 10 11  1  0  0  0  0
 10 12  1  0  0  0  0
 10 13  1  0  0  0  0
 13 14  1  0  0  0  0
 13 15  1  0  0  0  0
 13 16  1  0  0  0  0
 16 17  1  0  0  0  0
 16 18  1  0  0  0  0
 16 19  1  0  0  0  0
M  END
> <VM2 Rank>
2

> <Conf_Id>
98

> <Probability>
11.78

> <Sum Probability>
52.84

> <Delta G>
0.745

> <G>
-25.407

> <E>
-40.253

> <-TS>
14.845

> <U+W>
-55.455

> <U>
6.914

> <W>
-62.369

> <W(PB)>
-64.446

> <W(SA)>
2.077

> <Valence>
7.196

> <Coulomb>
-1.020

> <VdW>
0.738

> <VdW6>
-6.010

> <VdW12>
6.748

> <Bond>
0.126

> <Angle>
2.499

> <Pdih>
4.570

> <Idih>
0.001

> <Tether>
0.000

$$$$
VeraChem MOL file


 19 18  0  0  0  0  0  0  0  0999 V2000     
   20.1747   19.3731   25.3607 C   0  0  0  0  0  0  0  0  0  0  0  0
   20.1982   18.4647   26.1673 O   0  5  0  0  0  0  0  0  0  0  0  0
   19.8984   20.5207   25.6485 O   0  0  0  0  0  0  0  0  0  0  0  0
   20.4875   19.0508   23.9038 C   0  0  0  0  0  0  0  0  0  0  0  0
   21.2110   18.2270   23.8852 H   0  0  0  0  0  0  0  0  0  0  0  0
   20.9803   19.9267   23.4670 H   0  0  0  0  0  0  0  0  0  0  0  0
   19.2240   18.6712   23.0884 C   0  0  0  0  0  0  0  0  0  0  0  0
   18.7057   17.8505   23.6034 H   0  0  0  0  0  0  0  0  0  0  0  0
   18.5261   19.5199   23.0768 H   0  0  0  0  0  0  0  0  0  0  0  0
   19.5341   18.2292   21.6386 C   0  0  0  0  0  0  0  0  0  0  0  0
   18.6043   17.8682   21.1778 H   0  0  0  0  0  0  0  0  0  0  0  0
   20.2252   17.3753   21.6539 H   0  0  0  0  0  0  0  0  0  0  0  0
   20.1218   19.3594   20.7641 C   0  0  0  0  0  0  0  0  0  0  0  0
   19.4553   20.2326   20.7896 H   0  0  0  0  0  0  0  0  0  0  0  0
   21.0909   19.6836   21.1652 H   0  0  0  0  0  0  0  0  0  0  0  0
   20.3114   18.9029   19.3036 C   0  0  0  0  0  0  0  0  0  0  0  0
   20.9962   18.0467   19.2458 H   0  0  0  0  0  0  0  0  0  0  0  0
   19.3534   18.6068   18.8565 H   0  0  0  0  0  0  0  0  0  0  0  0
   20.7319   19.7149   18.6962 H   0  0  0  0  0  0  0  0  0  0  0  0
  1  2  1  0  0  0  0
  1  3  2  0  0  0  0
  1  4  1  0  0  0  0
  4  5  1  0  0  0  0
  4  6  1  0  0  0  0
  4  7  1  0  0  0  0
  7  8  1  0  0  0  0
  7  9  1  0  0  0  0
  7 10  1  0  0  0  0
 10 11  1  0  0  0  0
 10 12  1  0  0  0  0
 10 13  1  0  0  0  0
 13 14  1  0  0  0  0
 13 15  1  0  0  0  0
 13 16  1  0  0  0  0
 16 17  1  0  0  0  0
 16 18  1  0  0  0  0
 16 19  1  0  0  0  0
M  END
> <VM2 Rank>
3

> <Conf_Id>
33

> <Probability>
11.06

> <Sum Probability>
63.90

> <Delta G>
0.782

> <G>
-25.370

> <E>
-40.215

> <-TS>
14.846

> <U+W>
-55.418

> <U>
6.914

> <W>
-62.332

> <W(PB)>
-64.421

> <W(SA)>
2.090

> <Valence>
7.196

> <Coulomb>
-1.020

> <VdW>
0.738

> <VdW6>
-6.010

> <VdW12>
6.748

> <Bond>
0.126

> <Angle>
2.499

> <Pdih>
4.570

> <Idih>
0.001

> <Tether>
0.000

$$$$
VeraChem MOL file


 19 18  0  0  0  0  0  0  0  0999 V2000     
   20.0105   19.3758   25.3743 C   0  0  0  0  0  0  0  0  0  0  0  0
   20.8022   18.7068   26.0083 O   0  5  0  0  0  0  0  0  0  0  0  0
   19.7500   20.5340   25.6329 O   0  0  0  0  0  0  0  0  0  0  0  0
   19.3190   18.7316   24.1779 C   0  0  0  0  0  0  0  0  0  0  0  0
   18.3203   19.1745   24.0821 H   0  0  0  0  0  0  0  0  0  0  0  0
   19.1814   17.6659   24.3972 H   0  0  0  0  0  0  0  0  0  0  0  0
   20.1099   18.9083   22.8582 C   0  0  0  0  0  0  0  0  0  0  0  0
   20.2512   19.9807   22.6696 H   0  0  0  0  0  0  0  0  0  0  0  0
   21.1101   18.4685   22.9730 H   0  0  0  0  0  0  0  0  0  0  0  0
   19.3844   18.2493   21.6623 C   0  0  0  0  0  0  0  0  0  0  0  0
   18.4038   18.7228   21.5171 H   0  0  0  0  0  0  0  0  0  0  0  0
   19.1888   17.1946   21.9000 H   0  0  0  0  0  0  0  0  0  0  0  0
   20.1900   18.3141   20.3442 C   0  0  0  0  0  0  0  0  0  0  0  0
   21.1696   17.8363   20.4839 H   0  0  0  0  0  0  0  0  0  0  0  0
   19.6638   17.7254   19.5802 H   0  0  0  0  0  0  0  0  0  0  0  0
   20.3840   19.7522   19.8169 C   0  0  0  0  0  0  0  0  0  0  0  0
   19.4182   20.2603   19.6971 H   0  0  0  0  0  0  0  0  0  0  0  0
   21.0051   20.3482   20.4972 H   0  0  0  0  0  0  0  0  0  0  0  0
   20.8821   19.7383   18.8389 H   0  0  0  0  0  0  0  0  0  0  0  0
  1  2  1  0  0  0  0
  1  3  2  0  0  0  0
  1  4  1  0  0  0  0
  4  5  1  0  0  0  0
  4  6  1  0  0  0  0
  4  7  1  0  0  0  0
  7  8  1  0  0  0  0
  7  9  1  0  0  0  0
  7 10  1  0  0  0  0
 10 11  1  0  0  0  0
 10 12  1  0  0  0  0
 10 13  1  0  0  0  0
 13 14  1  0  0  0  0
 13 15  1  0  0  0  0
 13 16  1  0  0  0  0
 16 17  1  0  0  0  0
 16 18  1  0  0  0  0
 16 19  1  0  0  0  0
M  END
> <VM2 Rank>
4

> <Conf_Id>
124

> <Probability>
9.39

> <Sum Probability>
73.29

> <Delta G>
0.880

> <G>
-25.272

> <E>
-40.125

> <-TS>
14.853

> <U+W>
-55.327

> <U>
7.244

> <W>
-62.571

> <W(PB)>
-64.665

> <W(SA)>
2.094

> <Valence>
7.174

> <Coulomb>
-0.669

> <VdW>
0.739

> <VdW6>
-5.969

> <VdW12>
6.708

> <Bond>
0.116

> <Angle>
2.481

> <Pdih>
4.576

> <Idih>
0.000

> <Tether>
0.000

$$$$
VeraChem MOL file


 19 18  0  0  0  0  0  0  0  0999 V2000     
   19.8728   19.2876   25.3817 C   0  0  0  0  0  0  0  0  0  0  0  0
   20.1974   18.3193   26.0398 O   0  5  0  0  0  0  0  0  0  0  0  0
   18.9511   20.0225   25.6760 O   0  0  0  0  0  0  0  0  0  0  0  0
   20.6536   19.5864   24.1067 C   0  0  0  0  0  0  0  0  0  0  0  0
   21.6933   19.2747   24.2631 H   0  0  0  0  0  0  0  0  0  0  0  0
   20.6598   20.6728   23.9572 H   0  0  0  0  0  0  0  0  0  0  0  0
   20.0651   18.8797   22.8606 C   0  0  0  0  0  0  0  0  0  0  0  0
   20.0570   17.7940   23.0293 H   0  0  0  0  0  0  0  0  0  0  0  0
   19.0199   19.1922   22.7354 H   0  0  0  0  0  0  0  0  0  0  0  0
   20.8734   19.2031   21.5828 C   0  0  0  0  0  0  0  0  0  0  0  0
   21.9287   18.9498   21.7536 H   0  0  0  0  0  0  0  0  0  0  0  0
   20.8402   20.2836   21.3869 H   0  0  0  0  0  0  0  0  0  0  0  0
   20.3804   18.4360   20.3341 C   0  0  0  0  0  0  0  0  0  0  0  0
   21.0747   18.6294   19.5048 H   0  0  0  0  0  0  0  0  0  0  0  0
   20.4176   17.3544   20.5241 H   0  0  0  0  0  0  0  0  0  0  0  0
   18.9562   18.8374   19.8934 C   0  0  0  0  0  0  0  0  0  0  0  0
   18.2095   18.5569   20.6468 H   0  0  0  0  0  0  0  0  0  0  0  0
   18.8872   19.9201   19.7257 H   0  0  0  0  0  0  0  0  0  0  0  0
   18.6880   18.3326   18.9563 H   0  0  0  0  0  0  0  0  0  0  0  0
  1  2  1  0  0  0  0
  1  3  2  0  0  0  0
  1  4  1  0  0  0  0
  4  5  1  0  0  0  0
  4  6  1  0  0  0  0
  4  7  1  0  0  0  0
  7  8  1  0  0  0  0
  7  9  1  0  0  0  0
  7 10  1  0  0  0  0
 10 11  1  0  0  0  0
 10 12  1  0  0  0  0
 10 13  1  0  0  0  0
 13 14  1  0  0  0  0
 13 15  1  0  0  0  0
 13 16  1  0  0  0  0
 16 17  1  0  0  0  0
 16 18  1  0  0  0  0
 16 19  1  0  0  0  0
M  END
> <VM2 Rank>
5

> <Conf_Id>
296

> <Probability>
9.30

> <Sum Probability>
82.59

> <Delta G>
0.886

> <G>
-25.266

> <E>
-40.119

> <-TS>
14.853

> <U+W>
-55.321

> <U>
7.244

> <W>
-62.565

> <W(PB)>
-64.668

> <W(SA)>
2.103

> <Valence>
7.173

> <Coulomb>
-0.669

> <VdW>
0.739

> <VdW6>
-5.969

> <VdW12>
6.708

> <Bond>
0.116

> <Angle>
2.481

> <Pdih>
4.576

> <Idih>
0.000

> <Tether>
0.000

$$$$
VeraChem MOL file


 19 18  0  0  0  0  0  0  0  0999 V2000     
   20.1397   19.2125   25.1803 C   0  0  0  0  0  0  0  0  0  0  0  0
   20.9105   18.2974   25.3929 O   0  5  0  0  0  0  0  0  0  0  0  0
   20.3192   20.3476   25.5751 O   0  0  0  0  0  0  0  0  0  0  0  0
   18.8655   18.9176   24.3937 C   0  0  0  0  0  0  0  0  0  0  0  0
   18.0325   19.3860   24.9312 H   0  0  0  0  0  0  0  0  0  0  0  0
   18.6857   17.8358   24.4105 H   0  0  0  0  0  0  0  0  0  0  0  0
   18.8927   19.4329   22.9312 C   0  0  0  0  0  0  0  0  0  0  0  0
   17.8955   19.3035   22.4892 H   0  0  0  0  0  0  0  0  0  0  0  0
   19.1020   20.5117   22.9293 H   0  0  0  0  0  0  0  0  0  0  0  0
   19.9351   18.6960   22.0608 C   0  0  0  0  0  0  0  0  0  0  0  0
   19.7294   17.6169   22.0763 H   0  0  0  0  0  0  0  0  0  0  0  0
   20.9383   18.8348   22.4872 H   0  0  0  0  0  0  0  0  0  0  0  0
   19.9231   19.2026   20.6035 C   0  0  0  0  0  0  0  0  0  0  0  0
   18.9231   19.0623   20.1702 H   0  0  0  0  0  0  0  0  0  0  0  0
   20.1310   20.2815   20.5849 H   0  0  0  0  0  0  0  0  0  0  0  0
   20.9641   18.4654   19.7376 C   0  0  0  0  0  0  0  0  0  0  0  0
   21.9783   18.6148   20.1307 H   0  0  0  0  0  0  0  0  0  0  0  0
   20.7614   17.3867   19.7131 H   0  0  0  0  0  0  0  0  0  0  0  0
   20.9424   18.8381   18.7052 H   0  0  0  0  0  0  0  0  0  0  0  0
  1  2  1  0  0  0  0
  1  3  2  0  0  0  0
  1  4  1  0  0  0  0
  4  5  1  0  0  0  0
  4  6  1  0  0  0  0
  4  7  1  0  0  0  0
  7  8  1  0  0  0  0
  7  9  1  0  0  0  0
  7 10  1  0  0  0  0
 10 11  1  0  0  0  0
 10 12  1  0  0  0  0
 10 13  1  0  0  0  0
 13 14  1  0  0  0  0
 13 15  1  0  0  0  0
 13 16  1  0  0  0  0
 16 17  1  0  0  0  0
 16 18  1  0  0  0  0
 16 19  1  0  0  0  0
M  END
> <VM2 Rank>
6

> <Conf_Id>
278

> <Probability>
3.73

> <Sum Probability>
86.32

> <Delta G>
1.430

> <G>
-24.722

> <E>
-39.769

> <-TS>
15.047

> <U+W>
-54.971

> <U>
8.266

> <W>
-63.238

> <W(PB)>
-65.341

> <W(SA)>
2.103

> <Valence>
6.935

> <Coulomb>
0.874

> <VdW>
0.457

> <VdW6>
-6.205

> <VdW12>
6.662

> <Bond>
0.107

> <Angle>
2.420

> <Pdih>
4.407

> <Idih>
0.001

> <Tether>
0.000

$$$$
VeraChem MOL file


 19 18  0  0  0  0  0  0  0  0999 V2000     
   20.0469   19.4069   25.1612 C   0  0  0  0  0  0  0  0  0  0  0  0
   21.0055   18.9084   25.7172 O   0  5  0  0  0  0  0  0  0  0  0  0
   19.8126   20.5992   25.1660 O   0  0  0  0  0  0  0  0  0  0  0  0
   19.0738   18.4809   24.4366 C   0  0  0  0  0  0  0  0  0  0  0  0
   18.1247   19.0119   24.2946 H   0  0  0  0  0  0  0  0  0  0  0  0
   18.8676   17.6354   25.1035 H   0  0  0  0  0  0  0  0  0  0  0  0
   19.5996   17.9514   23.0771 C   0  0  0  0  0  0  0  0  0  0  0  0
   20.5639   17.4476   23.2312 H   0  0  0  0  0  0  0  0  0  0  0  0
   18.9030   17.1918   22.6972 H   0  0  0  0  0  0  0  0  0  0  0  0
   19.7563   19.0710   22.0238 C   0  0  0  0  0  0  0  0  0  0  0  0
   20.4651   19.8268   22.3895 H   0  0  0  0  0  0  0  0  0  0  0  0
   18.7929   19.5800   21.8829 H   0  0  0  0  0  0  0  0  0  0  0  0
   20.2500   18.5174   20.6709 C   0  0  0  0  0  0  0  0  0  0  0  0
   21.2149   18.0098   20.8085 H   0  0  0  0  0  0  0  0  0  0  0  0
   19.5427   17.7636   20.2982 H   0  0  0  0  0  0  0  0  0  0  0  0
   20.4052   19.6367   19.6221 C   0  0  0  0  0  0  0  0  0  0  0  0
   20.7573   19.2259   18.6670 H   0  0  0  0  0  0  0  0  0  0  0  0
   19.4470   20.1413   19.4417 H   0  0  0  0  0  0  0  0  0  0  0  0
   21.1316   20.3894   19.9558 H   0  0  0  0  0  0  0  0  0  0  0  0
  1  2  1  0  0  0  0
  1  3  2  0  0  0  0
  1  4  1  0  0  0  0
  4  5  1  0  0  0  0
  4  6  1  0  0  0  0
  4  7  1  0  0  0  0
  7  8  1  0  0  0  0
  7  9  1  0  0  0  0
  7 10  1  0  0  0  0
 10 11  1  0  0  0  0
 10 12  1  0  0  0  0
 10 13  1  0  0  0  0
 13 14  1  0  0  0  0
 13 15  1  0  0  0  0
 13 16  1  0  0  0  0
 16 17  1  0  0  0  0
 16 18  1  0  0  0  0
 16 19  1  0  0  0  0
M  END
> <VM2 Rank>
7

> <Conf_Id>
309

> <Probability>
3.72

> <Sum Probability>
90.04

> <Delta G>
1.431

> <G>
-24.721

> <E>
-39.768

> <-TS>
15.047

> <U+W>
-54.970

> <U>
8.266

> <W>
-63.236

> <W(PB)>
-65.331

> <W(SA)>
2.095

> <Valence>
6.935

> <Coulomb>
0.874

> <VdW>
0.457

> <VdW6>
-6.205

> <VdW12>
6.662

> <Bond>
0.107

> <Angle>
2.420

> <Pdih>
4.407

> <Idih>
0.001

> <Tether>
0.000

$$$$
VeraChem MOL file


 19 18  0  0  0  0  0  0  0  0999 V2000     
   20.0073   19.2236   25.5349 C   0  0  0  0  0  0  0  0  0  0  0  0
   19.9566   18.5581   26.5499 O   0  5  0  0  0  0  0  0  0  0  0  0
   20.1008   20.4358   25.5405 O   0  0  0  0  0  0  0  0  0  0  0  0
   19.9481   18.4725   24.2038 C   0  0  0  0  0  0  0  0  0  0  0  0
   19.0189   17.8906   24.1975 H   0  0  0  0  0  0  0  0  0  0  0  0
   20.7765   17.7544   24.1962 H   0  0  0  0  0  0  0  0  0  0  0  0
   20.0163   19.3645   22.9356 C   0  0  0  0  0  0  0  0  0  0  0  0
   19.1872   20.0854   22.9521 H   0  0  0  0  0  0  0  0  0  0  0  0
   20.9465   19.9491   22.9509 H   0  0  0  0  0  0  0  0  0  0  0  0
   19.9504   18.5267   21.6402 C   0  0  0  0  0  0  0  0  0  0  0  0
   19.0198   17.9429   21.6271 H   0  0  0  0  0  0  0  0  0  0  0  0
   20.7801   17.8065   21.6258 H   0  0  0  0  0  0  0  0  0  0  0  0
   20.0183   19.4152   20.3808 C   0  0  0  0  0  0  0  0  0  0  0  0
   19.1888   20.1359   20.3905 H   0  0  0  0  0  0  0  0  0  0  0  0
   20.9490   19.9995   20.3891 H   0  0  0  0  0  0  0  0  0  0  0  0
   19.9522   18.5756   19.0894 C   0  0  0  0  0  0  0  0  0  0  0  0
   19.0159   18.0044   19.0398 H   0  0  0  0  0  0  0  0  0  0  0  0
   20.0017   19.2229   18.2042 H   0  0  0  0  0  0  0  0  0  0  0  0
   20.7893   17.8669   19.0384 H   0  0  0  0  0  0  0  0  0  0  0  0
  1  2  1  0  0  0  0
  1  3  2  0  0  0  0
  1  4  1  0  0  0  0
  4  5  1  0  0  0  0
  4  6  1  0  0  0  0
  4  7  1  0  0  0  0
  7  8  1  0  0  0  0
  7  9  1  0  0  0  0
  7 10  1  0  0  0  0
 10 11  1  0  0  0  0
 10 12  1  0  0  0  0
 10 13  1  0  0  0  0
 13 14  1  0  0  0  0
 13 15  1  0  0  0  0
 13 16  1  0  0  0  0
 16 17  1  0  0  0  0
 16 18  1  0  0  0  0
 16 19  1  0  0  0  0
M  END
> <VM2 Rank>
8

> <Conf_Id>
0

> <Probability>
2.34

> <Sum Probability>
92.38

> <Delta G>
1.709

> <G>
-24.443

> <E>
-39.689

> <-TS>
15.246

> <U+W>
-54.891

> <U>
6.966

> <W>
-61.857

> <W(PB)>
-63.965

> <W(SA)>
2.108

> <Valence>
7.175

> <Coulomb>
-1.360

> <VdW>
1.151

> <VdW6>
-5.641

> <VdW12>
6.792

> <Bond>
0.119

> <Angle>
2.715

> <Pdih>
4.340

> <Idih>
0.000

> <Tether>
0.000

$$$$
