VeraChem MOL file


 26 25  0  0  0  0  0  0  0  0999 V2000     
   19.9052   19.3107   18.8162 C   0  0  0  0  0  0  0  0  0  0  0  0
   20.2945   20.3369   18.7943 H   0  0  0  0  0  0  0  0  0  0  0  0
   20.2787   18.7895   17.9252 H   0  0  0  0  0  0  0  0  0  0  0  0
   18.8108   19.3585   18.7447 H   0  0  0  0  0  0  0  0  0  0  0  0
   20.3457   18.5776   20.1010 C   0  0  0  0  0  0  0  0  0  0  0  0
   21.4427   18.5157   20.1275 H   0  0  0  0  0  0  0  0  0  0  0  0
   19.9704   17.5449   20.0784 H   0  0  0  0  0  0  0  0  0  0  0  0
   19.8327   19.2912   21.3714 C   0  0  0  0  0  0  0  0  0  0  0  0
   20.2083   20.3237   21.3883 H   0  0  0  0  0  0  0  0  0  0  0  0
   18.7360   19.3526   21.3392 H   0  0  0  0  0  0  0  0  0  0  0  0
   20.2719   18.5602   22.6602 C   0  0  0  0  0  0  0  0  0  0  0  0
   21.3686   18.4989   22.6913 H   0  0  0  0  0  0  0  0  0  0  0  0
   19.8962   17.5277   22.6422 H   0  0  0  0  0  0  0  0  0  0  0  0
   19.7583   19.2745   23.9308 C   0  0  0  0  0  0  0  0  0  0  0  0
   20.1340   20.3071   23.9492 H   0  0  0  0  0  0  0  0  0  0  0  0
   18.6614   19.3359   23.9000 H   0  0  0  0  0  0  0  0  0  0  0  0
   20.1968   18.5443   25.2193 C   0  0  0  0  0  0  0  0  0  0  0  0
   21.2928   18.4855   25.2564 H   0  0  0  0  0  0  0  0  0  0  0  0
   19.8188   17.5133   25.2071 H   0  0  0  0  0  0  0  0  0  0  0  0
   19.6802   19.2637   26.4777 C   0  0  0  0  0  0  0  0  0  0  0  0
   20.0676   20.2859   26.5026 H   0  0  0  0  0  0  0  0  0  0  0  0
   18.5881   19.3102   26.4531 H   0  0  0  0  0  0  0  0  0  0  0  0
   20.0901   18.5768   27.7644 N   0  3  0  0  0  0  0  0  0  0  0  0
   19.7359   19.0720   28.5901 H   0  0  0  0  0  0  0  0  0  0  0  0
   21.1095   18.5250   27.8622 H   0  0  0  0  0  0  0  0  0  0  0  0
   19.7328   17.6172   27.8161 H   0  0  0  0  0  0  0  0  0  0  0  0
  1  2  1  0  0  0  0
  1  3  1  0  0  0  0
  1  4  1  0  0  0  0
  1  5  1  0  0  0  0
  5  6  1  0  0  0  0
  5  7  1  0  0  0  0
  5  8  1  0  0  0  0
  8  9  1  0  0  0  0
  8 10  1  0  0  0  0
  8 11  1  0  0  0  0
 11 12  1  0  0  0  0
 11 13  1  0  0  0  0
 11 14  1  0  0  0  0
 14 15  1  0  0  0  0
 14 16  1  0  0  0  0
 14 17  1  0  0  0  0
 17 18  1  0  0  0  0
 17 19  1  0  0  0  0
 17 20  1  0  0  0  0
 20 21  1  0  0  0  0
 20 22  1  0  0  0  0
 20 23  1  0  0  0  0
 23 24  1  0  0  0  0
 23 25  1  0  0  0  0
 23 26  1  0  0  0  0
M  END
> <VM2 Rank>
1

> <Conf_Id>
316

> <Probability>
7.28

> <Sum Probability>
7.28

> <Delta G>
0.000

> <G>
48.261

> <E>
15.909

> <-TS>
32.352

> <U+W>
-5.553

> <U>
47.192

> <W>
-52.745

> <W(PB)>
-55.136

> <W(SA)>
2.391

> <Valence>
2.156

> <Coulomb>
44.449

> <VdW>
0.587

> <VdW6>
-5.761

> <VdW12>
6.348

> <Bond>
0.129

> <Angle>
0.393

> <Pdih>
1.634

> <Idih>
0.000

> <Tether>
0.000

$$$$
VeraChem MOL file


 26 25  0  0  0  0  0  0  0  0999 V2000     
   20.1408   19.6499   19.0008 C   0  0  0  0  0  0  0  0  0  0  0  0
   19.1347   20.0853   18.9420 H   0  0  0  0  0  0  0  0  0  0  0  0
   20.8621   20.4696   19.1149 H   0  0  0  0  0  0  0  0  0  0  0  0
   20.3477   19.1494   18.0460 H   0  0  0  0  0  0  0  0  0  0  0  0
   20.2456   18.6516   20.1733 C   0  0  0  0  0  0  0  0  0  0  0  0
   21.2510   18.2079   20.1855 H   0  0  0  0  0  0  0  0  0  0  0  0
   19.5370   17.8267   20.0140 H   0  0  0  0  0  0  0  0  0  0  0  0
   19.9586   19.3310   21.5306 C   0  0  0  0  0  0  0  0  0  0  0  0
   20.6678   20.1562   21.6841 H   0  0  0  0  0  0  0  0  0  0  0  0
   18.9536   19.7749   21.5127 H   0  0  0  0  0  0  0  0  0  0  0  0
   20.0625   18.3343   22.7072 C   0  0  0  0  0  0  0  0  0  0  0  0
   21.0678   17.8909   22.7245 H   0  0  0  0  0  0  0  0  0  0  0  0
   19.3536   17.5091   22.5519 H   0  0  0  0  0  0  0  0  0  0  0  0
   19.7748   19.0142   24.0649 C   0  0  0  0  0  0  0  0  0  0  0  0
   20.4826   19.8408   24.2124 H   0  0  0  0  0  0  0  0  0  0  0  0
   18.7683   19.4551   24.0484 H   0  0  0  0  0  0  0  0  0  0  0  0
   19.8801   18.0151   25.2413 C   0  0  0  0  0  0  0  0  0  0  0  0
   20.8922   17.5914   25.2861 H   0  0  0  0  0  0  0  0  0  0  0  0
   19.1959   17.1741   25.0665 H   0  0  0  0  0  0  0  0  0  0  0  0
   19.5295   18.6544   26.5987 C   0  0  0  0  0  0  0  0  0  0  0  0
   18.5244   19.0826   26.5554 H   0  0  0  0  0  0  0  0  0  0  0  0
   19.5390   17.8848   27.3753 H   0  0  0  0  0  0  0  0  0  0  0  0
   20.4891   19.7484   27.0243 N   0  3  0  0  0  0  0  0  0  0  0  0
   20.2355   20.1437   27.9363 H   0  0  0  0  0  0  0  0  0  0  0  0
   20.5021   20.5238   26.3545 H   0  0  0  0  0  0  0  0  0  0  0  0
   21.4504   19.4014   27.1054 H   0  0  0  0  0  0  0  0  0  0  0  0
  1  2  1  0  0  0  0
  1  3  1  0  0  0  0
  1  4  1  0  0  0  0
  1  5  1  0  0  0  0
  5  6  1  0  0  0  0
  5  7  1  0  0  0  0
  5  8  1  0  0  0  0
  8  9  1  0  0  0  0
  8 10  1  0  0  0  0
  8 11  1  0  0  0  0
 11 12  1  0  0  0  0
 11 13  1  0  0  0  0
 11 14  1  0  0  0  0
 14 15  1  0  0  0  0
 14 16  1  0  0  0  0
 14 17  1  0  0  0  0
 17 18  1  0  0  0  0
 17 19  1  0  0  0  0
 17 20  1  0  0  0  0
 20 21  1  0  0  0  0
 20 22  1  0  0  0  0
 20 23  1  0  0  0  0
 23 24  1  0  0  0  0
 23 25  1  0  0  0  0
 23 26  1  0  0  0  0
M  END
> <VM2 Rank>
2

> <Conf_Id>
307

> <Probability>
4.80

> <Sum Probability>
12.09

> <Delta G>
0.248

> <G>
48.509

> <E>
16.054

> <-TS>
32.455

> <U+W>
-5.408

> <U>
47.845

> <W>
-53.253

> <W(PB)>
-55.604

> <W(SA)>
2.351

> <Valence>
2.258

> <Coulomb>
44.894

> <VdW>
0.694

> <VdW6>
-6.285

> <VdW12>
6.979

> <Bond>
0.149

> <Angle>
0.434

> <Pdih>
1.675

> <Idih>
0.000

> <Tether>
0.000

$$$$
VeraChem MOL file


 26 25  0  0  0  0  0  0  0  0999 V2000     
   19.4926   19.2223   18.9792 C   0  0  0  0  0  0  0  0  0  0  0  0
   19.4900   20.3199   18.9540 H   0  0  0  0  0  0  0  0  0  0  0  0
   19.9156   18.8646   18.0315 H   0  0  0  0  0  0  0  0  0  0  0  0
   18.4512   18.8791   19.0343 H   0  0  0  0  0  0  0  0  0  0  0  0
   20.3140   18.6968   20.1755 C   0  0  0  0  0  0  0  0  0  0  0  0
   21.3572   19.0277   20.0749 H   0  0  0  0  0  0  0  0  0  0  0  0
   20.3265   17.5980   20.1546 H   0  0  0  0  0  0  0  0  0  0  0  0
   19.7392   19.1863   21.5233 C   0  0  0  0  0  0  0  0  0  0  0  0
   19.7267   20.2849   21.5386 H   0  0  0  0  0  0  0  0  0  0  0  0
   18.6958   18.8552   21.6181 H   0  0  0  0  0  0  0  0  0  0  0  0
   20.5592   18.6619   22.7237 C   0  0  0  0  0  0  0  0  0  0  0  0
   21.6027   18.9926   22.6271 H   0  0  0  0  0  0  0  0  0  0  0  0
   20.5711   17.5633   22.7079 H   0  0  0  0  0  0  0  0  0  0  0  0
   19.9844   19.1524   24.0719 C   0  0  0  0  0  0  0  0  0  0  0  0
   19.9753   20.2512   24.0887 H   0  0  0  0  0  0  0  0  0  0  0  0
   18.9405   18.8235   24.1609 H   0  0  0  0  0  0  0  0  0  0  0  0
   20.8062   18.6259   25.2722 C   0  0  0  0  0  0  0  0  0  0  0  0
   21.8554   18.9282   25.1553 H   0  0  0  0  0  0  0  0  0  0  0  0
   20.7958   17.5278   25.2829 H   0  0  0  0  0  0  0  0  0  0  0  0
   20.2934   19.1583   26.6242 C   0  0  0  0  0  0  0  0  0  0  0  0
   20.9606   18.8225   27.4228 H   0  0  0  0  0  0  0  0  0  0  0  0
   20.2968   20.2516   26.6145 H   0  0  0  0  0  0  0  0  0  0  0  0
   18.8920   18.6950   26.9709 N   0  3  0  0  0  0  0  0  0  0  0  0
   18.5861   19.0559   27.8812 H   0  0  0  0  0  0  0  0  0  0  0  0
   18.8296   17.6728   27.0179 H   0  0  0  0  0  0  0  0  0  0  0  0
   18.2058   19.0092   26.2779 H   0  0  0  0  0  0  0  0  0  0  0  0
  1  2  1  0  0  0  0
  1  3  1  0  0  0  0
  1  4  1  0  0  0  0
  1  5  1  0  0  0  0
  5  6  1  0  0  0  0
  5  7  1  0  0  0  0
  5  8  1  0  0  0  0
  8  9  1  0  0  0  0
  8 10  1  0  0  0  0
  8 11  1  0  0  0  0
 11 12  1  0  0  0  0
 11 13  1  0  0  0  0
 11 14  1  0  0  0  0
 14 15  1  0  0  0  0
 14 16  1  0  0  0  0
 14 17  1  0  0  0  0
 17 18  1  0  0  0  0
 17 19  1  0  0  0  0
 17 20  1  0  0  0  0
 20 21  1  0  0  0  0
 20 22  1  0  0  0  0
 20 23  1  0  0  0  0
 23 24  1  0  0  0  0
 23 25  1  0  0  0  0
 23 26  1  0  0  0  0
M  END
> <VM2 Rank>
3

> <Conf_Id>
1027

> <Probability>
4.67

> <Sum Probability>
16.76

> <Delta G>
0.265

> <G>
48.526

> <E>
16.070

> <-TS>
32.455

> <U+W>
-5.391

> <U>
47.845

> <W>
-53.236

> <W(PB)>
-55.585

> <W(SA)>
2.349

> <Valence>
2.258

> <Coulomb>
44.893

> <VdW>
0.694

> <VdW6>
-6.285

> <VdW12>
6.979

> <Bond>
0.149

> <Angle>
0.434

> <Pdih>
1.675

> <Idih>
0.000

> <Tether>
0.000

$$$$
VeraChem MOL file


 26 25  0  0  0  0  0  0  0  0999 V2000     
   19.7686   18.8534   18.9897 C   0  0  0  0  0  0  0  0  0  0  0  0
   20.5473   19.5752   18.7103 H   0  0  0  0  0  0  0  0  0  0  0  0
   19.7778   18.0440   18.2481 H   0  0  0  0  0  0  0  0  0  0  0  0
   18.7958   19.3581   18.9257 H   0  0  0  0  0  0  0  0  0  0  0  0
   20.0122   18.2958   20.4081 C   0  0  0  0  0  0  0  0  0  0  0  0
   20.9760   17.7682   20.4318 H   0  0  0  0  0  0  0  0  0  0  0  0
   19.2380   17.5526   20.6454 H   0  0  0  0  0  0  0  0  0  0  0  0
   20.0042   19.4156   21.4722 C   0  0  0  0  0  0  0  0  0  0  0  0
   20.7776   20.1572   21.2287 H   0  0  0  0  0  0  0  0  0  0  0  0
   19.0397   19.9413   21.4434 H   0  0  0  0  0  0  0  0  0  0  0  0
   20.2481   18.8613   22.8940 C   0  0  0  0  0  0  0  0  0  0  0  0
   21.2140   18.3382   22.9221 H   0  0  0  0  0  0  0  0  0  0  0  0
   19.4755   18.1166   23.1278 H   0  0  0  0  0  0  0  0  0  0  0  0
   20.2382   19.9852   23.9578 C   0  0  0  0  0  0  0  0  0  0  0  0
   20.9815   20.7472   23.6851 H   0  0  0  0  0  0  0  0  0  0  0  0
   19.2617   20.4892   23.9558 H   0  0  0  0  0  0  0  0  0  0  0  0
   20.5521   19.4746   25.3837 C   0  0  0  0  0  0  0  0  0  0  0  0
   20.6147   20.3342   26.0643 H   0  0  0  0  0  0  0  0  0  0  0  0
   21.5389   18.9927   25.3943 H   0  0  0  0  0  0  0  0  0  0  0  0
   19.4900   18.4917   25.9111 C   0  0  0  0  0  0  0  0  0  0  0  0
   18.5077   18.9716   25.9018 H   0  0  0  0  0  0  0  0  0  0  0  0
   19.4489   17.6099   25.2666 H   0  0  0  0  0  0  0  0  0  0  0  0
   19.7675   18.0214   27.3244 N   0  3  0  0  0  0  0  0  0  0  0  0
   19.0494   17.3684   27.6566 H   0  0  0  0  0  0  0  0  0  0  0  0
   19.7913   18.8018   27.9890 H   0  0  0  0  0  0  0  0  0  0  0  0
   20.6680   17.5365   27.3960 H   0  0  0  0  0  0  0  0  0  0  0  0
  1  2  1  0  0  0  0
  1  3  1  0  0  0  0
  1  4  1  0  0  0  0
  1  5  1  0  0  0  0
  5  6  1  0  0  0  0
  5  7  1  0  0  0  0
  5  8  1  0  0  0  0
  8  9  1  0  0  0  0
  8 10  1  0  0  0  0
  8 11  1  0  0  0  0
 11 12  1  0  0  0  0
 11 13  1  0  0  0  0
 11 14  1  0  0  0  0
 14 15  1  0  0  0  0
 14 16  1  0  0  0  0
 14 17  1  0  0  0  0
 17 18  1  0  0  0  0
 17 19  1  0  0  0  0
 17 20  1  0  0  0  0
 20 21  1  0  0  0  0
 20 22  1  0  0  0  0
 20 23  1  0  0  0  0
 23 24  1  0  0  0  0
 23 25  1  0  0  0  0
 23 26  1  0  0  0  0
M  END
> <VM2 Rank>
4

> <Conf_Id>
1028

> <Probability>
3.31

> <Sum Probability>
20.07

> <Delta G>
0.470

> <G>
48.731

> <E>
16.280

> <-TS>
32.451

> <U+W>
-5.182

> <U>
48.002

> <W>
-53.183

> <W(PB)>
-55.533

> <W(SA)>
2.350

> <Valence>
2.459

> <Coulomb>
44.900

> <VdW>
0.643

> <VdW6>
-6.362

> <VdW12>
7.005

> <Bond>
0.151

> <Angle>
0.519

> <Pdih>
1.789

> <Idih>
0.000

> <Tether>
0.000

$$$$
VeraChem MOL file


 26 25  0  0  0  0  0  0  0  0999 V2000     
   20.3710   19.2510   19.0099 C   0  0  0  0  0  0  0  0  0  0  0  0
   19.4151   18.8295   18.6725 H   0  0  0  0  0  0  0  0  0  0  0  0
   20.2930   20.3455   18.9761 H   0  0  0  0  0  0  0  0  0  0  0  0
   21.1452   18.9461   18.2938 H   0  0  0  0  0  0  0  0  0  0  0  0
   20.7212   18.7634   20.4317 C   0  0  0  0  0  0  0  0  0  0  0  0
   21.6969   19.1736   20.7277 H   0  0  0  0  0  0  0  0  0  0  0  0
   20.8258   17.6693   20.4265 H   0  0  0  0  0  0  0  0  0  0  0  0
   19.6464   19.1797   21.4603 C   0  0  0  0  0  0  0  0  0  0  0  0
   19.5440   20.2738   21.4605 H   0  0  0  0  0  0  0  0  0  0  0  0
   18.6728   18.7695   21.1584 H   0  0  0  0  0  0  0  0  0  0  0  0
   19.9935   18.6931   22.8854 C   0  0  0  0  0  0  0  0  0  0  0  0
   20.9701   19.1017   23.1778 H   0  0  0  0  0  0  0  0  0  0  0  0
   20.0931   17.5988   22.8844 H   0  0  0  0  0  0  0  0  0  0  0  0
   18.9156   19.1127   23.9136 C   0  0  0  0  0  0  0  0  0  0  0  0
   18.8363   20.2084   23.9416 H   0  0  0  0  0  0  0  0  0  0  0  0
   17.9365   18.7388   23.5834 H   0  0  0  0  0  0  0  0  0  0  0  0
   19.1951   18.5794   25.3384 C   0  0  0  0  0  0  0  0  0  0  0  0
   19.2500   17.4828   25.3179 H   0  0  0  0  0  0  0  0  0  0  0  0
   18.3493   18.8399   25.9886 H   0  0  0  0  0  0  0  0  0  0  0  0
   20.4904   19.1515   25.9445 C   0  0  0  0  0  0  0  0  0  0  0  0
   21.3465   18.8615   25.3300 H   0  0  0  0  0  0  0  0  0  0  0  0
   20.4356   20.2433   25.9661 H   0  0  0  0  0  0  0  0  0  0  0  0
   20.7477   18.6681   27.3571 N   0  3  0  0  0  0  0  0  0  0  0  0
   21.6139   19.0602   27.7423 H   0  0  0  0  0  0  0  0  0  0  0  0
   20.8363   17.6477   27.4017 H   0  0  0  0  0  0  0  0  0  0  0  0
   19.9906   18.9334   27.9956 H   0  0  0  0  0  0  0  0  0  0  0  0
  1  2  1  0  0  0  0
  1  3  1  0  0  0  0
  1  4  1  0  0  0  0
  1  5  1  0  0  0  0
  5  6  1  0  0  0  0
  5  7  1  0  0  0  0
  5  8  1  0  0  0  0
  8  9  1  0  0  0  0
  8 10  1  0  0  0  0
  8 11  1  0  0  0  0
 11 12  1  0  0  0  0
 11 13  1  0  0  0  0
 11 14  1  0  0  0  0
 14 15  1  0  0  0  0
 14 16  1  0  0  0  0
 14 17  1  0  0  0  0
 17 18  1  0  0  0  0
 17 19  1  0  0  0  0
 17 20  1  0  0  0  0
 20 21  1  0  0  0  0
 20 22  1  0  0  0  0
 20 23  1  0  0  0  0
 23 24  1  0  0  0  0
 23 25  1  0  0  0  0
 23 26  1  0  0  0  0
M  END
> <VM2 Rank>
5

> <Conf_Id>
934

> <Probability>
3.29

> <Sum Probability>
23.37

> <Delta G>
0.473

> <G>
48.734

> <E>
16.283

> <-TS>
32.451

> <U+W>
-5.178

> <U>
48.002

> <W>
-53.180

> <W(PB)>
-55.522

> <W(SA)>
2.341

> <Valence>
2.459

> <Coulomb>
44.900

> <VdW>
0.643

> <VdW6>
-6.362

> <VdW12>
7.005

> <Bond>
0.151

> <Angle>
0.519

> <Pdih>
1.789

> <Idih>
0.000

> <Tether>
0.000

$$$$
VeraChem MOL file


 26 25  0  0  0  0  0  0  0  0999 V2000     
   19.4448   18.1622   19.5242 C   0  0  0  0  0  0  0  0  0  0  0  0
   18.4489   18.6238   19.5137 H   0  0  0  0  0  0  0  0  0  0  0  0
   19.6602   17.8057   18.5086 H   0  0  0  0  0  0  0  0  0  0  0  0
   19.4104   17.2843   20.1811 H   0  0  0  0  0  0  0  0  0  0  0  0
   20.5209   19.1726   19.9822 C   0  0  0  0  0  0  0  0  0  0  0  0
   20.6013   19.9695   19.2297 H   0  0  0  0  0  0  0  0  0  0  0  0
   21.5023   18.6789   20.0130 H   0  0  0  0  0  0  0  0  0  0  0  0
   20.2154   19.8164   21.3563 C   0  0  0  0  0  0  0  0  0  0  0  0
   20.9651   20.5960   21.5502 H   0  0  0  0  0  0  0  0  0  0  0  0
   19.2431   20.3263   21.3143 H   0  0  0  0  0  0  0  0  0  0  0  0
   20.2242   18.8044   22.5271 C   0  0  0  0  0  0  0  0  0  0  0  0
   21.1785   18.2599   22.5339 H   0  0  0  0  0  0  0  0  0  0  0  0
   19.4318   18.0585   22.3822 H   0  0  0  0  0  0  0  0  0  0  0  0
   20.0186   19.5030   23.8904 C   0  0  0  0  0  0  0  0  0  0  0  0
   20.8118   20.2475   24.0459 H   0  0  0  0  0  0  0  0  0  0  0  0
   19.0658   20.0507   23.8823 H   0  0  0  0  0  0  0  0  0  0  0  0
   20.0230   18.4950   25.0607 C   0  0  0  0  0  0  0  0  0  0  0  0
   20.9758   17.9489   25.0749 H   0  0  0  0  0  0  0  0  0  0  0  0
   19.2278   17.7523   24.9124 H   0  0  0  0  0  0  0  0  0  0  0  0
   19.8179   19.2010   26.4126 C   0  0  0  0  0  0  0  0  0  0  0  0
   20.6168   19.9301   26.5722 H   0  0  0  0  0  0  0  0  0  0  0  0
   18.8625   19.7327   26.4090 H   0  0  0  0  0  0  0  0  0  0  0  0
   19.8162   18.2444   27.5875 N   0  3  0  0  0  0  0  0  0  0  0  0
   19.6782   18.7349   28.4779 H   0  0  0  0  0  0  0  0  0  0  0  0
   20.7005   17.7311   27.6637 H   0  0  0  0  0  0  0  0  0  0  0  0
   19.0681   17.5474   27.5119 H   0  0  0  0  0  0  0  0  0  0  0  0
  1  2  1  0  0  0  0
  1  3  1  0  0  0  0
  1  4  1  0  0  0  0
  1  5  1  0  0  0  0
  5  6  1  0  0  0  0
  5  7  1  0  0  0  0
  5  8  1  0  0  0  0
  8  9  1  0  0  0  0
  8 10  1  0  0  0  0
  8 11  1  0  0  0  0
 11 12  1  0  0  0  0
 11 13  1  0  0  0  0
 11 14  1  0  0  0  0
 14 15  1  0  0  0  0
 14 16  1  0  0  0  0
 14 17  1  0  0  0  0
 17 18  1  0  0  0  0
 17 19  1  0  0  0  0
 17 20  1  0  0  0  0
 20 21  1  0  0  0  0
 20 22  1  0  0  0  0
 20 23  1  0  0  0  0
 23 24  1  0  0  0  0
 23 25  1  0  0  0  0
 23 26  1  0  0  0  0
M  END
> <VM2 Rank>
6

> <Conf_Id>
1030

> <Probability>
2.72

> <Sum Probability>
26.09

> <Delta G>
0.588

> <G>
48.849

> <E>
16.386

> <-TS>
32.463

> <U+W>
-5.076

> <U>
47.845

> <W>
-52.921

> <W(PB)>
-55.283

> <W(SA)>
2.362

> <Valence>
2.661

> <Coulomb>
44.462

> <VdW>
0.722

> <VdW6>
-6.379

> <VdW12>
7.102

> <Bond>
0.164

> <Angle>
0.634

> <Pdih>
1.863

> <Idih>
0.000

> <Tether>
0.000

$$$$
VeraChem MOL file


 26 25  0  0  0  0  0  0  0  0999 V2000     
   21.1081   19.2588   19.5798 C   0  0  0  0  0  0  0  0  0  0  0  0
   21.0760   20.3559   19.6016 H   0  0  0  0  0  0  0  0  0  0  0  0
   21.8973   18.9238   20.2642 H   0  0  0  0  0  0  0  0  0  0  0  0
   21.3981   18.9515   18.5667 H   0  0  0  0  0  0  0  0  0  0  0  0
   19.7359   18.6551   19.9560 C   0  0  0  0  0  0  0  0  0  0  0  0
   19.8023   17.5581   19.9562 H   0  0  0  0  0  0  0  0  0  0  0  0
   19.0076   18.9187   19.1764 H   0  0  0  0  0  0  0  0  0  0  0  0
   19.2008   19.1474   21.3224 C   0  0  0  0  0  0  0  0  0  0  0  0
   19.1163   20.2428   21.3100 H   0  0  0  0  0  0  0  0  0  0  0  0
   18.1813   18.7603   21.4572 H   0  0  0  0  0  0  0  0  0  0  0  0
   20.0723   18.7043   22.5220 C   0  0  0  0  0  0  0  0  0  0  0  0
   21.0754   19.1425   22.4371 H   0  0  0  0  0  0  0  0  0  0  0  0
   20.1973   17.6129   22.5011 H   0  0  0  0  0  0  0  0  0  0  0  0
   19.4481   19.1268   23.8713 C   0  0  0  0  0  0  0  0  0  0  0  0
   19.3196   20.2181   23.8908 H   0  0  0  0  0  0  0  0  0  0  0  0
   18.4455   18.6870   23.9668 H   0  0  0  0  0  0  0  0  0  0  0  0
   20.3177   18.6893   25.0705 C   0  0  0  0  0  0  0  0  0  0  0  0
   21.3191   19.1315   24.9823 H   0  0  0  0  0  0  0  0  0  0  0  0
   20.4445   17.5985   25.0570 H   0  0  0  0  0  0  0  0  0  0  0  0
   19.6869   19.1145   26.4082 C   0  0  0  0  0  0  0  0  0  0  0  0
   19.5738   20.2018   26.4328 H   0  0  0  0  0  0  0  0  0  0  0  0
   18.6960   18.6633   26.5079 H   0  0  0  0  0  0  0  0  0  0  0  0
   20.5113   18.7027   27.6107 N   0  3  0  0  0  0  0  0  0  0  0  0
   20.0735   18.9955   28.4911 H   0  0  0  0  0  0  0  0  0  0  0  0
   21.4489   19.1173   27.5915 H   0  0  0  0  0  0  0  0  0  0  0  0
   20.6320   17.6858   27.6613 H   0  0  0  0  0  0  0  0  0  0  0  0
  1  2  1  0  0  0  0
  1  3  1  0  0  0  0
  1  4  1  0  0  0  0
  1  5  1  0  0  0  0
  5  6  1  0  0  0  0
  5  7  1  0  0  0  0
  5  8  1  0  0  0  0
  8  9  1  0  0  0  0
  8 10  1  0  0  0  0
  8 11  1  0  0  0  0
 11 12  1  0  0  0  0
 11 13  1  0  0  0  0
 11 14  1  0  0  0  0
 14 15  1  0  0  0  0
 14 16  1  0  0  0  0
 14 17  1  0  0  0  0
 17 18  1  0  0  0  0
 17 19  1  0  0  0  0
 17 20  1  0  0  0  0
 20 21  1  0  0  0  0
 20 22  1  0  0  0  0
 20 23  1  0  0  0  0
 23 24  1  0  0  0  0
 23 25  1  0  0  0  0
 23 26  1  0  0  0  0
M  END
> <VM2 Rank>
7

> <Conf_Id>
999

> <Probability>
2.54

> <Sum Probability>
28.62

> <Delta G>
0.629

> <G>
48.890

> <E>
16.427

> <-TS>
32.463

> <U+W>
-5.035

> <U>
47.845

> <W>
-52.880

> <W(PB)>
-55.232

> <W(SA)>
2.352

> <Valence>
2.661

> <Coulomb>
44.462

> <VdW>
0.723

> <VdW6>
-6.379

> <VdW12>
7.102

> <Bond>
0.164

> <Angle>
0.634

> <Pdih>
1.863

> <Idih>
0.000

> <Tether>
0.000

$$$$
VeraChem MOL file


 26 25  0  0  0  0  0  0  0  0999 V2000     
   20.1863   19.7828   19.1892 C   0  0  0  0  0  0  0  0  0  0  0  0
   20.2155   18.9014   18.5353 H   0  0  0  0  0  0  0  0  0  0  0  0
   19.1866   20.2305   19.1153 H   0  0  0  0  0  0  0  0  0  0  0  0
   20.9114   20.5116   18.8044 H   0  0  0  0  0  0  0  0  0  0  0  0
   20.5171   19.4032   20.6482 C   0  0  0  0  0  0  0  0  0  0  0  0
   20.5184   20.3141   21.2613 H   0  0  0  0  0  0  0  0  0  0  0  0
   21.5327   18.9858   20.6945 H   0  0  0  0  0  0  0  0  0  0  0  0
   19.5050   18.3792   21.2142 C   0  0  0  0  0  0  0  0  0  0  0  0
   18.4972   18.8169   21.2168 H   0  0  0  0  0  0  0  0  0  0  0  0
   19.4620   17.5113   20.5417 H   0  0  0  0  0  0  0  0  0  0  0  0
   19.8577   17.8796   22.6369 C   0  0  0  0  0  0  0  0  0  0  0  0
   20.8595   17.4281   22.6300 H   0  0  0  0  0  0  0  0  0  0  0  0
   19.1590   17.0752   22.9055 H   0  0  0  0  0  0  0  0  0  0  0  0
   19.7905   18.9868   23.7163 C   0  0  0  0  0  0  0  0  0  0  0  0
   20.5373   19.7634   23.5051 H   0  0  0  0  0  0  0  0  0  0  0  0
   18.8055   19.4729   23.6835 H   0  0  0  0  0  0  0  0  0  0  0  0
   20.0384   18.4224   25.1326 C   0  0  0  0  0  0  0  0  0  0  0  0
   21.0227   17.9367   25.1699 H   0  0  0  0  0  0  0  0  0  0  0  0
   19.2897   17.6521   25.3608 H   0  0  0  0  0  0  0  0  0  0  0  0
   19.9736   19.5298   26.1993 C   0  0  0  0  0  0  0  0  0  0  0  0
   20.7286   20.2912   25.9859 H   0  0  0  0  0  0  0  0  0  0  0  0
   18.9893   20.0054   26.1768 H   0  0  0  0  0  0  0  0  0  0  0  0
   20.2124   19.0153   27.6041 N   0  3  0  0  0  0  0  0  0  0  0  0
   20.1649   19.7686   28.2989 H   0  0  0  0  0  0  0  0  0  0  0  0
   21.1354   18.5791   27.6997 H   0  0  0  0  0  0  0  0  0  0  0  0
   19.5171   18.3132   27.8774 H   0  0  0  0  0  0  0  0  0  0  0  0
  1  2  1  0  0  0  0
  1  3  1  0  0  0  0
  1  4  1  0  0  0  0
  1  5  1  0  0  0  0
  5  6  1  0  0  0  0
  5  7  1  0  0  0  0
  5  8  1  0  0  0  0
  8  9  1  0  0  0  0
  8 10  1  0  0  0  0
  8 11  1  0  0  0  0
 11 12  1  0  0  0  0
 11 13  1  0  0  0  0
 11 14  1  0  0  0  0
 14 15  1  0  0  0  0
 14 16  1  0  0  0  0
 14 17  1  0  0  0  0
 17 18  1  0  0  0  0
 17 19  1  0  0  0  0
 17 20  1  0  0  0  0
 20 21  1  0  0  0  0
 20 22  1  0  0  0  0
 20 23  1  0  0  0  0
 23 24  1  0  0  0  0
 23 25  1  0  0  0  0
 23 26  1  0  0  0  0
M  END
> <VM2 Rank>
8

> <Conf_Id>
1512

> <Probability>
2.39

> <Sum Probability>
31.02

> <Delta G>
0.663

> <G>
48.924

> <E>
16.474

> <-TS>
32.451

> <U+W>
-4.988

> <U>
48.035

> <W>
-53.023

> <W(PB)>
-55.380

> <W(SA)>
2.357

> <Valence>
2.701

> <Coulomb>
44.622

> <VdW>
0.712

> <VdW6>
-6.418

> <VdW12>
7.129

> <Bond>
0.168

> <Angle>
0.659

> <Pdih>
1.875

> <Idih>
0.000

> <Tether>
0.000

$$$$
