VeraChem MOL file


 23 22  0  0  0  0  0  0  0  0999 V2000     
   19.7415   18.6610   26.4278 N   0  3  0  0  0  0  0  0  0  0  0  0
   20.7321   18.4175   26.5284 H   0  0  0  0  0  0  0  0  0  0  0  0
   19.2108   17.7845   26.4591 H   0  0  0  0  0  0  0  0  0  0  0  0
   19.4803   19.1973   27.2623 H   0  0  0  0  0  0  0  0  0  0  0  0
   19.4763   19.4376   25.1540 C   0  0  0  0  0  0  0  0  0  0  0  0
   20.0476   20.3686   25.2013 H   0  0  0  0  0  0  0  0  0  0  0  0
   18.4124   19.6882   25.1268 H   0  0  0  0  0  0  0  0  0  0  0  0
   19.8579   18.6596   23.8821 C   0  0  0  0  0  0  0  0  0  0  0  0
   20.9232   18.3958   23.9215 H   0  0  0  0  0  0  0  0  0  0  0  0
   19.2937   17.7180   23.8472 H   0  0  0  0  0  0  0  0  0  0  0  0
   19.5729   19.4847   22.6077 C   0  0  0  0  0  0  0  0  0  0  0  0
   20.1350   20.4281   22.6489 H   0  0  0  0  0  0  0  0  0  0  0  0
   18.5072   19.7512   22.5748 H   0  0  0  0  0  0  0  0  0  0  0  0
   19.9525   18.7125   21.3237 C   0  0  0  0  0  0  0  0  0  0  0  0
   21.0180   18.4460   21.3565 H   0  0  0  0  0  0  0  0  0  0  0  0
   19.3904   17.7692   21.2823 H   0  0  0  0  0  0  0  0  0  0  0  0
   19.6673   19.5379   20.0493 C   0  0  0  0  0  0  0  0  0  0  0  0
   20.2294   20.4818   20.0849 H   0  0  0  0  0  0  0  0  0  0  0  0
   18.6019   19.8050   20.0107 H   0  0  0  0  0  0  0  0  0  0  0  0
   20.0477   18.7637   18.7693 C   0  0  0  0  0  0  0  0  0  0  0  0
   21.1162   18.5120   18.7630 H   0  0  0  0  0  0  0  0  0  0  0  0
   19.8382   19.3656   17.8755 H   0  0  0  0  0  0  0  0  0  0  0  0
   19.4760   17.8300   18.6882 H   0  0  0  0  0  0  0  0  0  0  0  0
  1  2  1  0  0  0  0
  1  3  1  0  0  0  0
  1  4  1  0  0  0  0
  1  5  1  0  0  0  0
  5  6  1  0  0  0  0
  5  7  1  0  0  0  0
  5  8  1  0  0  0  0
  8  9  1  0  0  0  0
  8 10  1  0  0  0  0
  8 11  1  0  0  0  0
 11 12  1  0  0  0  0
 11 13  1  0  0  0  0
 11 14  1  0  0  0  0
 14 15  1  0  0  0  0
 14 16  1  0  0  0  0
 14 17  1  0  0  0  0
 17 18  1  0  0  0  0
 17 19  1  0  0  0  0
 17 20  1  0  0  0  0
 20 21  1  0  0  0  0
 20 22  1  0  0  0  0
 20 23  1  0  0  0  0
M  END
> <VM2 Rank>
1

> <Conf_Id>
241

> <Probability>
12.96

> <Sum Probability>
12.96

> <Delta G>
0.000

> <G>
37.916

> <E>
10.396

> <-TS>
27.520

> <U+W>
-8.383

> <U>
46.604

> <W>
-54.987

> <W(PB)>
-57.163

> <W(SA)>
2.176

> <Valence>
1.727

> <Coulomb>
44.434

> <VdW>
0.443

> <VdW6>
-4.623

> <VdW12>
5.066

> <Bond>
0.112

> <Angle>
0.386

> <Pdih>
1.228

> <Idih>
0.000

> <Tether>
0.000

$$$$
VeraChem MOL file


 23 22  0  0  0  0  0  0  0  0999 V2000     
   18.7298   18.7423   25.7155 N   0  3  0  0  0  0  0  0  0  0  0  0
   18.4302   19.0734   26.6388 H   0  0  0  0  0  0  0  0  0  0  0  0
   18.7752   17.7195   25.7652 H   0  0  0  0  0  0  0  0  0  0  0  0
   17.9834   18.9809   25.0555 H   0  0  0  0  0  0  0  0  0  0  0  0
   20.0587   19.3465   25.3051 C   0  0  0  0  0  0  0  0  0  0  0  0
   20.7924   19.0857   26.0727 H   0  0  0  0  0  0  0  0  0  0  0  0
   19.9484   20.4342   25.2950 H   0  0  0  0  0  0  0  0  0  0  0  0
   20.5632   18.8635   23.9314 C   0  0  0  0  0  0  0  0  0  0  0  0
   21.5692   19.2723   23.7678 H   0  0  0  0  0  0  0  0  0  0  0  0
   20.6676   17.7703   23.9429 H   0  0  0  0  0  0  0  0  0  0  0  0
   19.6390   19.2961   22.7685 C   0  0  0  0  0  0  0  0  0  0  0  0
   19.5165   20.3881   22.7854 H   0  0  0  0  0  0  0  0  0  0  0  0
   18.6397   18.8612   22.9040 H   0  0  0  0  0  0  0  0  0  0  0  0
   20.2012   18.8613   21.3960 C   0  0  0  0  0  0  0  0  0  0  0  0
   21.1994   19.2978   21.2523 H   0  0  0  0  0  0  0  0  0  0  0  0
   20.3265   17.7697   21.3795 H   0  0  0  0  0  0  0  0  0  0  0  0
   19.2795   19.2914   20.2331 C   0  0  0  0  0  0  0  0  0  0  0  0
   19.1527   20.3831   20.2443 H   0  0  0  0  0  0  0  0  0  0  0  0
   18.2803   18.8549   20.3704 H   0  0  0  0  0  0  0  0  0  0  0  0
   19.8446   18.8559   18.8644 C   0  0  0  0  0  0  0  0  0  0  0  0
   19.1769   19.1699   18.0516 H   0  0  0  0  0  0  0  0  0  0  0  0
   19.9509   17.7645   18.8103 H   0  0  0  0  0  0  0  0  0  0  0  0
   20.8300   19.3047   18.6831 H   0  0  0  0  0  0  0  0  0  0  0  0
  1  2  1  0  0  0  0
  1  3  1  0  0  0  0
  1  4  1  0  0  0  0
  1  5  1  0  0  0  0
  5  6  1  0  0  0  0
  5  7  1  0  0  0  0
  5  8  1  0  0  0  0
  8  9  1  0  0  0  0
  8 10  1  0  0  0  0
  8 11  1  0  0  0  0
 11 12  1  0  0  0  0
 11 13  1  0  0  0  0
 11 14  1  0  0  0  0
 14 15  1  0  0  0  0
 14 16  1  0  0  0  0
 14 17  1  0  0  0  0
 17 18  1  0  0  0  0
 17 19  1  0  0  0  0
 17 20  1  0  0  0  0
 20 21  1  0  0  0  0
 20 22  1  0  0  0  0
 20 23  1  0  0  0  0
M  END
> <VM2 Rank>
2

> <Conf_Id>
514

> <Probability>
7.75

> <Sum Probability>
20.71

> <Delta G>
0.307

> <G>
38.223

> <E>
10.600

> <-TS>
27.622

> <U+W>
-8.179

> <U>
47.288

> <W>
-55.467

> <W(PB)>
-57.600

> <W(SA)>
2.133

> <Valence>
1.833

> <Coulomb>
44.908

> <VdW>
0.548

> <VdW6>
-5.142

> <VdW12>
5.690

> <Bond>
0.133

> <Angle>
0.431

> <Pdih>
1.269

> <Idih>
0.000

> <Tether>
0.000

$$$$
VeraChem MOL file


 23 22  0  0  0  0  0  0  0  0999 V2000     
   19.5097   18.2599   26.0548 N   0  3  0  0  0  0  0  0  0  0  0  0
   20.4067   17.7706   26.1372 H   0  0  0  0  0  0  0  0  0  0  0  0
   18.7901   17.6263   26.4193 H   0  0  0  0  0  0  0  0  0  0  0  0
   19.5461   19.0649   26.6885 H   0  0  0  0  0  0  0  0  0  0  0  0
   19.2220   18.6768   24.6269 C   0  0  0  0  0  0  0  0  0  0  0  0
   18.2433   19.1638   24.6081 H   0  0  0  0  0  0  0  0  0  0  0  0
   19.1675   17.7709   24.0177 H   0  0  0  0  0  0  0  0  0  0  0  0
   20.2860   19.6299   24.0505 C   0  0  0  0  0  0  0  0  0  0  0  0
   20.3621   20.5150   24.6961 H   0  0  0  0  0  0  0  0  0  0  0  0
   21.2692   19.1411   24.0703 H   0  0  0  0  0  0  0  0  0  0  0  0
   19.9615   20.0869   22.6086 C   0  0  0  0  0  0  0  0  0  0  0  0
   20.7077   20.8317   22.2989 H   0  0  0  0  0  0  0  0  0  0  0  0
   18.9889   20.5983   22.5965 H   0  0  0  0  0  0  0  0  0  0  0  0
   19.9520   18.9222   21.5893 C   0  0  0  0  0  0  0  0  0  0  0  0
   20.9140   18.3927   21.6277 H   0  0  0  0  0  0  0  0  0  0  0  0
   19.1764   18.1931   21.8593 H   0  0  0  0  0  0  0  0  0  0  0  0
   19.6977   19.4219   20.1497 C   0  0  0  0  0  0  0  0  0  0  0  0
   20.4736   20.1466   19.8654 H   0  0  0  0  0  0  0  0  0  0  0  0
   18.7366   19.9531   20.1057 H   0  0  0  0  0  0  0  0  0  0  0  0
   19.6871   18.2594   19.1342 C   0  0  0  0  0  0  0  0  0  0  0  0
   20.6484   17.7292   19.1310 H   0  0  0  0  0  0  0  0  0  0  0  0
   19.5056   18.6338   18.1184 H   0  0  0  0  0  0  0  0  0  0  0  0
   18.8976   17.5346   19.3720 H   0  0  0  0  0  0  0  0  0  0  0  0
  1  2  1  0  0  0  0
  1  3  1  0  0  0  0
  1  4  1  0  0  0  0
  1  5  1  0  0  0  0
  5  6  1  0  0  0  0
  5  7  1  0  0  0  0
  5  8  1  0  0  0  0
  8  9  1  0  0  0  0
  8 10  1  0  0  0  0
  8 11  1  0  0  0  0
 11 12  1  0  0  0  0
 11 13  1  0  0  0  0
 11 14  1  0  0  0  0
 14 15  1  0  0  0  0
 14 16  1  0  0  0  0
 14 17  1  0  0  0  0
 17 18  1  0  0  0  0
 17 19  1  0  0  0  0
 17 20  1  0  0  0  0
 20 21  1  0  0  0  0
 20 22  1  0  0  0  0
 20 23  1  0  0  0  0
M  END
> <VM2 Rank>
3

> <Conf_Id>
130

> <Probability>
5.96

> <Sum Probability>
26.67

> <Delta G>
0.463

> <G>
38.379

> <E>
10.761

> <-TS>
27.618

> <U+W>
-8.018

> <U>
47.375

> <W>
-55.393

> <W(PB)>
-57.544

> <W(SA)>
2.152

> <Valence>
2.032

> <Coulomb>
44.843

> <VdW>
0.500

> <VdW6>
-5.218

> <VdW12>
5.718

> <Bond>
0.135

> <Angle>
0.514

> <Pdih>
1.383

> <Idih>
0.000

> <Tether>
0.000

$$$$
VeraChem MOL file


 23 22  0  0  0  0  0  0  0  0999 V2000     
   20.2168   18.5540   26.0871 N   0  3  0  0  0  0  0  0  0  0  0  0
   21.1422   18.6046   26.5265 H   0  0  0  0  0  0  0  0  0  0  0  0
   19.9269   17.5712   26.1154 H   0  0  0  0  0  0  0  0  0  0  0  0
   19.5723   19.0759   26.6897 H   0  0  0  0  0  0  0  0  0  0  0  0
   20.2345   19.0979   24.6730 C   0  0  0  0  0  0  0  0  0  0  0  0
   20.9613   18.5169   24.0995 H   0  0  0  0  0  0  0  0  0  0  0  0
   20.5783   20.1349   24.7145 H   0  0  0  0  0  0  0  0  0  0  0  0
   18.8575   19.0358   23.9854 C   0  0  0  0  0  0  0  0  0  0  0  0
   18.5117   17.9943   23.9446 H   0  0  0  0  0  0  0  0  0  0  0  0
   18.1274   19.5856   24.5942 H   0  0  0  0  0  0  0  0  0  0  0  0
   18.8737   19.6344   22.5590 C   0  0  0  0  0  0  0  0  0  0  0  0
   19.1953   20.6842   22.6059 H   0  0  0  0  0  0  0  0  0  0  0  0
   17.8466   19.6417   22.1685 H   0  0  0  0  0  0  0  0  0  0  0  0
   19.7840   18.8524   21.5817 C   0  0  0  0  0  0  0  0  0  0  0  0
   20.8237   18.8785   21.9342 H   0  0  0  0  0  0  0  0  0  0  0  0
   19.4807   17.7964   21.5625 H   0  0  0  0  0  0  0  0  0  0  0  0
   19.7202   19.4311   20.1507 C   0  0  0  0  0  0  0  0  0  0  0  0
   20.0220   20.4879   20.1641 H   0  0  0  0  0  0  0  0  0  0  0  0
   18.6845   19.4021   19.7840 H   0  0  0  0  0  0  0  0  0  0  0  0
   20.6295   18.6514   19.1771 C   0  0  0  0  0  0  0  0  0  0  0  0
   20.5703   19.0766   18.1668 H   0  0  0  0  0  0  0  0  0  0  0  0
   20.3306   17.5968   19.1167 H   0  0  0  0  0  0  0  0  0  0  0  0
   21.6784   18.6916   19.4985 H   0  0  0  0  0  0  0  0  0  0  0  0
  1  2  1  0  0  0  0
  1  3  1  0  0  0  0
  1  4  1  0  0  0  0
  1  5  1  0  0  0  0
  5  6  1  0  0  0  0
  5  7  1  0  0  0  0
  5  8  1  0  0  0  0
  8  9  1  0  0  0  0
  8 10  1  0  0  0  0
  8 11  1  0  0  0  0
 11 12  1  0  0  0  0
 11 13  1  0  0  0  0
 11 14  1  0  0  0  0
 14 15  1  0  0  0  0
 14 16  1  0  0  0  0
 14 17  1  0  0  0  0
 17 18  1  0  0  0  0
 17 19  1  0  0  0  0
 17 20  1  0  0  0  0
 20 21  1  0  0  0  0
 20 22  1  0  0  0  0
 20 23  1  0  0  0  0
M  END
> <VM2 Rank>
4

> <Conf_Id>
692

> <Probability>
5.33

> <Sum Probability>
32.01

> <Delta G>
0.529

> <G>
38.445

> <E>
10.827

> <-TS>
27.618

> <U+W>
-7.952

> <U>
47.375

> <W>
-55.326

> <W(PB)>
-57.491

> <W(SA)>
2.164

> <Valence>
2.032

> <Coulomb>
44.843

> <VdW>
0.499

> <VdW6>
-5.218

> <VdW12>
5.717

> <Bond>
0.135

> <Angle>
0.514

> <Pdih>
1.383

> <Idih>
0.000

> <Tether>
0.000

$$$$
VeraChem MOL file


 23 22  0  0  0  0  0  0  0  0999 V2000     
   19.5474   18.7522   26.3216 N   0  3  0  0  0  0  0  0  0  0  0  0
   18.8411   18.9694   27.0331 H   0  0  0  0  0  0  0  0  0  0  0  0
   20.4084   19.2339   26.6000 H   0  0  0  0  0  0  0  0  0  0  0  0
   19.7318   17.7456   26.3828 H   0  0  0  0  0  0  0  0  0  0  0  0
   19.0936   19.1608   24.9349 C   0  0  0  0  0  0  0  0  0  0  0  0
   18.8876   20.2345   24.9500 H   0  0  0  0  0  0  0  0  0  0  0  0
   18.1603   18.6348   24.7166 H   0  0  0  0  0  0  0  0  0  0  0  0
   20.1323   18.8479   23.8432 C   0  0  0  0  0  0  0  0  0  0  0  0
   21.0728   19.3650   24.0758 H   0  0  0  0  0  0  0  0  0  0  0  0
   20.3480   17.7711   23.8423 H   0  0  0  0  0  0  0  0  0  0  0  0
   19.6322   19.2791   22.4466 C   0  0  0  0  0  0  0  0  0  0  0  0
   19.4159   20.3564   22.4518 H   0  0  0  0  0  0  0  0  0  0  0  0
   18.6865   18.7648   22.2299 H   0  0  0  0  0  0  0  0  0  0  0  0
   20.6695   18.9646   21.3418 C   0  0  0  0  0  0  0  0  0  0  0  0
   21.6298   19.4270   21.6089 H   0  0  0  0  0  0  0  0  0  0  0  0
   20.8495   17.8814   21.2995 H   0  0  0  0  0  0  0  0  0  0  0  0
   20.2524   19.4739   19.9408 C   0  0  0  0  0  0  0  0  0  0  0  0
   21.0845   19.3064   19.2427 H   0  0  0  0  0  0  0  0  0  0  0  0
   20.0924   20.5607   19.9728 H   0  0  0  0  0  0  0  0  0  0  0  0
   18.9887   18.7786   19.3850 C   0  0  0  0  0  0  0  0  0  0  0  0
   19.1122   17.6880   19.3703 H   0  0  0  0  0  0  0  0  0  0  0  0
   18.7903   19.1076   18.3567 H   0  0  0  0  0  0  0  0  0  0  0  0
   18.1009   19.0166   19.9838 H   0  0  0  0  0  0  0  0  0  0  0  0
  1  2  1  0  0  0  0
  1  3  1  0  0  0  0
  1  4  1  0  0  0  0
  1  5  1  0  0  0  0
  5  6  1  0  0  0  0
  5  7  1  0  0  0  0
  5  8  1  0  0  0  0
  8  9  1  0  0  0  0
  8 10  1  0  0  0  0
  8 11  1  0  0  0  0
 11 12  1  0  0  0  0
 11 13  1  0  0  0  0
 11 14  1  0  0  0  0
 14 15  1  0  0  0  0
 14 16  1  0  0  0  0
 14 17  1  0  0  0  0
 17 18  1  0  0  0  0
 17 19  1  0  0  0  0
 17 20  1  0  0  0  0
 20 21  1  0  0  0  0
 20 22  1  0  0  0  0
 20 23  1  0  0  0  0
M  END
> <VM2 Rank>
5

> <Conf_Id>
548

> <Probability>
4.69

> <Sum Probability>
36.69

> <Delta G>
0.607

> <G>
38.523

> <E>
10.893

> <-TS>
27.630

> <U+W>
-7.886

> <U>
47.264

> <W>
-55.151

> <W(PB)>
-57.313

> <W(SA)>
2.162

> <Valence>
2.234

> <Coulomb>
44.450

> <VdW>
0.580

> <VdW6>
-5.234

> <VdW12>
5.814

> <Bond>
0.148

> <Angle>
0.630

> <Pdih>
1.456

> <Idih>
0.000

> <Tether>
0.000

$$$$
VeraChem MOL file


 23 22  0  0  0  0  0  0  0  0999 V2000     
   19.8213   18.8660   26.3341 N   0  3  0  0  0  0  0  0  0  0  0  0
   18.8543   18.5873   26.5292 H   0  0  0  0  0  0  0  0  0  0  0  0
   20.1080   19.4963   27.0908 H   0  0  0  0  0  0  0  0  0  0  0  0
   20.3998   18.0234   26.4132 H   0  0  0  0  0  0  0  0  0  0  0  0
   19.9580   19.5204   24.9744 C   0  0  0  0  0  0  0  0  0  0  0  0
   21.0024   19.8172   24.8461 H   0  0  0  0  0  0  0  0  0  0  0  0
   19.3411   20.4231   24.9707 H   0  0  0  0  0  0  0  0  0  0  0  0
   19.5352   18.5995   23.8160 C   0  0  0  0  0  0  0  0  0  0  0  0
   20.1463   17.6872   23.8331 H   0  0  0  0  0  0  0  0  0  0  0  0
   18.4908   18.2908   23.9581 H   0  0  0  0  0  0  0  0  0  0  0  0
   19.6892   19.3028   22.4493 C   0  0  0  0  0  0  0  0  0  0  0  0
   20.7340   19.6164   22.3232 H   0  0  0  0  0  0  0  0  0  0  0  0
   19.0780   20.2159   22.4365 H   0  0  0  0  0  0  0  0  0  0  0  0
   19.2693   18.3824   21.2780 C   0  0  0  0  0  0  0  0  0  0  0  0
   19.9129   17.4920   21.2568 H   0  0  0  0  0  0  0  0  0  0  0  0
   18.2470   18.0203   21.4548 H   0  0  0  0  0  0  0  0  0  0  0  0
   19.3103   19.0823   19.8979 C   0  0  0  0  0  0  0  0  0  0  0  0
   18.6510   19.9615   19.9072 H   0  0  0  0  0  0  0  0  0  0  0  0
   18.8985   18.3977   19.1432 H   0  0  0  0  0  0  0  0  0  0  0  0
   20.7328   19.5037   19.4643 C   0  0  0  0  0  0  0  0  0  0  0  0
   21.1415   20.2806   20.1222 H   0  0  0  0  0  0  0  0  0  0  0  0
   20.7190   19.9095   18.4445 H   0  0  0  0  0  0  0  0  0  0  0  0
   21.4191   18.6470   19.4751 H   0  0  0  0  0  0  0  0  0  0  0  0
  1  2  1  0  0  0  0
  1  3  1  0  0  0  0
  1  4  1  0  0  0  0
  1  5  1  0  0  0  0
  5  6  1  0  0  0  0
  5  7  1  0  0  0  0
  5  8  1  0  0  0  0
  8  9  1  0  0  0  0
  8 10  1  0  0  0  0
  8 11  1  0  0  0  0
 11 12  1  0  0  0  0
 11 13  1  0  0  0  0
 11 14  1  0  0  0  0
 14 15  1  0  0  0  0
 14 16  1  0  0  0  0
 14 17  1  0  0  0  0
 17 18  1  0  0  0  0
 17 19  1  0  0  0  0
 17 20  1  0  0  0  0
 20 21  1  0  0  0  0
 20 22  1  0  0  0  0
 20 23  1  0  0  0  0
M  END
> <VM2 Rank>
6

> <Conf_Id>
551

> <Probability>
4.41

> <Sum Probability>
41.10

> <Delta G>
0.643

> <G>
38.559

> <E>
10.928

> <-TS>
27.630

> <U+W>
-7.851

> <U>
47.264

> <W>
-55.115

> <W(PB)>
-57.280

> <W(SA)>
2.165

> <Valence>
2.234

> <Coulomb>
44.451

> <VdW>
0.580

> <VdW6>
-5.234

> <VdW12>
5.814

> <Bond>
0.148

> <Angle>
0.630

> <Pdih>
1.457

> <Idih>
0.000

> <Tether>
0.000

$$$$
VeraChem MOL file


 23 22  0  0  0  0  0  0  0  0999 V2000     
   19.3994   18.2117   26.0666 N   0  3  0  0  0  0  0  0  0  0  0  0
   18.6478   17.5625   25.8130 H   0  0  0  0  0  0  0  0  0  0  0  0
   19.1881   18.5586   27.0085 H   0  0  0  0  0  0  0  0  0  0  0  0
   20.2617   17.6619   26.1384 H   0  0  0  0  0  0  0  0  0  0  0  0
   19.5314   19.3428   25.0671 C   0  0  0  0  0  0  0  0  0  0  0  0
   20.3260   20.0088   25.4143 H   0  0  0  0  0  0  0  0  0  0  0  0
   18.5916   19.9017   25.0636 H   0  0  0  0  0  0  0  0  0  0  0  0
   19.8495   18.8558   23.6422 C   0  0  0  0  0  0  0  0  0  0  0  0
   20.7856   18.2817   23.6537 H   0  0  0  0  0  0  0  0  0  0  0  0
   19.0553   18.1743   23.3125 H   0  0  0  0  0  0  0  0  0  0  0  0
   19.9777   20.0417   22.6573 C   0  0  0  0  0  0  0  0  0  0  0  0
   20.7193   20.7519   23.0492 H   0  0  0  0  0  0  0  0  0  0  0  0
   19.0251   20.5873   22.6082 H   0  0  0  0  0  0  0  0  0  0  0  0
   20.4084   19.6198   21.2308 C   0  0  0  0  0  0  0  0  0  0  0  0
   20.5870   20.5278   20.6385 H   0  0  0  0  0  0  0  0  0  0  0  0
   21.3695   19.0892   21.2779 H   0  0  0  0  0  0  0  0  0  0  0  0
   19.3632   18.7423   20.5020 C   0  0  0  0  0  0  0  0  0  0  0  0
   18.3886   19.2500   20.5002 H   0  0  0  0  0  0  0  0  0  0  0  0
   19.2268   17.7923   21.0355 H   0  0  0  0  0  0  0  0  0  0  0  0
   19.7863   18.4429   19.0480 C   0  0  0  0  0  0  0  0  0  0  0  0
   19.0360   17.8176   18.5469 H   0  0  0  0  0  0  0  0  0  0  0  0
   20.7447   17.9084   19.0181 H   0  0  0  0  0  0  0  0  0  0  0  0
   19.8933   19.3694   18.4687 H   0  0  0  0  0  0  0  0  0  0  0  0
  1  2  1  0  0  0  0
  1  3  1  0  0  0  0
  1  4  1  0  0  0  0
  1  5  1  0  0  0  0
  5  6  1  0  0  0  0
  5  7  1  0  0  0  0
  5  8  1  0  0  0  0
  8  9  1  0  0  0  0
  8 10  1  0  0  0  0
  8 11  1  0  0  0  0
 11 12  1  0  0  0  0
 11 13  1  0  0  0  0
 11 14  1  0  0  0  0
 14 15  1  0  0  0  0
 14 16  1  0  0  0  0
 14 17  1  0  0  0  0
 17 18  1  0  0  0  0
 17 19  1  0  0  0  0
 17 20  1  0  0  0  0
 20 21  1  0  0  0  0
 20 22  1  0  0  0  0
 20 23  1  0  0  0  0
M  END
> <VM2 Rank>
7

> <Conf_Id>
679

> <Probability>
3.82

> <Sum Probability>
44.92

> <Delta G>
0.728

> <G>
38.645

> <E>
11.025

> <-TS>
27.619

> <U+W>
-7.754

> <U>
47.562

> <W>
-55.316

> <W(PB)>
-57.472

> <W(SA)>
2.156

> <Valence>
2.273

> <Coulomb>
44.723

> <VdW>
0.566

> <VdW6>
-5.266

> <VdW12>
5.832

> <Bond>
0.151

> <Angle>
0.657

> <Pdih>
1.466

> <Idih>
0.000

> <Tether>
0.000

$$$$
VeraChem MOL file


 23 22  0  0  0  0  0  0  0  0999 V2000     
   20.3275   18.5978   26.1089 N   0  3  0  0  0  0  0  0  0  0  0  0
   20.1572   18.9616   27.0527 H   0  0  0  0  0  0  0  0  0  0  0  0
   21.3345   18.6802   25.9354 H   0  0  0  0  0  0  0  0  0  0  0  0
   20.1061   17.5971   26.1312 H   0  0  0  0  0  0  0  0  0  0  0  0
   19.5115   19.3345   25.0662 C   0  0  0  0  0  0  0  0  0  0  0  0
   19.7755   20.3943   25.1177 H   0  0  0  0  0  0  0  0  0  0  0  0
   18.4553   19.2303   25.3290 H   0  0  0  0  0  0  0  0  0  0  0  0
   19.7437   18.8118   23.6374 C   0  0  0  0  0  0  0  0  0  0  0  0
   20.8092   18.9043   23.3924 H   0  0  0  0  0  0  0  0  0  0  0  0
   19.4925   17.7437   23.5946 H   0  0  0  0  0  0  0  0  0  0  0  0
   18.8903   19.5894   22.6078 C   0  0  0  0  0  0  0  0  0  0  0  0
   19.1764   20.6503   22.6151 H   0  0  0  0  0  0  0  0  0  0  0  0
   17.8366   19.5525   22.9179 H   0  0  0  0  0  0  0  0  0  0  0  0
   18.9974   19.0328   21.1665 C   0  0  0  0  0  0  0  0  0  0  0  0
   18.6950   17.9765   21.1560 H   0  0  0  0  0  0  0  0  0  0  0  0
   18.2750   19.5659   20.5331 H   0  0  0  0  0  0  0  0  0  0  0  0
   20.4089   19.1774   20.5496 C   0  0  0  0  0  0  0  0  0  0  0  0
   21.1360   18.5868   21.1225 H   0  0  0  0  0  0  0  0  0  0  0  0
   20.7335   20.2257   20.6069 H   0  0  0  0  0  0  0  0  0  0  0  0
   20.4367   18.7134   19.0777 C   0  0  0  0  0  0  0  0  0  0  0  0
   20.1449   17.6586   18.9909 H   0  0  0  0  0  0  0  0  0  0  0  0
   21.4449   18.8197   18.6567 H   0  0  0  0  0  0  0  0  0  0  0  0
   19.7505   19.3096   18.4622 H   0  0  0  0  0  0  0  0  0  0  0  0
  1  2  1  0  0  0  0
  1  3  1  0  0  0  0
  1  4  1  0  0  0  0
  1  5  1  0  0  0  0
  5  6  1  0  0  0  0
  5  7  1  0  0  0  0
  5  8  1  0  0  0  0
  8  9  1  0  0  0  0
  8 10  1  0  0  0  0
  8 11  1  0  0  0  0
 11 12  1  0  0  0  0
 11 13  1  0  0  0  0
 11 14  1  0  0  0  0
 14 15  1  0  0  0  0
 14 16  1  0  0  0  0
 14 17  1  0  0  0  0
 17 18  1  0  0  0  0
 17 19  1  0  0  0  0
 17 20  1  0  0  0  0
 20 21  1  0  0  0  0
 20 22  1  0  0  0  0
 20 23  1  0  0  0  0
M  END
> <VM2 Rank>
8

> <Conf_Id>
712

> <Probability>
3.76

> <Sum Probability>
48.68

> <Delta G>
0.737

> <G>
38.653

> <E>
11.034

> <-TS>
27.619

> <U+W>
-7.745

> <U>
47.562

> <W>
-55.307

> <W(PB)>
-57.451

> <W(SA)>
2.144

> <Valence>
2.273

> <Coulomb>
44.723

> <VdW>
0.566

> <VdW6>
-5.266

> <VdW12>
5.832

> <Bond>
0.151

> <Angle>
0.657

> <Pdih>
1.466

> <Idih>
0.000

> <Tether>
0.000

$$$$
