VeraChem MOL file


 26 25  0  0  0  0  0  0  0  0999 V2000     
   19.9837   18.6238   26.4861 N   0  3  0  0  0  0  0  0  0  0  0  0
   20.8628   18.0855   26.5331 H   0  0  0  0  0  0  0  0  0  0  0  0
   19.2304   17.9187   26.4755 H   0  0  0  0  0  0  0  0  0  0  0  0
   19.9441   19.4507   25.2166 C   0  0  0  0  0  0  0  0  0  0  0  0
   20.7597   20.1767   25.2638 H   0  0  0  0  0  0  0  0  0  0  0  0
   18.9975   19.9966   25.2015 H   0  0  0  0  0  0  0  0  0  0  0  0
   20.0757   18.6065   23.9359 C   0  0  0  0  0  0  0  0  0  0  0  0
   21.0204   18.0470   23.9630 H   0  0  0  0  0  0  0  0  0  0  0  0
   19.2641   17.8676   23.9008 H   0  0  0  0  0  0  0  0  0  0  0  0
   20.0303   19.4900   22.6695 C   0  0  0  0  0  0  0  0  0  0  0  0
   20.8404   20.2315   22.7111 H   0  0  0  0  0  0  0  0  0  0  0  0
   19.0862   20.0521   22.6489 H   0  0  0  0  0  0  0  0  0  0  0  0
   20.1618   18.6528   21.3767 C   0  0  0  0  0  0  0  0  0  0  0  0
   21.1058   18.0907   21.3971 H   0  0  0  0  0  0  0  0  0  0  0  0
   19.3518   17.9114   21.3349 H   0  0  0  0  0  0  0  0  0  0  0  0
   20.1163   19.5367   20.1103 C   0  0  0  0  0  0  0  0  0  0  0  0
   20.9263   20.2788   20.1462 H   0  0  0  0  0  0  0  0  0  0  0  0
   19.1725   20.0993   20.0839 H   0  0  0  0  0  0  0  0  0  0  0  0
   20.2479   18.6974   18.8214 C   0  0  0  0  0  0  0  0  0  0  0  0
   19.4313   17.9683   18.7398 H   0  0  0  0  0  0  0  0  0  0  0  0
   21.1988   18.1492   18.8025 H   0  0  0  0  0  0  0  0  0  0  0  0
   20.2134   19.3422   17.9337 H   0  0  0  0  0  0  0  0  0  0  0  0
   19.8481   19.5321   27.7004 C   0  0  0  0  0  0  0  0  0  0  0  0
   18.8967   20.0656   27.6454 H   0  0  0  0  0  0  0  0  0  0  0  0
   19.8782   18.9242   28.6075 H   0  0  0  0  0  0  0  0  0  0  0  0
   20.6736   20.2472   27.7081 H   0  0  0  0  0  0  0  0  0  0  0  0
  1  2  1  0  0  0  0
  1  3  1  0  0  0  0
  1  4  1  0  0  0  0
  4  5  1  0  0  0  0
  4  6  1  0  0  0  0
  4  7  1  0  0  0  0
  7  8  1  0  0  0  0
  7  9  1  0  0  0  0
  7 10  1  0  0  0  0
 10 11  1  0  0  0  0
 10 12  1  0  0  0  0
 10 13  1  0  0  0  0
 13 14  1  0  0  0  0
 13 15  1  0  0  0  0
 13 16  1  0  0  0  0
 16 17  1  0  0  0  0
 16 18  1  0  0  0  0
 16 19  1  0  0  0  0
 19 20  1  0  0  0  0
 19 21  1  0  0  0  0
 19 22  1  0  0  0  0
  1 23  1  0  0  0  0
 23 24  1  0  0  0  0
 23 25  1  0  0  0  0
 23 26  1  0  0  0  0
M  END
> <VM2 Rank>
1

> <Conf_Id>
1411

> <Probability>
6.92

> <Sum Probability>
6.92

> <Delta G>
0.000

> <G>
75.466

> <E>
43.303

> <-TS>
32.163

> <U+W>
21.842

> <U>
70.357

> <W>
-48.515

> <W(PB)>
-50.856

> <W(SA)>
2.341

> <Valence>
1.714

> <Coulomb>
68.480

> <VdW>
0.163

> <VdW6>
-5.268

> <VdW12>
5.431

> <Bond>
0.126

> <Angle>
0.350

> <Pdih>
1.238

> <Idih>
0.000

> <Tether>
0.000

$$$$
