@<TRIPOS>MOLECULE
guest-s17_vm2.mol2 : vm2 ligand conformer 1
          25          25           1
SMALL
USER_CHARGES
 
@<TRIPOS>ATOM
       1    C1      21.264943   19.569978   21.138364 C.3        1 MOL1        -0.1684
       2    H1      21.774562   19.741470   20.180260 H          1 MOL1         0.0833
       3    H2      22.046901   19.718273   21.891592 H          1 MOL1         0.0833
       4    C2      20.759512   18.103806   21.158312 C.3        1 MOL1        -0.1684
       5    H3      19.715207   18.040870   20.826536 H          1 MOL1         0.0833
       6    H4      21.332657   17.546814   20.404471 H          1 MOL1         0.0833
       7    C3      20.952985   17.366202   22.509378 C.3        1 MOL1        -0.1684
       8    H5      22.013363   17.400503   22.794698 H          1 MOL1         0.0833
       9    H6      20.726645   16.303860   22.345143 H          1 MOL1         0.0833
      10    C4      20.085790   17.854788   23.700281 C.3        1 MOL1        -0.1760
      11    H7      19.020299   17.798942   23.447836 H          1 MOL1         0.0833
      12    H8      20.224619   17.130966   24.514738 H          1 MOL1         0.0833
      13    C5      20.454443   19.264592   24.230121 C.3        1 MOL1         0.1219
      14    H9      21.470267   19.513843   23.901736 H          1 MOL1         0.0790
      15    C6      19.485771   20.391407   23.794559 C.3        1 MOL1        -0.1760
      16    H10     18.576907   20.318157   24.407027 H          1 MOL1         0.0833
      17    H11     19.939770   21.359799   24.041168 H          1 MOL1         0.0833
      18    C7      19.043650   20.409519   22.308548 C.3        1 MOL1        -0.1684
      19    H12     18.309089   21.218479   22.195830 H          1 MOL1         0.0833
      20    H13     18.489046   19.496677   22.062734 H          1 MOL1         0.0833
      21    C8      20.164529   20.655262   21.267596 C.3        1 MOL1        -0.1684
      22    H14     20.641135   21.624364   21.468235 H          1 MOL1         0.0833
      23    H15     19.682206   20.760419   20.286111 H          1 MOL1         0.0833
      24    O1      20.452377   19.227448   25.652841 O.3        1 MOL1        -0.5508
      25    H16     20.731503   20.115656   25.958803 H          1 MOL1         0.3780
@<TRIPOS>BOND
    1     1     2    1
    2     1     3    1
    3     1     4    1
    4     4     5    1
    5     4     6    1
    6     4     7    1
    7     7     8    1
    8     7     9    1
    9     7    10    1
   10    10    11    1
   11    10    12    1
   12    10    13    1
   13    13    14    1
   14    13    15    1
   15    15    16    1
   16    15    17    1
   17    15    18    1
   18    18    19    1
   19    18    20    1
   20     1    21    1
   21    18    21    1
   22    21    22    1
   23    21    23    1
   24    13    24    1
   25    24    25    1
@<TRIPOS>SUBSTRUCTURE
       1 MOL1            1 RESIDUE      1      MOL     
@<SCITEGIC>MOL_PROPERTY
VM2 Rank
SciTegic.value.IntegerValue
1

@<SCITEGIC>MOL_PROPERTY
Conf_Id
SciTegic.value.IntegerValue
1155

@<SCITEGIC>MOL_PROPERTY
Probability
SciTegic.value.DoubleValue
4.90

@<SCITEGIC>MOL_PROPERTY
Sum Probability
SciTegic.value.DoubleValue
4.90

@<SCITEGIC>MOL_PROPERTY
Delta G
SciTegic.value.DoubleValue
0.000

@<SCITEGIC>MOL_PROPERTY
G
SciTegic.value.DoubleValue
62.075

@<SCITEGIC>MOL_PROPERTY
E
SciTegic.value.DoubleValue
29.291

@<SCITEGIC>MOL_PROPERTY
-TS
SciTegic.value.DoubleValue
32.785

@<SCITEGIC>MOL_PROPERTY
U+W
SciTegic.value.DoubleValue
8.723

@<SCITEGIC>MOL_PROPERTY
U
SciTegic.value.DoubleValue
10.905

@<SCITEGIC>MOL_PROPERTY
W
SciTegic.value.DoubleValue
-2.182

@<SCITEGIC>MOL_PROPERTY
W(PB)
SciTegic.value.DoubleValue
-4.295

@<SCITEGIC>MOL_PROPERTY
W(SA)
SciTegic.value.DoubleValue
2.114

@<SCITEGIC>MOL_PROPERTY
Valence
SciTegic.value.DoubleValue
16.378

@<SCITEGIC>MOL_PROPERTY
Coulomb
SciTegic.value.DoubleValue
-8.448

@<SCITEGIC>MOL_PROPERTY
VdW
SciTegic.value.DoubleValue
2.976

@<SCITEGIC>MOL_PROPERTY
VdW6
SciTegic.value.DoubleValue
-12.570

@<SCITEGIC>MOL_PROPERTY
VdW12
SciTegic.value.DoubleValue
15.545

@<SCITEGIC>MOL_PROPERTY
Bond
SciTegic.value.DoubleValue
0.439

@<SCITEGIC>MOL_PROPERTY
Angle
SciTegic.value.DoubleValue
5.049

@<SCITEGIC>MOL_PROPERTY
Pdih
SciTegic.value.DoubleValue
10.889

@<SCITEGIC>MOL_PROPERTY
Idih
SciTegic.value.DoubleValue
0.000

@<SCITEGIC>MOL_PROPERTY
Tether
SciTegic.value.DoubleValue
0.000

