VeraChem MOL file


 29 28  0  0  0  0  0  0  0  0999 V2000     
   19.5306   19.9313   18.7439 C   0  0  0  0  0  0  0  0  0  0  0  0
   20.3586   20.6519   18.7240 H   0  0  0  0  0  0  0  0  0  0  0  0
   19.5232   19.3997   17.7835 H   0  0  0  0  0  0  0  0  0  0  0  0
   18.5906   20.4925   18.8259 H   0  0  0  0  0  0  0  0  0  0  0  0
   19.6877   18.9384   19.9150 C   0  0  0  0  0  0  0  0  0  0  0  0
   20.6190   18.3689   19.7877 H   0  0  0  0  0  0  0  0  0  0  0  0
   18.8646   18.2106   19.8888 H   0  0  0  0  0  0  0  0  0  0  0  0
   19.7011   19.6615   21.2799 C   0  0  0  0  0  0  0  0  0  0  0  0
   20.5239   20.3896   21.3005 H   0  0  0  0  0  0  0  0  0  0  0  0
   18.7694   20.2312   21.4015 H   0  0  0  0  0  0  0  0  0  0  0  0
   19.8584   18.6705   22.4551 C   0  0  0  0  0  0  0  0  0  0  0  0
   20.7897   18.1006   22.3314 H   0  0  0  0  0  0  0  0  0  0  0  0
   19.0351   17.9429   22.4339 H   0  0  0  0  0  0  0  0  0  0  0  0
   19.8724   19.3943   23.8204 C   0  0  0  0  0  0  0  0  0  0  0  0
   20.6981   20.1192   23.8421 H   0  0  0  0  0  0  0  0  0  0  0  0
   18.9418   19.9662   23.9337 H   0  0  0  0  0  0  0  0  0  0  0  0
   20.0289   18.3991   24.9958 C   0  0  0  0  0  0  0  0  0  0  0  0
   20.9354   17.8003   24.8354 H   0  0  0  0  0  0  0  0  0  0  0  0
   19.1855   17.6957   25.0018 H   0  0  0  0  0  0  0  0  0  0  0  0
   20.1314   19.0989   26.3682 C   0  0  2  0  0  0  0  0  0  0  0  0
   20.9619   19.8106   26.3292 H   0  0  0  0  0  0  0  0  0  0  0  0
   20.4281   18.0708   27.4715 C   0  0  0  0  0  0  0  0  0  0  0  0
   19.6208   17.3322   27.5534 H   0  0  0  0  0  0  0  0  0  0  0  0
   21.3623   17.5344   27.2636 H   0  0  0  0  0  0  0  0  0  0  0  0
   20.5384   18.5660   28.4442 H   0  0  0  0  0  0  0  0  0  0  0  0
   18.8975   19.8911   26.7041 N   0  3  0  0  0  0  0  0  0  0  0  0
   18.7120   20.6104   25.9999 H   0  0  0  0  0  0  0  0  0  0  0  0
   18.9909   20.3638   27.6077 H   0  0  0  0  0  0  0  0  0  0  0  0
   18.0710   19.2897   26.7566 H   0  0  0  0  0  0  0  0  0  0  0  0
  1  2  1  0  0  0  0
  1  3  1  0  0  0  0
  1  4  1  0  0  0  0
  1  5  1  0  0  0  0
  5  6  1  0  0  0  0
  5  7  1  0  0  0  0
  5  8  1  0  0  0  0
  8  9  1  0  0  0  0
  8 10  1  0  0  0  0
  8 11  1  0  0  0  0
 11 12  1  0  0  0  0
 11 13  1  0  0  0  0
 11 14  1  0  0  0  0
 14 15  1  0  0  0  0
 14 16  1  0  0  0  0
 14 17  1  0  0  0  0
 17 18  1  0  0  0  0
 17 19  1  0  0  0  0
 17 20  1  0  0  0  0
 20 21  1  0  0  0  0
 20 22  1  0  0  0  0
 22 23  1  0  0  0  0
 22 24  1  0  0  0  0
 22 25  1  0  0  0  0
 20 26  1  0  0  0  0
 26 27  1  0  0  0  0
 26 28  1  0  0  0  0
 26 29  1  0  0  0  0
M  END
> <VM2 Rank>
1

> <Conf_Id>
715

> <Probability>
10.34

> <Sum Probability>
10.34

> <Delta G>
0.000

> <G>
33.702

> <E>
-3.682

> <-TS>
37.385

> <U+W>
-27.827

> <U>
23.963

> <W>
-51.787

> <W(PB)>
-54.341

> <W(SA)>
2.554

> <Valence>
3.166

> <Coulomb>
19.734

> <VdW>
1.062

> <VdW6>
-7.938

> <VdW12>
9.001

> <Bond>
0.188

> <Angle>
0.880

> <Pdih>
2.098

> <Idih>
0.000

> <Tether>
0.000

$$$$
