@<TRIPOS>MOLECULE
guest-s10_vm2.mol2 : vm2 ligand conformer 1
          20          19           1
SMALL
USER_CHARGES
 
@<TRIPOS>ATOM
       1    N1      20.391181   20.173149   24.127973 N.4        1 MOL1        -0.5937
       2    H1      20.306497   20.444618   25.111226 H          1 MOL1         0.3684
       3    H2      20.006967   20.937997   23.567642 H          1 MOL1         0.3684
       4    H3      21.389527   20.106987   23.914732 H          1 MOL1         0.3684
       5    C1      19.681095   18.875237   23.851793 C.3        1 MOL1         0.1270
       6    H4      18.627126   19.033857   24.100538 H          1 MOL1         0.0960
       7    C2      20.226138   17.758227   24.756883 C.3        1 MOL1        -0.2382
       8    H5      19.667300   16.826258   24.605974 H          1 MOL1         0.1009
       9    H6      20.131874   18.034269   25.814323 H          1 MOL1         0.1009
      10    H7      21.284820   17.559080   24.548733 H          1 MOL1         0.1009
      11    C3      19.768847   18.454725   22.368010 C.3        1 MOL1        -0.1392
      12    H8      20.820417   18.311814   22.085710 H          1 MOL1         0.0998
      13    H9      19.277190   17.480273   22.246412 H          1 MOL1         0.0998
      14    C4      19.103570   19.471945   21.409790 C.3        1 MOL1        -0.1302
      15    H10     19.614640   20.442220   21.471431 H          1 MOL1         0.0998
      16    H11     18.061238   19.641172   21.714990 H          1 MOL1         0.0998
      17    C5      19.134169   18.980717   19.946553 C.3        1 MOL1        -0.2317
      18    H12     20.165636   18.831181   19.601632 H          1 MOL1         0.1009
      19    H13     18.659969   19.714037   19.281376 H          1 MOL1         0.1009
      20    H14     18.595987   18.030151   19.836932 H          1 MOL1         0.1009
@<TRIPOS>BOND
    1     1     2    1
    2     1     3    1
    3     1     4    1
    4     1     5    1
    5     5     6    1
    6     5     7    1
    7     7     8    1
    8     7     9    1
    9     7    10    1
   10     5    11    1
   11    11    12    1
   12    11    13    1
   13    11    14    1
   14    14    15    1
   15    14    16    1
   16    14    17    1
   17    17    18    1
   18    17    19    1
   19    17    20    1
@<TRIPOS>SUBSTRUCTURE
       1 MOL1            1 RESIDUE      1      MOL     
@<SCITEGIC>MOL_PROPERTY
VM2 Rank
SciTegic.value.IntegerValue
1

@<SCITEGIC>MOL_PROPERTY
Conf_Id
SciTegic.value.IntegerValue
153

@<SCITEGIC>MOL_PROPERTY
Probability
SciTegic.value.DoubleValue
40.83

@<SCITEGIC>MOL_PROPERTY
Sum Probability
SciTegic.value.DoubleValue
40.83

@<SCITEGIC>MOL_PROPERTY
Delta G
SciTegic.value.DoubleValue
0.000

@<SCITEGIC>MOL_PROPERTY
G
SciTegic.value.DoubleValue
2.705

@<SCITEGIC>MOL_PROPERTY
E
SciTegic.value.DoubleValue
-20.181

@<SCITEGIC>MOL_PROPERTY
-TS
SciTegic.value.DoubleValue
22.887

@<SCITEGIC>MOL_PROPERTY
U+W
SciTegic.value.DoubleValue
-36.278

@<SCITEGIC>MOL_PROPERTY
U
SciTegic.value.DoubleValue
22.080

@<SCITEGIC>MOL_PROPERTY
W
SciTegic.value.DoubleValue
-58.356

@<SCITEGIC>MOL_PROPERTY
W(PB)
SciTegic.value.DoubleValue
-60.289

@<SCITEGIC>MOL_PROPERTY
W(SA)
SciTegic.value.DoubleValue
1.932

@<SCITEGIC>MOL_PROPERTY
Valence
SciTegic.value.DoubleValue
1.884

@<SCITEGIC>MOL_PROPERTY
Coulomb
SciTegic.value.DoubleValue
19.559

@<SCITEGIC>MOL_PROPERTY
VdW
SciTegic.value.DoubleValue
0.637

@<SCITEGIC>MOL_PROPERTY
VdW6
SciTegic.value.DoubleValue
-4.482

@<SCITEGIC>MOL_PROPERTY
VdW12
SciTegic.value.DoubleValue
5.119

@<SCITEGIC>MOL_PROPERTY
Bond
SciTegic.value.DoubleValue
0.136

@<SCITEGIC>MOL_PROPERTY
Angle
SciTegic.value.DoubleValue
0.867

@<SCITEGIC>MOL_PROPERTY
Pdih
SciTegic.value.DoubleValue
0.882

@<SCITEGIC>MOL_PROPERTY
Idih
SciTegic.value.DoubleValue
0.000

@<SCITEGIC>MOL_PROPERTY
Tether
SciTegic.value.DoubleValue
0.000

