@<TRIPOS>MOLECULE
guest-s19_vm2.mol2 : vm2 ligand conformer 1
          17          16           1
SMALL
USER_CHARGES
 
@<TRIPOS>ATOM
       1    C1      19.772368   19.078659   25.279139 C.2        1 MOL1         0.6173
       2    O1      19.318829   19.920028   26.030208 O.co2      1 MOL1        -0.6755
       3    O2      20.446623   18.142541   25.665736 O.co2      1 MOL1        -0.6755
       4    C2      19.475145   19.220471   23.828032 C.2        1 MOL1        -0.1504
       5    H1      18.867666   20.078599   23.549655 H          1 MOL1         0.0814
       6    C3      19.914864   18.360832   22.881061 C.2        1 MOL1        -0.1394
       7    H2      20.526114   17.499115   23.148630 H          1 MOL1         0.0817
       8    C4      19.609855   18.513518   21.406987 C.3        1 MOL1        -0.1849
       9    H3      18.579957   18.871006   21.271633 H          1 MOL1         0.0736
      10    H4      19.667199   17.532686   20.915998 H          1 MOL1         0.0736
      11    C5      20.592908   19.488922   20.727860 C.3        1 MOL1        -0.1866
      12    H5      20.533853   20.471984   21.215367 H          1 MOL1         0.0738
      13    H6      21.622075   19.128085   20.862691 H          1 MOL1         0.0738
      14    C6      20.294408   19.643030   19.222977 C.3        1 MOL1        -0.2879
      15    H7      20.377837   18.678581   18.704991 H          1 MOL1         0.0750
      16    H8      19.280693   20.032547   19.061441 H          1 MOL1         0.0750
      17    H9      21.003353   20.340049   18.757474 H          1 MOL1         0.0750
@<TRIPOS>BOND
    1     1     2    1
    2     1     3    2
    3     1     4    1
    4     4     5    1
    5     4     6    2
    6     6     7    1
    7     6     8    1
    8     8     9    1
    9     8    10    1
   10     8    11    1
   11    11    12    1
   12    11    13    1
   13    11    14    1
   14    14    15    1
   15    14    16    1
   16    14    17    1
@<TRIPOS>SUBSTRUCTURE
       1 MOL1            1 RESIDUE      1      MOL     
@<SCITEGIC>MOL_PROPERTY
VM2 Rank
SciTegic.value.IntegerValue
1

@<SCITEGIC>MOL_PROPERTY
Conf_Id
SciTegic.value.IntegerValue
77

@<SCITEGIC>MOL_PROPERTY
Probability
SciTegic.value.DoubleValue
31.59

@<SCITEGIC>MOL_PROPERTY
Sum Probability
SciTegic.value.DoubleValue
31.59

@<SCITEGIC>MOL_PROPERTY
Delta G
SciTegic.value.DoubleValue
0.000

@<SCITEGIC>MOL_PROPERTY
G
SciTegic.value.DoubleValue
-29.181

@<SCITEGIC>MOL_PROPERTY
E
SciTegic.value.DoubleValue
-40.002

@<SCITEGIC>MOL_PROPERTY
-TS
SciTegic.value.DoubleValue
10.820

@<SCITEGIC>MOL_PROPERTY
U+W
SciTegic.value.DoubleValue
-53.415

@<SCITEGIC>MOL_PROPERTY
U
SciTegic.value.DoubleValue
9.048

@<SCITEGIC>MOL_PROPERTY
W
SciTegic.value.DoubleValue
-62.460

@<SCITEGIC>MOL_PROPERTY
W(PB)
SciTegic.value.DoubleValue
-64.544

@<SCITEGIC>MOL_PROPERTY
W(SA)
SciTegic.value.DoubleValue
2.084

@<SCITEGIC>MOL_PROPERTY
Valence
SciTegic.value.DoubleValue
2.652

@<SCITEGIC>MOL_PROPERTY
Coulomb
SciTegic.value.DoubleValue
5.579

@<SCITEGIC>MOL_PROPERTY
VdW
SciTegic.value.DoubleValue
0.818

@<SCITEGIC>MOL_PROPERTY
VdW6
SciTegic.value.DoubleValue
-4.535

@<SCITEGIC>MOL_PROPERTY
VdW12
SciTegic.value.DoubleValue
5.352

@<SCITEGIC>MOL_PROPERTY
Bond
SciTegic.value.DoubleValue
0.063

@<SCITEGIC>MOL_PROPERTY
Angle
SciTegic.value.DoubleValue
2.579

@<SCITEGIC>MOL_PROPERTY
Pdih
SciTegic.value.DoubleValue
0.010

@<SCITEGIC>MOL_PROPERTY
Idih
SciTegic.value.DoubleValue
0.000

@<SCITEGIC>MOL_PROPERTY
Tether
SciTegic.value.DoubleValue
0.000

