VeraChem MOL file


 22 21  0  0  0  0  0  0  0  0999 V2000     
   19.8314   19.1341   26.1875 C   0  0  0  0  0  0  0  0  0  0  0  0
   20.0586   20.2372   26.6435 O   0  5  0  0  0  0  0  0  0  0  0  0
   20.1746   18.0998   26.7250 O   0  0  0  0  0  0  0  0  0  0  0  0
   19.0946   19.0434   24.8559 C   0  0  0  0  0  0  0  0  0  0  0  0
   18.3980   19.8881   24.7937 H   0  0  0  0  0  0  0  0  0  0  0  0
   18.4928   18.1266   24.8613 H   0  0  0  0  0  0  0  0  0  0  0  0
   20.0506   19.0481   23.6377 C   0  0  0  0  0  0  0  0  0  0  0  0
   20.6549   19.9658   23.6541 H   0  0  0  0  0  0  0  0  0  0  0  0
   20.7496   18.2043   23.7217 H   0  0  0  0  0  0  0  0  0  0  0  0
   19.2808   18.9555   22.3025 C   0  0  0  0  0  0  0  0  0  0  0  0
   18.5822   19.7997   22.2223 H   0  0  0  0  0  0  0  0  0  0  0  0
   18.6768   18.0378   22.2899 H   0  0  0  0  0  0  0  0  0  0  0  0
   20.2363   18.9603   21.0900 C   0  0  0  0  0  0  0  0  0  0  0  0
   20.8405   19.8778   21.1023 H   0  0  0  0  0  0  0  0  0  0  0  0
   20.9351   18.1162   21.1698 H   0  0  0  0  0  0  0  0  0  0  0  0
   19.4677   18.8679   19.7552 C   0  0  0  0  0  0  0  0  0  0  0  0
   18.7690   19.7118   19.6707 H   0  0  0  0  0  0  0  0  0  0  0  0
   18.8634   17.9502   19.7383 H   0  0  0  0  0  0  0  0  0  0  0  0
   20.4254   18.8729   18.5468 C   0  0  0  0  0  0  0  0  0  0  0  0
   21.1157   18.0202   18.5893 H   0  0  0  0  0  0  0  0  0  0  0  0
   21.0206   19.7950   18.5212 H   0  0  0  0  0  0  0  0  0  0  0  0
   19.8624   18.8067   17.6067 H   0  0  0  0  0  0  0  0  0  0  0  0
  1  2  1  0  0  0  0
  1  3  2  0  0  0  0
  1  4  1  0  0  0  0
  4  5  1  0  0  0  0
  4  6  1  0  0  0  0
  4  7  1  0  0  0  0
  7  8  1  0  0  0  0
  7  9  1  0  0  0  0
  7 10  1  0  0  0  0
 10 11  1  0  0  0  0
 10 12  1  0  0  0  0
 10 13  1  0  0  0  0
 13 14  1  0  0  0  0
 13 15  1  0  0  0  0
 13 16  1  0  0  0  0
 16 17  1  0  0  0  0
 16 18  1  0  0  0  0
 16 19  1  0  0  0  0
 19 20  1  0  0  0  0
 19 21  1  0  0  0  0
 19 22  1  0  0  0  0
M  END
> <VM2 Rank>
1

> <Conf_Id>
236

> <Probability>
33.65

> <Sum Probability>
33.65

> <Delta G>
0.000

> <G>
-16.998

> <E>
-36.566

> <-TS>
19.568

> <U+W>
-54.450

> <U>
5.779

> <W>
-60.230

> <W(PB)>
-62.557

> <W(SA)>
2.328

> <Valence>
7.101

> <Coulomb>
-2.079

> <VdW>
0.757

> <VdW6>
-6.496

> <VdW12>
7.253

> <Bond>
0.100

> <Angle>
2.262

> <Pdih>
4.739

> <Idih>
0.001

> <Tether>
0.000

$$$$
