VeraChem MOL file


 26 25  0  0  0  0  0  0  0  0999 V2000     
   20.2415   18.6564   18.8060 C   0  0  0  0  0  0  0  0  0  0  0  0
   19.6045   19.4971   18.5017 H   0  0  0  0  0  0  0  0  0  0  0  0
   21.0558   18.5689   18.0750 H   0  0  0  0  0  0  0  0  0  0  0  0
   19.6426   17.7377   18.7548 H   0  0  0  0  0  0  0  0  0  0  0  0
   20.8051   18.8729   20.2264 C   0  0  0  0  0  0  0  0  0  0  0  0
   21.4263   19.7795   20.2377 H   0  0  0  0  0  0  0  0  0  0  0  0
   21.4643   18.0335   20.4887 H   0  0  0  0  0  0  0  0  0  0  0  0
   19.6784   18.9994   21.2757 C   0  0  0  0  0  0  0  0  0  0  0  0
   19.0207   19.8375   21.0067 H   0  0  0  0  0  0  0  0  0  0  0  0
   19.0593   18.0917   21.2594 H   0  0  0  0  0  0  0  0  0  0  0  0
   20.2389   19.2172   22.6994 C   0  0  0  0  0  0  0  0  0  0  0  0
   20.8550   20.1272   22.7151 H   0  0  0  0  0  0  0  0  0  0  0  0
   20.8999   18.3792   22.9576 H   0  0  0  0  0  0  0  0  0  0  0  0
   19.1076   19.3422   23.7488 C   0  0  0  0  0  0  0  0  0  0  0  0
   18.4279   20.1490   23.4433 H   0  0  0  0  0  0  0  0  0  0  0  0
   18.5118   18.4198   23.7646 H   0  0  0  0  0  0  0  0  0  0  0  0
   19.6331   19.6456   25.1687 C   0  0  1  0  0  0  0  0  0  0  0  0
   20.2418   20.5539   25.1222 H   0  0  0  0  0  0  0  0  0  0  0  0
   18.4605   19.8996   26.1296 C   0  0  0  0  0  0  0  0  0  0  0  0
   17.8446   20.7376   25.7802 H   0  0  0  0  0  0  0  0  0  0  0  0
   18.8276   20.1521   27.1320 H   0  0  0  0  0  0  0  0  0  0  0  0
   17.8173   19.0147   26.2139 H   0  0  0  0  0  0  0  0  0  0  0  0
   20.5229   18.5547   25.6994 N   0  3  0  0  0  0  0  0  0  0  0  0
   21.3337   18.4050   25.0931 H   0  0  0  0  0  0  0  0  0  0  0  0
   20.8770   18.7816   26.6330 H   0  0  0  0  0  0  0  0  0  0  0  0
   20.0218   17.6652   25.7697 H   0  0  0  0  0  0  0  0  0  0  0  0
  1  2  1  0  0  0  0
  1  3  1  0  0  0  0
  1  4  1  0  0  0  0
  1  5  1  0  0  0  0
  5  6  1  0  0  0  0
  5  7  1  0  0  0  0
  5  8  1  0  0  0  0
  8  9  1  0  0  0  0
  8 10  1  0  0  0  0
  8 11  1  0  0  0  0
 11 12  1  0  0  0  0
 11 13  1  0  0  0  0
 11 14  1  0  0  0  0
 14 15  1  0  0  0  0
 14 16  1  0  0  0  0
 14 17  1  0  0  0  0
 17 18  1  0  0  0  0
 17 19  1  0  0  0  0
 19 20  1  0  0  0  0
 19 21  1  0  0  0  0
 19 22  1  0  0  0  0
 17 23  1  0  0  0  0
 23 24  1  0  0  0  0
 23 25  1  0  0  0  0
 23 26  1  0  0  0  0
M  END
> <VM2 Rank>
1

> <Conf_Id>
300

> <Probability>
17.04

> <Sum Probability>
17.04

> <Delta G>
0.000

> <G>
23.710

> <E>
-8.843

> <-TS>
32.552

> <U+W>
-30.304

> <U>
23.517

> <W>
-53.818

> <W(PB)>
-56.163

> <W(SA)>
2.346

> <Valence>
2.737

> <Coulomb>
19.862

> <VdW>
0.919

> <VdW6>
-6.793

> <VdW12>
7.712

> <Bond>
0.171

> <Angle>
0.873

> <Pdih>
1.693

> <Idih>
0.000

> <Tether>
0.000

$$$$
VeraChem MOL file


 26 25  0  0  0  0  0  0  0  0999 V2000     
   20.2648   18.6437   18.8026 C   0  0  0  0  0  0  0  0  0  0  0  0
   20.3175   19.2783   17.9084 H   0  0  0  0  0  0  0  0  0  0  0  0
   21.1735   18.0284   18.8331 H   0  0  0  0  0  0  0  0  0  0  0  0
   19.4021   17.9742   18.6902 H   0  0  0  0  0  0  0  0  0  0  0  0
   20.1356   19.5062   20.0760 C   0  0  0  0  0  0  0  0  0  0  0  0
   19.2370   20.1345   20.0009 H   0  0  0  0  0  0  0  0  0  0  0  0
   20.9948   20.1883   20.1429 H   0  0  0  0  0  0  0  0  0  0  0  0
   20.0595   18.6366   21.3505 C   0  0  0  0  0  0  0  0  0  0  0  0
   19.2005   17.9552   21.2782 H   0  0  0  0  0  0  0  0  0  0  0  0
   20.9585   18.0084   21.4186 H   0  0  0  0  0  0  0  0  0  0  0  0
   19.9304   19.4968   22.6282 C   0  0  0  0  0  0  0  0  0  0  0  0
   19.0346   20.1260   22.5455 H   0  0  0  0  0  0  0  0  0  0  0  0
   20.7923   20.1746   22.7022 H   0  0  0  0  0  0  0  0  0  0  0  0
   19.8499   18.6222   23.9036 C   0  0  0  0  0  0  0  0  0  0  0  0
   18.9532   17.9896   23.8630 H   0  0  0  0  0  0  0  0  0  0  0  0
   20.7109   17.9408   23.9148 H   0  0  0  0  0  0  0  0  0  0  0  0
   19.8535   19.4355   25.2183 C   0  0  1  0  0  0  0  0  0  0  0  0
   20.7326   20.0873   25.2161 H   0  0  0  0  0  0  0  0  0  0  0  0
   18.5968   20.3129   25.3618 C   0  0  0  0  0  0  0  0  0  0  0  0
   17.6825   19.7092   25.3054 H   0  0  0  0  0  0  0  0  0  0  0  0
   18.5527   21.0781   24.5782 H   0  0  0  0  0  0  0  0  0  0  0  0
   18.5995   20.8366   26.3256 H   0  0  0  0  0  0  0  0  0  0  0  0
   19.9974   18.5340   26.4131 N   0  3  0  0  0  0  0  0  0  0  0  0
   19.2077   17.8877   26.4919 H   0  0  0  0  0  0  0  0  0  0  0  0
   20.8513   17.9713   26.3608 H   0  0  0  0  0  0  0  0  0  0  0  0
   20.0403   19.0710   27.2839 H   0  0  0  0  0  0  0  0  0  0  0  0
  1  2  1  0  0  0  0
  1  3  1  0  0  0  0
  1  4  1  0  0  0  0
  1  5  1  0  0  0  0
  5  6  1  0  0  0  0
  5  7  1  0  0  0  0
  5  8  1  0  0  0  0
  8  9  1  0  0  0  0
  8 10  1  0  0  0  0
  8 11  1  0  0  0  0
 11 12  1  0  0  0  0
 11 13  1  0  0  0  0
 11 14  1  0  0  0  0
 14 15  1  0  0  0  0
 14 16  1  0  0  0  0
 14 17  1  0  0  0  0
 17 18  1  0  0  0  0
 17 19  1  0  0  0  0
 19 20  1  0  0  0  0
 19 21  1  0  0  0  0
 19 22  1  0  0  0  0
 17 23  1  0  0  0  0
 23 24  1  0  0  0  0
 23 25  1  0  0  0  0
 23 26  1  0  0  0  0
M  END
> <VM2 Rank>
2

> <Conf_Id>
54

> <Probability>
7.70

> <Sum Probability>
24.74

> <Delta G>
0.474

> <G>
24.184

> <E>
-8.383

> <-TS>
32.567

> <U+W>
-29.845

> <U>
23.817

> <W>
-53.663

> <W(PB)>
-56.021

> <W(SA)>
2.358

> <Valence>
3.277

> <Coulomb>
19.492

> <VdW>
1.049

> <VdW6>
-6.949

> <VdW12>
7.998

> <Bond>
0.183

> <Angle>
1.152

> <Pdih>
1.942

> <Idih>
0.000

> <Tether>
0.000

$$$$
VeraChem MOL file


 26 25  0  0  0  0  0  0  0  0999 V2000     
   20.3613   18.7664   18.8989 C   0  0  0  0  0  0  0  0  0  0  0  0
   20.3290   17.9289   18.1900 H   0  0  0  0  0  0  0  0  0  0  0  0
   19.6208   19.5099   18.5761 H   0  0  0  0  0  0  0  0  0  0  0  0
   21.3567   19.2248   18.8339 H   0  0  0  0  0  0  0  0  0  0  0  0
   20.0681   18.2779   20.3333 C   0  0  0  0  0  0  0  0  0  0  0  0
   20.8039   17.5117   20.6148 H   0  0  0  0  0  0  0  0  0  0  0  0
   19.0814   17.7946   20.3590 H   0  0  0  0  0  0  0  0  0  0  0  0
   20.1074   19.4385   21.3521 C   0  0  0  0  0  0  0  0  0  0  0  0
   21.0947   19.9198   21.3202 H   0  0  0  0  0  0  0  0  0  0  0  0
   19.3720   20.2027   21.0647 H   0  0  0  0  0  0  0  0  0  0  0  0
   19.8141   18.9535   22.7899 C   0  0  0  0  0  0  0  0  0  0  0  0
   20.5512   18.1892   23.0694 H   0  0  0  0  0  0  0  0  0  0  0  0
   18.8284   18.4704   22.8097 H   0  0  0  0  0  0  0  0  0  0  0  0
   19.8522   20.1239   23.8070 C   0  0  0  0  0  0  0  0  0  0  0  0
   20.8254   20.6277   23.7405 H   0  0  0  0  0  0  0  0  0  0  0  0
   19.1034   20.8754   23.5235 H   0  0  0  0  0  0  0  0  0  0  0  0
   19.6133   19.7157   25.2800 C   0  0  1  0  0  0  0  0  0  0  0  0
   19.6966   20.6232   25.8860 H   0  0  0  0  0  0  0  0  0  0  0  0
   18.2040   19.1383   25.4995 C   0  0  0  0  0  0  0  0  0  0  0  0
   17.4376   19.8255   25.1203 H   0  0  0  0  0  0  0  0  0  0  0  0
   18.0143   18.9865   26.5691 H   0  0  0  0  0  0  0  0  0  0  0  0
   18.0785   18.1718   24.9971 H   0  0  0  0  0  0  0  0  0  0  0  0
   20.6676   18.7739   25.7935 N   0  3  0  0  0  0  0  0  0  0  0  0
   21.6065   19.1695   25.6917 H   0  0  0  0  0  0  0  0  0  0  0  0
   20.5304   18.5641   26.7863 H   0  0  0  0  0  0  0  0  0  0  0  0
   20.6509   17.8853   25.2872 H   0  0  0  0  0  0  0  0  0  0  0  0
  1  2  1  0  0  0  0
  1  3  1  0  0  0  0
  1  4  1  0  0  0  0
  1  5  1  0  0  0  0
  5  6  1  0  0  0  0
  5  7  1  0  0  0  0
  5  8  1  0  0  0  0
  8  9  1  0  0  0  0
  8 10  1  0  0  0  0
  8 11  1  0  0  0  0
 11 12  1  0  0  0  0
 11 13  1  0  0  0  0
 11 14  1  0  0  0  0
 14 15  1  0  0  0  0
 14 16  1  0  0  0  0
 14 17  1  0  0  0  0
 17 18  1  0  0  0  0
 17 19  1  0  0  0  0
 19 20  1  0  0  0  0
 19 21  1  0  0  0  0
 19 22  1  0  0  0  0
 17 23  1  0  0  0  0
 23 24  1  0  0  0  0
 23 25  1  0  0  0  0
 23 26  1  0  0  0  0
M  END
> <VM2 Rank>
3

> <Conf_Id>
394

> <Probability>
7.20

> <Sum Probability>
31.94

> <Delta G>
0.513

> <G>
24.223

> <E>
-8.474

> <-TS>
32.697

> <U+W>
-29.936

> <U>
24.060

> <W>
-53.996

> <W(PB)>
-56.328

> <W(SA)>
2.332

> <Valence>
3.249

> <Coulomb>
19.781

> <VdW>
1.030

> <VdW6>
-7.421

> <VdW12>
8.451

> <Bond>
0.207

> <Angle>
1.205

> <Pdih>
1.837

> <Idih>
0.000

> <Tether>
0.000

$$$$
VeraChem MOL file


 26 25  0  0  0  0  0  0  0  0999 V2000     
   21.0477   19.5376   19.5908 C   0  0  0  0  0  0  0  0  0  0  0  0
   21.7404   19.8917   20.3642 H   0  0  0  0  0  0  0  0  0  0  0  0
   21.6436   19.2917   18.7023 H   0  0  0  0  0  0  0  0  0  0  0  0
   20.3755   20.3640   19.3258 H   0  0  0  0  0  0  0  0  0  0  0  0
   20.2495   18.3022   20.0654 C   0  0  0  0  0  0  0  0  0  0  0  0
   20.9447   17.5010   20.3527 H   0  0  0  0  0  0  0  0  0  0  0  0
   19.6643   17.9129   19.2205 H   0  0  0  0  0  0  0  0  0  0  0  0
   19.2863   18.6054   21.2384 C   0  0  0  0  0  0  0  0  0  0  0  0
   18.5786   19.3903   20.9376 H   0  0  0  0  0  0  0  0  0  0  0  0
   18.6854   17.7072   21.4372 H   0  0  0  0  0  0  0  0  0  0  0  0
   20.0118   19.0260   22.5390 C   0  0  0  0  0  0  0  0  0  0  0  0
   20.5566   19.9652   22.3752 H   0  0  0  0  0  0  0  0  0  0  0  0
   20.7576   18.2626   22.7975 H   0  0  0  0  0  0  0  0  0  0  0  0
   19.0191   19.2153   23.7118 C   0  0  0  0  0  0  0  0  0  0  0  0
   18.2492   19.9385   23.4111 H   0  0  0  0  0  0  0  0  0  0  0  0
   18.4988   18.2698   23.9151 H   0  0  0  0  0  0  0  0  0  0  0  0
   19.7000   19.7209   25.0022 C   0  0  1  0  0  0  0  0  0  0  0  0
   20.2299   20.6496   24.7689 H   0  0  0  0  0  0  0  0  0  0  0  0
   18.6459   20.0246   26.0789 C   0  0  0  0  0  0  0  0  0  0  0  0
   19.1199   20.4193   26.9860 H   0  0  0  0  0  0  0  0  0  0  0  0
   18.0850   19.1218   26.3514 H   0  0  0  0  0  0  0  0  0  0  0  0
   17.9307   20.7767   25.7233 H   0  0  0  0  0  0  0  0  0  0  0  0
   20.7278   18.7560   25.5275 N   0  3  0  0  0  0  0  0  0  0  0  0
   20.3057   17.8551   25.7676 H   0  0  0  0  0  0  0  0  0  0  0  0
   21.4619   18.5786   24.8368 H   0  0  0  0  0  0  0  0  0  0  0  0
   21.1822   19.1161   26.3714 H   0  0  0  0  0  0  0  0  0  0  0  0
  1  2  1  0  0  0  0
  1  3  1  0  0  0  0
  1  4  1  0  0  0  0
  1  5  1  0  0  0  0
  5  6  1  0  0  0  0
  5  7  1  0  0  0  0
  5  8  1  0  0  0  0
  8  9  1  0  0  0  0
  8 10  1  0  0  0  0
  8 11  1  0  0  0  0
 11 12  1  0  0  0  0
 11 13  1  0  0  0  0
 11 14  1  0  0  0  0
 14 15  1  0  0  0  0
 14 16  1  0  0  0  0
 14 17  1  0  0  0  0
 17 18  1  0  0  0  0
 17 19  1  0  0  0  0
 19 20  1  0  0  0  0
 19 21  1  0  0  0  0
 19 22  1  0  0  0  0
 17 23  1  0  0  0  0
 23 24  1  0  0  0  0
 23 25  1  0  0  0  0
 23 26  1  0  0  0  0
M  END
> <VM2 Rank>
4

> <Conf_Id>
1098

> <Probability>
6.29

> <Sum Probability>
38.23

> <Delta G>
0.594

> <G>
24.304

> <E>
-8.361

> <-TS>
32.665

> <U+W>
-29.822

> <U>
24.148

> <W>
-53.971

> <W(PB)>
-56.282

> <W(SA)>
2.311

> <Valence>
3.242

> <Coulomb>
19.863

> <VdW>
1.043

> <VdW6>
-7.422

> <VdW12>
8.465

> <Bond>
0.206

> <Angle>
1.112

> <Pdih>
1.924

> <Idih>
0.000

> <Tether>
0.000

$$$$
VeraChem MOL file


 26 25  0  0  0  0  0  0  0  0999 V2000     
   21.0697   18.0176   19.8285 C   0  0  0  0  0  0  0  0  0  0  0  0
   21.7714   17.9119   20.6650 H   0  0  0  0  0  0  0  0  0  0  0  0
   20.4115   17.1391   19.8176 H   0  0  0  0  0  0  0  0  0  0  0  0
   21.6580   18.0076   18.9018 H   0  0  0  0  0  0  0  0  0  0  0  0
   20.2511   19.3243   19.9349 C   0  0  0  0  0  0  0  0  0  0  0  0
   19.6583   19.4460   19.0175 H   0  0  0  0  0  0  0  0  0  0  0  0
   20.9328   20.1852   19.9766 H   0  0  0  0  0  0  0  0  0  0  0  0
   19.2944   19.3545   21.1513 C   0  0  0  0  0  0  0  0  0  0  0  0
   18.6765   20.2607   21.0853 H   0  0  0  0  0  0  0  0  0  0  0  0
   18.6017   18.5035   21.0943 H   0  0  0  0  0  0  0  0  0  0  0  0
   20.0282   19.3401   22.5138 C   0  0  0  0  0  0  0  0  0  0  0  0
   20.7543   20.1641   22.5472 H   0  0  0  0  0  0  0  0  0  0  0  0
   20.5965   18.4070   22.6136 H   0  0  0  0  0  0  0  0  0  0  0  0
   19.0395   19.4755   23.6975 C   0  0  0  0  0  0  0  0  0  0  0  0
   18.4433   20.3874   23.5597 H   0  0  0  0  0  0  0  0  0  0  0  0
   18.3330   18.6348   23.6892 H   0  0  0  0  0  0  0  0  0  0  0  0
   19.7463   19.5467   25.0687 C   0  0  1  0  0  0  0  0  0  0  0  0
   20.4616   20.3746   25.0430 H   0  0  0  0  0  0  0  0  0  0  0  0
   18.7245   19.8265   26.1825 C   0  0  0  0  0  0  0  0  0  0  0  0
   18.1919   20.7674   25.9957 H   0  0  0  0  0  0  0  0  0  0  0  0
   19.2245   19.9150   27.1549 H   0  0  0  0  0  0  0  0  0  0  0  0
   17.9821   19.0216   26.2517 H   0  0  0  0  0  0  0  0  0  0  0  0
   20.5344   18.3028   25.3768 N   0  3  0  0  0  0  0  0  0  0  0  0
   21.0104   18.3758   26.2804 H   0  0  0  0  0  0  0  0  0  0  0  0
   19.9300   17.4778   25.4148 H   0  0  0  0  0  0  0  0  0  0  0  0
   21.2508   18.1283   24.6671 H   0  0  0  0  0  0  0  0  0  0  0  0
  1  2  1  0  0  0  0
  1  3  1  0  0  0  0
  1  4  1  0  0  0  0
  1  5  1  0  0  0  0
  5  6  1  0  0  0  0
  5  7  1  0  0  0  0
  5  8  1  0  0  0  0
  8  9  1  0  0  0  0
  8 10  1  0  0  0  0
  8 11  1  0  0  0  0
 11 12  1  0  0  0  0
 11 13  1  0  0  0  0
 11 14  1  0  0  0  0
 14 15  1  0  0  0  0
 14 16  1  0  0  0  0
 14 17  1  0  0  0  0
 17 18  1  0  0  0  0
 17 19  1  0  0  0  0
 19 20  1  0  0  0  0
 19 21  1  0  0  0  0
 19 22  1  0  0  0  0
 17 23  1  0  0  0  0
 23 24  1  0  0  0  0
 23 25  1  0  0  0  0
 23 26  1  0  0  0  0
M  END
> <VM2 Rank>
5

> <Conf_Id>
512

> <Probability>
6.04

> <Sum Probability>
44.28

> <Delta G>
0.618

> <G>
24.328

> <E>
-8.331

> <-TS>
32.658

> <U+W>
-29.792

> <U>
24.259

> <W>
-54.052

> <W(PB)>
-56.355

> <W(SA)>
2.304

> <Valence>
3.240

> <Coulomb>
19.971

> <VdW>
1.049

> <VdW6>
-7.432

> <VdW12>
8.481

> <Bond>
0.208

> <Angle>
1.110

> <Pdih>
1.922

> <Idih>
0.000

> <Tether>
0.000

$$$$
VeraChem MOL file


 26 25  0  0  0  0  0  0  0  0999 V2000     
   19.9268   18.4374   19.0849 C   0  0  0  0  0  0  0  0  0  0  0  0
   20.9096   18.6604   18.6495 H   0  0  0  0  0  0  0  0  0  0  0  0
   19.5853   17.4792   18.6722 H   0  0  0  0  0  0  0  0  0  0  0  0
   19.2237   19.2148   18.7584 H   0  0  0  0  0  0  0  0  0  0  0  0
   20.0038   18.3710   20.6250 C   0  0  0  0  0  0  0  0  0  0  0  0
   20.6909   17.5660   20.9208 H   0  0  0  0  0  0  0  0  0  0  0  0
   19.0139   18.1064   21.0198 H   0  0  0  0  0  0  0  0  0  0  0  0
   20.4794   19.7129   21.2303 C   0  0  0  0  0  0  0  0  0  0  0  0
   21.4335   19.9964   20.7648 H   0  0  0  0  0  0  0  0  0  0  0  0
   19.7647   20.5078   20.9760 H   0  0  0  0  0  0  0  0  0  0  0  0
   20.6774   19.6635   22.7652 C   0  0  0  0  0  0  0  0  0  0  0  0
   21.1155   20.6175   23.0901 H   0  0  0  0  0  0  0  0  0  0  0  0
   21.4129   18.8851   23.0087 H   0  0  0  0  0  0  0  0  0  0  0  0
   19.3622   19.4203   23.5489 C   0  0  0  0  0  0  0  0  0  0  0  0
   18.6078   20.1427   23.2100 H   0  0  0  0  0  0  0  0  0  0  0  0
   18.9664   18.4218   23.3241 H   0  0  0  0  0  0  0  0  0  0  0  0
   19.5397   19.5652   25.0758 C   0  0  1  0  0  0  0  0  0  0  0  0
   19.9496   20.5591   25.2804 H   0  0  0  0  0  0  0  0  0  0  0  0
   18.1814   19.4481   25.7857 C   0  0  0  0  0  0  0  0  0  0  0  0
   17.4847   20.2143   25.4233 H   0  0  0  0  0  0  0  0  0  0  0  0
   18.2955   19.5876   26.8677 H   0  0  0  0  0  0  0  0  0  0  0  0
   17.7268   18.4644   25.6138 H   0  0  0  0  0  0  0  0  0  0  0  0
   20.5173   18.5696   25.6382 N   0  3  0  0  0  0  0  0  0  0  0  0
   20.2019   17.6084   25.4837 H   0  0  0  0  0  0  0  0  0  0  0  0
   21.4395   18.6653   25.2047 H   0  0  0  0  0  0  0  0  0  0  0  0
   20.6392   18.6938   26.6472 H   0  0  0  0  0  0  0  0  0  0  0  0
  1  2  1  0  0  0  0
  1  3  1  0  0  0  0
  1  4  1  0  0  0  0
  1  5  1  0  0  0  0
  5  6  1  0  0  0  0
  5  7  1  0  0  0  0
  5  8  1  0  0  0  0
  8  9  1  0  0  0  0
  8 10  1  0  0  0  0
  8 11  1  0  0  0  0
 11 12  1  0  0  0  0
 11 13  1  0  0  0  0
 11 14  1  0  0  0  0
 14 15  1  0  0  0  0
 14 16  1  0  0  0  0
 14 17  1  0  0  0  0
 17 18  1  0  0  0  0
 17 19  1  0  0  0  0
 19 20  1  0  0  0  0
 19 21  1  0  0  0  0
 19 22  1  0  0  0  0
 17 23  1  0  0  0  0
 23 24  1  0  0  0  0
 23 25  1  0  0  0  0
 23 26  1  0  0  0  0
M  END
> <VM2 Rank>
6

> <Conf_Id>
976

> <Probability>
5.30

> <Sum Probability>
49.57

> <Delta G>
0.697

> <G>
24.407

> <E>
-8.262

> <-TS>
32.669

> <U+W>
-29.724

> <U>
24.276

> <W>
-54.000

> <W(PB)>
-56.312

> <W(SA)>
2.312

> <Valence>
3.269

> <Coulomb>
20.007

> <VdW>
1.000

> <VdW6>
-7.483

> <VdW12>
8.483

> <Bond>
0.211

> <Angle>
1.103

> <Pdih>
1.955

> <Idih>
0.000

> <Tether>
0.000

$$$$
VeraChem MOL file


 26 25  0  0  0  0  0  0  0  0999 V2000     
   20.8973   19.5642   19.3398 C   0  0  0  0  0  0  0  0  0  0  0  0
   21.3065   19.0767   18.4454 H   0  0  0  0  0  0  0  0  0  0  0  0
   20.0620   20.2025   19.0234 H   0  0  0  0  0  0  0  0  0  0  0  0
   21.6802   20.2089   19.7601 H   0  0  0  0  0  0  0  0  0  0  0  0
   20.4326   18.5122   20.3692 C   0  0  0  0  0  0  0  0  0  0  0  0
   21.2810   17.8686   20.6409 H   0  0  0  0  0  0  0  0  0  0  0  0
   19.6758   17.8617   19.9088 H   0  0  0  0  0  0  0  0  0  0  0  0
   19.8508   19.1725   21.6387 C   0  0  0  0  0  0  0  0  0  0  0  0
   20.6118   19.8276   22.0831 H   0  0  0  0  0  0  0  0  0  0  0  0
   19.0021   19.8128   21.3612 H   0  0  0  0  0  0  0  0  0  0  0  0
   19.3867   18.1186   22.6726 C   0  0  0  0  0  0  0  0  0  0  0  0
   20.2365   17.4902   22.9709 H   0  0  0  0  0  0  0  0  0  0  0  0
   18.6630   17.4429   22.1961 H   0  0  0  0  0  0  0  0  0  0  0  0
   18.7225   18.7436   23.9263 C   0  0  0  0  0  0  0  0  0  0  0  0
   17.8184   19.2835   23.6145 H   0  0  0  0  0  0  0  0  0  0  0  0
   18.3839   17.9379   24.5912 H   0  0  0  0  0  0  0  0  0  0  0  0
   19.6369   19.7072   24.7157 C   0  0  1  0  0  0  0  0  0  0  0  0
   19.9486   20.5137   24.0454 H   0  0  0  0  0  0  0  0  0  0  0  0
   18.8679   20.3322   25.8905 C   0  0  0  0  0  0  0  0  0  0  0  0
   18.5348   19.5649   26.6005 H   0  0  0  0  0  0  0  0  0  0  0  0
   17.9832   20.8738   25.5329 H   0  0  0  0  0  0  0  0  0  0  0  0
   19.4996   21.0474   26.4316 H   0  0  0  0  0  0  0  0  0  0  0  0
   20.8933   19.0375   25.2011 N   0  3  0  0  0  0  0  0  0  0  0  0
   21.4331   18.6510   24.4221 H   0  0  0  0  0  0  0  0  0  0  0  0
   21.4999   19.6947   25.6996 H   0  0  0  0  0  0  0  0  0  0  0  0
   20.6822   18.2683   25.8422 H   0  0  0  0  0  0  0  0  0  0  0  0
  1  2  1  0  0  0  0
  1  3  1  0  0  0  0
  1  4  1  0  0  0  0
  1  5  1  0  0  0  0
  5  6  1  0  0  0  0
  5  7  1  0  0  0  0
  5  8  1  0  0  0  0
  8  9  1  0  0  0  0
  8 10  1  0  0  0  0
  8 11  1  0  0  0  0
 11 12  1  0  0  0  0
 11 13  1  0  0  0  0
 11 14  1  0  0  0  0
 14 15  1  0  0  0  0
 14 16  1  0  0  0  0
 14 17  1  0  0  0  0
 17 18  1  0  0  0  0
 17 19  1  0  0  0  0
 19 20  1  0  0  0  0
 19 21  1  0  0  0  0
 19 22  1  0  0  0  0
 17 23  1  0  0  0  0
 23 24  1  0  0  0  0
 23 25  1  0  0  0  0
 23 26  1  0  0  0  0
M  END
> <VM2 Rank>
7

> <Conf_Id>
470

> <Probability>
5.28

> <Sum Probability>
54.85

> <Delta G>
0.698

> <G>
24.408

> <E>
-8.337

> <-TS>
32.745

> <U+W>
-29.799

> <U>
24.149

> <W>
-53.948

> <W(PB)>
-56.255

> <W(SA)>
2.307

> <Valence>
3.038

> <Coulomb>
20.324

> <VdW>
0.787

> <VdW6>
-7.686

> <VdW12>
8.473

> <Bond>
0.201

> <Angle>
1.090

> <Pdih>
1.748

> <Idih>
0.000

> <Tether>
0.000

$$$$
VeraChem MOL file


 26 25  0  0  0  0  0  0  0  0999 V2000     
   19.8815   18.9331   18.9778 C   0  0  0  0  0  0  0  0  0  0  0  0
   20.8781   18.6656   18.6031 H   0  0  0  0  0  0  0  0  0  0  0  0
   19.2375   18.0474   18.8992 H   0  0  0  0  0  0  0  0  0  0  0  0
   19.4706   19.7081   18.3177 H   0  0  0  0  0  0  0  0  0  0  0  0
   19.9528   19.4393   20.4341 C   0  0  0  0  0  0  0  0  0  0  0  0
   18.9459   19.7352   20.7566 H   0  0  0  0  0  0  0  0  0  0  0  0
   20.5793   20.3412   20.4755 H   0  0  0  0  0  0  0  0  0  0  0  0
   20.5251   18.3610   21.3846 C   0  0  0  0  0  0  0  0  0  0  0  0
   19.8672   17.4809   21.3858 H   0  0  0  0  0  0  0  0  0  0  0  0
   21.4936   18.0203   20.9930 H   0  0  0  0  0  0  0  0  0  0  0  0
   20.7323   18.8571   22.8370 C   0  0  0  0  0  0  0  0  0  0  0  0
   21.3920   19.7358   22.8342 H   0  0  0  0  0  0  0  0  0  0  0  0
   21.2651   18.0725   23.3900 H   0  0  0  0  0  0  0  0  0  0  0  0
   19.4090   19.1993   23.5692 C   0  0  0  0  0  0  0  0  0  0  0  0
   18.8912   20.0002   23.0274 H   0  0  0  0  0  0  0  0  0  0  0  0
   18.7411   18.3278   23.5567 H   0  0  0  0  0  0  0  0  0  0  0  0
   19.6294   19.6630   25.0259 C   0  0  1  0  0  0  0  0  0  0  0  0
   20.3252   20.5076   25.0152 H   0  0  0  0  0  0  0  0  0  0  0  0
   18.3035   20.1384   25.6415 C   0  0  0  0  0  0  0  0  0  0  0  0
   17.8752   20.9624   25.0572 H   0  0  0  0  0  0  0  0  0  0  0  0
   18.4587   20.5024   26.6646 H   0  0  0  0  0  0  0  0  0  0  0  0
   17.5675   19.3254   25.6758 H   0  0  0  0  0  0  0  0  0  0  0  0
   20.2546   18.5968   25.8839 N   0  3  0  0  0  0  0  0  0  0  0  0
   21.1621   18.3023   25.5138 H   0  0  0  0  0  0  0  0  0  0  0  0
   20.4079   18.9287   26.8404 H   0  0  0  0  0  0  0  0  0  0  0  0
   19.6597   17.7660   25.9397 H   0  0  0  0  0  0  0  0  0  0  0  0
  1  2  1  0  0  0  0
  1  3  1  0  0  0  0
  1  4  1  0  0  0  0
  1  5  1  0  0  0  0
  5  6  1  0  0  0  0
  5  7  1  0  0  0  0
  5  8  1  0  0  0  0
  8  9  1  0  0  0  0
  8 10  1  0  0  0  0
  8 11  1  0  0  0  0
 11 12  1  0  0  0  0
 11 13  1  0  0  0  0
 11 14  1  0  0  0  0
 14 15  1  0  0  0  0
 14 16  1  0  0  0  0
 14 17  1  0  0  0  0
 17 18  1  0  0  0  0
 17 19  1  0  0  0  0
 19 20  1  0  0  0  0
 19 21  1  0  0  0  0
 19 22  1  0  0  0  0
 17 23  1  0  0  0  0
 23 24  1  0  0  0  0
 23 25  1  0  0  0  0
 23 26  1  0  0  0  0
M  END
> <VM2 Rank>
8

> <Conf_Id>
610

> <Probability>
4.39

> <Sum Probability>
59.25

> <Delta G>
0.808

> <G>
24.518

> <E>
-8.104

> <-TS>
32.622

> <U+W>
-29.566

> <U>
24.282

> <W>
-53.847

> <W(PB)>
-56.207

> <W(SA)>
2.360

> <Valence>
3.311

> <Coulomb>
19.887

> <VdW>
1.083

> <VdW6>
-7.444

> <VdW12>
8.527

> <Bond>
0.218

> <Angle>
1.167

> <Pdih>
1.926

> <Idih>
0.000

> <Tether>
0.000

$$$$
