VeraChem MOL file


 20 19  0  0  0  0  0  0  0  0999 V2000     
   20.4455   18.0661   18.7399 C   0  0  0  0  0  0  0  0  0  0  0  0
   20.6597   17.7974   17.7068 H   0  0  0  0  0  0  0  0  0  0  0  0
   20.5834   17.2883   19.4880 H   0  0  0  0  0  0  0  0  0  0  0  0
   20.0331   19.2995   19.0536 C   0  0  0  0  0  0  0  0  0  0  0  0
   19.9133   20.0362   18.2595 H   0  0  0  0  0  0  0  0  0  0  0  0
   19.6972   19.8197   20.4413 C   0  0  0  0  0  0  0  0  0  0  0  0
   18.6643   20.1928   20.4378 H   0  0  0  0  0  0  0  0  0  0  0  0
   20.3272   20.6942   20.6523 H   0  0  0  0  0  0  0  0  0  0  0  0
   19.8605   18.7897   21.5834 C   0  0  0  0  0  0  0  0  0  0  0  0
   19.2167   17.9209   21.3889 H   0  0  0  0  0  0  0  0  0  0  0  0
   20.8976   18.4277   21.6057 H   0  0  0  0  0  0  0  0  0  0  0  0
   19.5003   19.3966   22.9571 C   0  0  0  0  0  0  0  0  0  0  0  0
   18.4637   19.7607   22.9413 H   0  0  0  0  0  0  0  0  0  0  0  0
   20.1411   20.2665   23.1577 H   0  0  0  0  0  0  0  0  0  0  0  0
   19.6630   18.3671   24.1025 C   0  0  0  0  0  0  0  0  0  0  0  0
   19.0192   17.4974   23.9243 H   0  0  0  0  0  0  0  0  0  0  0  0
   20.6967   18.0031   24.1407 H   0  0  0  0  0  0  0  0  0  0  0  0
   19.3129   18.9430   25.4699 C   0  0  0  0  0  0  0  0  0  0  0  0
   20.1971   19.4751   26.1115 O   0  5  0  0  0  0  0  0  0  0  0  0
   18.1613   18.8614   25.8489 O   0  0  0  0  0  0  0  0  0  0  0  0
  1  2  1  0  0  0  0
  1  3  1  0  0  0  0
  1  4  2  0  0  0  0
  4  5  1  0  0  0  0
  4  6  1  0  0  0  0
  6  7  1  0  0  0  0
  6  8  1  0  0  0  0
  6  9  1  0  0  0  0
  9 10  1  0  0  0  0
  9 11  1  0  0  0  0
  9 12  1  0  0  0  0
 12 13  1  0  0  0  0
 12 14  1  0  0  0  0
 12 15  1  0  0  0  0
 15 16  1  0  0  0  0
 15 17  1  0  0  0  0
 15 18  1  0  0  0  0
 18 19  1  0  0  0  0
 18 20  2  0  0  0  0
M  END
> <VM2 Rank>
1

> <Conf_Id>
811

> <Probability>
13.58

> <Sum Probability>
13.58

> <Delta G>
0.000

> <G>
-21.890

> <E>
-37.137

> <-TS>
15.248

> <U+W>
-53.234

> <U>
6.572

> <W>
-59.803

> <W(PB)>
-62.038

> <W(SA)>
2.234

> <Valence>
7.989

> <Coulomb>
-2.698

> <VdW>
1.281

> <VdW6>
-6.467

> <VdW12>
7.748

> <Bond>
0.136

> <Angle>
2.854

> <Pdih>
4.998

> <Idih>
0.001

> <Tether>
0.000

$$$$
VeraChem MOL file


 20 19  0  0  0  0  0  0  0  0999 V2000     
   19.7352   18.4522   18.2411 C   0  0  0  0  0  0  0  0  0  0  0  0
   18.6523   18.3602   18.3074 H   0  0  0  0  0  0  0  0  0  0  0  0
   20.2190   18.0464   17.3542 H   0  0  0  0  0  0  0  0  0  0  0  0
   20.4463   19.0369   19.2086 C   0  0  0  0  0  0  0  0  0  0  0  0
   21.5297   19.1182   19.1231 H   0  0  0  0  0  0  0  0  0  0  0  0
   19.8449   19.6233   20.4664 C   0  0  0  0  0  0  0  0  0  0  0  0
   18.7579   19.7336   20.3525 H   0  0  0  0  0  0  0  0  0  0  0  0
   20.2491   20.6310   20.6318 H   0  0  0  0  0  0  0  0  0  0  0  0
   20.1458   18.7372   21.6933 C   0  0  0  0  0  0  0  0  0  0  0  0
   19.7431   17.7294   21.5212 H   0  0  0  0  0  0  0  0  0  0  0  0
   21.2331   18.6308   21.8095 H   0  0  0  0  0  0  0  0  0  0  0  0
   19.5411   19.3233   22.9876 C   0  0  0  0  0  0  0  0  0  0  0  0
   18.4532   19.4288   22.8737 H   0  0  0  0  0  0  0  0  0  0  0  0
   19.9428   20.3313   23.1611 H   0  0  0  0  0  0  0  0  0  0  0  0
   19.8424   18.4338   24.2189 C   0  0  0  0  0  0  0  0  0  0  0  0
   19.4359   17.4267   24.0671 H   0  0  0  0  0  0  0  0  0  0  0  0
   20.9255   18.3293   24.3548 H   0  0  0  0  0  0  0  0  0  0  0  0
   19.2549   18.9920   25.5101 C   0  0  0  0  0  0  0  0  0  0  0  0
   19.9340   19.7578   26.1652 O   0  5  0  0  0  0  0  0  0  0  0  0
   18.1264   18.6615   25.8167 O   0  0  0  0  0  0  0  0  0  0  0  0
  1  2  1  0  0  0  0
  1  3  1  0  0  0  0
  1  4  2  0  0  0  0
  4  5  1  0  0  0  0
  4  6  1  0  0  0  0
  6  7  1  0  0  0  0
  6  8  1  0  0  0  0
  6  9  1  0  0  0  0
  9 10  1  0  0  0  0
  9 11  1  0  0  0  0
  9 12  1  0  0  0  0
 12 13  1  0  0  0  0
 12 14  1  0  0  0  0
 12 15  1  0  0  0  0
 15 16  1  0  0  0  0
 15 17  1  0  0  0  0
 15 18  1  0  0  0  0
 18 19  1  0  0  0  0
 18 20  2  0  0  0  0
M  END
> <VM2 Rank>
2

> <Conf_Id>
464

> <Probability>
13.37

> <Sum Probability>
26.95

> <Delta G>
0.009

> <G>
-21.880

> <E>
-36.772

> <-TS>
14.892

> <U+W>
-52.869

> <U>
6.632

> <W>
-59.501

> <W(PB)>
-61.760

> <W(SA)>
2.259

> <Valence>
9.076

> <Coulomb>
-3.008

> <VdW>
0.564

> <VdW6>
-5.773

> <VdW12>
6.337

> <Bond>
0.084

> <Angle>
2.239

> <Pdih>
6.752

> <Idih>
0.001

> <Tether>
0.000

$$$$
VeraChem MOL file


 20 19  0  0  0  0  0  0  0  0999 V2000     
   19.8357   18.3567   18.2570 C   0  0  0  0  0  0  0  0  0  0  0  0
   19.5624   18.6705   17.2509 H   0  0  0  0  0  0  0  0  0  0  0  0
   19.7745   17.2936   18.4842 H   0  0  0  0  0  0  0  0  0  0  0  0
   20.2277   19.2448   19.1742 C   0  0  0  0  0  0  0  0  0  0  0  0
   20.2812   20.3047   18.9266 H   0  0  0  0  0  0  0  0  0  0  0  0
   20.6226   18.8841   20.5890 C   0  0  0  0  0  0  0  0  0  0  0  0
   21.5741   19.3716   20.8405 H   0  0  0  0  0  0  0  0  0  0  0  0
   20.7904   17.8016   20.6726 H   0  0  0  0  0  0  0  0  0  0  0  0
   19.5374   19.3154   21.5975 C   0  0  0  0  0  0  0  0  0  0  0  0
   19.3732   20.3988   21.5166 H   0  0  0  0  0  0  0  0  0  0  0  0
   18.5870   18.8283   21.3391 H   0  0  0  0  0  0  0  0  0  0  0  0
   19.9263   18.9570   23.0483 C   0  0  0  0  0  0  0  0  0  0  0  0
   20.8769   19.4434   23.3082 H   0  0  0  0  0  0  0  0  0  0  0  0
   20.0892   17.8734   23.1314 H   0  0  0  0  0  0  0  0  0  0  0  0
   18.8371   19.3894   24.0606 C   0  0  0  0  0  0  0  0  0  0  0  0
   18.6718   20.4718   23.9998 H   0  0  0  0  0  0  0  0  0  0  0  0
   17.8841   18.9018   23.8228 H   0  0  0  0  0  0  0  0  0  0  0  0
   19.1983   19.0457   25.5012 C   0  0  0  0  0  0  0  0  0  0  0  0
   19.8214   19.8649   26.1473 O   0  5  0  0  0  0  0  0  0  0  0  0
   18.8644   17.9600   25.9329 O   0  0  0  0  0  0  0  0  0  0  0  0
  1  2  1  0  0  0  0
  1  3  1  0  0  0  0
  1  4  2  0  0  0  0
  4  5  1  0  0  0  0
  4  6  1  0  0  0  0
  6  7  1  0  0  0  0
  6  8  1  0  0  0  0
  6  9  1  0  0  0  0
  9 10  1  0  0  0  0
  9 11  1  0  0  0  0
  9 12  1  0  0  0  0
 12 13  1  0  0  0  0
 12 14  1  0  0  0  0
 12 15  1  0  0  0  0
 15 16  1  0  0  0  0
 15 17  1  0  0  0  0
 15 18  1  0  0  0  0
 18 19  1  0  0  0  0
 18 20  2  0  0  0  0
M  END
> <VM2 Rank>
3

> <Conf_Id>
691

> <Probability>
12.14

> <Sum Probability>
39.10

> <Delta G>
0.067

> <G>
-21.823

> <E>
-36.714

> <-TS>
14.891

> <U+W>
-52.810

> <U>
6.633

> <W>
-59.443

> <W(PB)>
-61.702

> <W(SA)>
2.259

> <Valence>
9.076

> <Coulomb>
-3.007

> <VdW>
0.564

> <VdW6>
-5.773

> <VdW12>
6.337

> <Bond>
0.084

> <Angle>
2.239

> <Pdih>
6.752

> <Idih>
0.001

> <Tether>
0.000

$$$$
VeraChem MOL file


 20 19  0  0  0  0  0  0  0  0999 V2000     
   19.2310   18.4035   18.7287 C   0  0  0  0  0  0  0  0  0  0  0  0
   18.2507   18.2552   18.2791 H   0  0  0  0  0  0  0  0  0  0  0  0
   20.0633   17.8369   18.3143 H   0  0  0  0  0  0  0  0  0  0  0  0
   19.4012   19.2463   19.7507 C   0  0  0  0  0  0  0  0  0  0  0  0
   18.5550   19.8058   20.1482 H   0  0  0  0  0  0  0  0  0  0  0  0
   20.7333   19.5077   20.4208 C   0  0  0  0  0  0  0  0  0  0  0  0
   20.8632   20.5854   20.5873 H   0  0  0  0  0  0  0  0  0  0  0  0
   21.5500   19.1992   19.7541 H   0  0  0  0  0  0  0  0  0  0  0  0
   20.8759   18.7518   21.7610 C   0  0  0  0  0  0  0  0  0  0  0  0
   20.7294   17.6762   21.5906 H   0  0  0  0  0  0  0  0  0  0  0  0
   21.9037   18.8748   22.1288 H   0  0  0  0  0  0  0  0  0  0  0  0
   19.8878   19.2504   22.8405 C   0  0  0  0  0  0  0  0  0  0  0  0
   18.8540   19.0972   22.5022 H   0  0  0  0  0  0  0  0  0  0  0  0
   20.0178   20.3311   22.9911 H   0  0  0  0  0  0  0  0  0  0  0  0
   20.0918   18.5179   24.1895 C   0  0  0  0  0  0  0  0  0  0  0  0
   19.9534   17.4379   24.0582 H   0  0  0  0  0  0  0  0  0  0  0  0
   21.1145   18.6721   24.5539 H   0  0  0  0  0  0  0  0  0  0  0  0
   19.1276   18.9910   25.2714 C   0  0  0  0  0  0  0  0  0  0  0  0
   19.4622   19.9293   25.9673 O   0  5  0  0  0  0  0  0  0  0  0  0
   18.0602   18.4202   25.3783 O   0  0  0  0  0  0  0  0  0  0  0  0
  1  2  1  0  0  0  0
  1  3  1  0  0  0  0
  1  4  2  0  0  0  0
  4  5  1  0  0  0  0
  4  6  1  0  0  0  0
  6  7  1  0  0  0  0
  6  8  1  0  0  0  0
  6  9  1  0  0  0  0
  9 10  1  0  0  0  0
  9 11  1  0  0  0  0
  9 12  1  0  0  0  0
 12 13  1  0  0  0  0
 12 14  1  0  0  0  0
 12 15  1  0  0  0  0
 15 16  1  0  0  0  0
 15 17  1  0  0  0  0
 15 18  1  0  0  0  0
 18 19  1  0  0  0  0
 18 20  2  0  0  0  0
M  END
> <VM2 Rank>
4

> <Conf_Id>
900

> <Probability>
4.86

> <Sum Probability>
43.95

> <Delta G>
0.613

> <G>
-21.277

> <E>
-36.308

> <-TS>
15.032

> <U+W>
-52.405

> <U>
7.828

> <W>
-60.233

> <W(PB)>
-62.486

> <W(SA)>
2.254

> <Valence>
9.300

> <Coulomb>
-2.080

> <VdW>
0.608

> <VdW6>
-6.341

> <VdW12>
6.949

> <Bond>
0.103

> <Angle>
2.334

> <Pdih>
6.862

> <Idih>
0.001

> <Tether>
0.000

$$$$
VeraChem MOL file


 20 19  0  0  0  0  0  0  0  0999 V2000     
   21.2428   19.0106   18.9879 C   0  0  0  0  0  0  0  0  0  0  0  0
   20.9774   18.1129   18.4319 H   0  0  0  0  0  0  0  0  0  0  0  0
   22.2181   19.4523   18.7905 H   0  0  0  0  0  0  0  0  0  0  0  0
   20.4087   19.5501   19.8806 C   0  0  0  0  0  0  0  0  0  0  0  0
   20.6931   20.4508   20.4240 H   0  0  0  0  0  0  0  0  0  0  0  0
   19.0371   18.9959   20.2020 C   0  0  0  0  0  0  0  0  0  0  0  0
   18.7025   18.3400   19.3869 H   0  0  0  0  0  0  0  0  0  0  0  0
   18.3066   19.8140   20.2576 H   0  0  0  0  0  0  0  0  0  0  0  0
   19.0219   18.1924   21.5219 C   0  0  0  0  0  0  0  0  0  0  0  0
   18.0412   17.7094   21.6306 H   0  0  0  0  0  0  0  0  0  0  0  0
   19.7655   17.3854   21.4663 H   0  0  0  0  0  0  0  0  0  0  0  0
   19.2949   19.0715   22.7640 C   0  0  0  0  0  0  0  0  0  0  0  0
   18.5665   19.8932   22.8038 H   0  0  0  0  0  0  0  0  0  0  0  0
   20.2900   19.5302   22.6875 H   0  0  0  0  0  0  0  0  0  0  0  0
   19.2152   18.2535   24.0765 C   0  0  0  0  0  0  0  0  0  0  0  0
   18.2223   17.7998   24.1809 H   0  0  0  0  0  0  0  0  0  0  0  0
   19.9454   17.4355   24.0573 H   0  0  0  0  0  0  0  0  0  0  0  0
   19.4824   19.0980   25.3172 C   0  0  0  0  0  0  0  0  0  0  0  0
   20.6283   19.1944   25.7099 O   0  5  0  0  0  0  0  0  0  0  0  0
   18.5397   19.6516   25.8480 O   0  0  0  0  0  0  0  0  0  0  0  0
  1  2  1  0  0  0  0
  1  3  1  0  0  0  0
  1  4  2  0  0  0  0
  4  5  1  0  0  0  0
  4  6  1  0  0  0  0
  6  7  1  0  0  0  0
  6  8  1  0  0  0  0
  6  9  1  0  0  0  0
  9 10  1  0  0  0  0
  9 11  1  0  0  0  0
  9 12  1  0  0  0  0
 12 13  1  0  0  0  0
 12 14  1  0  0  0  0
 12 15  1  0  0  0  0
 15 16  1  0  0  0  0
 15 17  1  0  0  0  0
 15 18  1  0  0  0  0
 18 19  1  0  0  0  0
 18 20  2  0  0  0  0
M  END
> <VM2 Rank>
5

> <Conf_Id>
1093

> <Probability>
4.70

> <Sum Probability>
48.66

> <Delta G>
0.632

> <G>
-21.257

> <E>
-36.290

> <-TS>
15.033

> <U+W>
-52.387

> <U>
7.828

> <W>
-60.214

> <W(PB)>
-62.457

> <W(SA)>
2.242

> <Valence>
9.300

> <Coulomb>
-2.080

> <VdW>
0.608

> <VdW6>
-6.341

> <VdW12>
6.949

> <Bond>
0.104

> <Angle>
2.334

> <Pdih>
6.862

> <Idih>
0.001

> <Tether>
0.000

$$$$
VeraChem MOL file


 20 19  0  0  0  0  0  0  0  0999 V2000     
   19.7218   18.9159   18.3063 C   0  0  0  0  0  0  0  0  0  0  0  0
   18.7432   19.3930   18.3237 H   0  0  0  0  0  0  0  0  0  0  0  0
   20.2156   18.8208   17.3406 H   0  0  0  0  0  0  0  0  0  0  0  0
   20.2985   18.4655   19.4235 C   0  0  0  0  0  0  0  0  0  0  0  0
   21.2791   17.9917   19.3844 H   0  0  0  0  0  0  0  0  0  0  0  0
   19.6743   18.5615   20.7979 C   0  0  0  0  0  0  0  0  0  0  0  0
   19.7369   17.5831   21.2907 H   0  0  0  0  0  0  0  0  0  0  0  0
   18.6070   18.8072   20.7138 H   0  0  0  0  0  0  0  0  0  0  0  0
   20.3831   19.6339   21.6555 C   0  0  0  0  0  0  0  0  0  0  0  0
   21.4373   19.3579   21.7953 H   0  0  0  0  0  0  0  0  0  0  0  0
   20.3820   20.5845   21.1045 H   0  0  0  0  0  0  0  0  0  0  0  0
   19.7172   19.8615   23.0335 C   0  0  0  0  0  0  0  0  0  0  0  0
   18.6662   20.1506   22.8948 H   0  0  0  0  0  0  0  0  0  0  0  0
   20.2098   20.7111   23.5266 H   0  0  0  0  0  0  0  0  0  0  0  0
   19.7959   18.6282   23.9703 C   0  0  0  0  0  0  0  0  0  0  0  0
   19.2360   17.7859   23.5485 H   0  0  0  0  0  0  0  0  0  0  0  0
   20.8374   18.3038   24.0825 H   0  0  0  0  0  0  0  0  0  0  0  0
   19.2353   18.9075   25.3601 C   0  0  0  0  0  0  0  0  0  0  0  0
   19.9948   19.3259   26.2115 O   0  5  0  0  0  0  0  0  0  0  0  0
   18.0500   18.7181   25.5495 O   0  0  0  0  0  0  0  0  0  0  0  0
  1  2  1  0  0  0  0
  1  3  1  0  0  0  0
  1  4  2  0  0  0  0
  4  5  1  0  0  0  0
  4  6  1  0  0  0  0
  6  7  1  0  0  0  0
  6  8  1  0  0  0  0
  6  9  1  0  0  0  0
  9 10  1  0  0  0  0
  9 11  1  0  0  0  0
  9 12  1  0  0  0  0
 12 13  1  0  0  0  0
 12 14  1  0  0  0  0
 12 15  1  0  0  0  0
 15 16  1  0  0  0  0
 15 17  1  0  0  0  0
 15 18  1  0  0  0  0
 18 19  1  0  0  0  0
 18 20  2  0  0  0  0
M  END
> <VM2 Rank>
6

> <Conf_Id>
902

> <Probability>
3.95

> <Sum Probability>
52.60

> <Delta G>
0.737

> <G>
-21.153

> <E>
-36.159

> <-TS>
15.007

> <U+W>
-52.256

> <U>
7.491

> <W>
-59.747

> <W(PB)>
-61.973

> <W(SA)>
2.226

> <Valence>
9.604

> <Coulomb>
-2.799

> <VdW>
0.686

> <VdW6>
-6.435

> <VdW12>
7.121

> <Bond>
0.124

> <Angle>
2.493

> <Pdih>
6.986

> <Idih>
0.001

> <Tether>
0.000

$$$$
VeraChem MOL file


 20 19  0  0  0  0  0  0  0  0999 V2000     
   18.6388   19.5593   19.3942 C   0  0  0  0  0  0  0  0  0  0  0  0
   17.7306   19.2213   18.8984 H   0  0  0  0  0  0  0  0  0  0  0  0
   18.7026   20.6135   19.6590 H   0  0  0  0  0  0  0  0  0  0  0  0
   19.6324   18.7100   19.6688 C   0  0  0  0  0  0  0  0  0  0  0  0
   19.5476   17.6581   19.3975 H   0  0  0  0  0  0  0  0  0  0  0  0
   20.9226   19.1055   20.3552 C   0  0  0  0  0  0  0  0  0  0  0  0
   21.0131   20.1990   20.4079 H   0  0  0  0  0  0  0  0  0  0  0  0
   21.7713   18.7532   19.7540 H   0  0  0  0  0  0  0  0  0  0  0  0
   21.0368   18.5092   21.7762 C   0  0  0  0  0  0  0  0  0  0  0  0
   20.9454   17.4156   21.7234 H   0  0  0  0  0  0  0  0  0  0  0  0
   22.0397   18.7224   22.1707 H   0  0  0  0  0  0  0  0  0  0  0  0
   19.9772   19.0770   22.7481 C   0  0  0  0  0  0  0  0  0  0  0  0
   18.9687   18.8468   22.3780 H   0  0  0  0  0  0  0  0  0  0  0  0
   20.0593   20.1720   22.7864 H   0  0  0  0  0  0  0  0  0  0  0  0
   20.1380   18.5009   24.1765 C   0  0  0  0  0  0  0  0  0  0  0  0
   20.0458   17.4083   24.1563 H   0  0  0  0  0  0  0  0  0  0  0  0
   21.1343   18.7354   24.5699 H   0  0  0  0  0  0  0  0  0  0  0  0
   19.1032   19.0460   25.1544 C   0  0  0  0  0  0  0  0  0  0  0  0
   19.3625   20.0728   25.7504 O   0  5  0  0  0  0  0  0  0  0  0  0
   18.0595   18.4373   25.2841 O   0  0  0  0  0  0  0  0  0  0  0  0
  1  2  1  0  0  0  0
  1  3  1  0  0  0  0
  1  4  2  0  0  0  0
  4  5  1  0  0  0  0
  4  6  1  0  0  0  0
  6  7  1  0  0  0  0
  6  8  1  0  0  0  0
  6  9  1  0  0  0  0
  9 10  1  0  0  0  0
  9 11  1  0  0  0  0
  9 12  1  0  0  0  0
 12 13  1  0  0  0  0
 12 14  1  0  0  0  0
 12 15  1  0  0  0  0
 15 16  1  0  0  0  0
 15 17  1  0  0  0  0
 15 18  1  0  0  0  0
 18 19  1  0  0  0  0
 18 20  2  0  0  0  0
M  END
> <VM2 Rank>
7

> <Conf_Id>
1047

> <Probability>
3.86

> <Sum Probability>
56.46

> <Delta G>
0.750

> <G>
-21.140

> <E>
-36.251

> <-TS>
15.112

> <U+W>
-52.348

> <U>
8.428

> <W>
-60.776

> <W(PB)>
-62.984

> <W(SA)>
2.208

> <Valence>
9.231

> <Coulomb>
-1.304

> <VdW>
0.501

> <VdW6>
-6.515

> <VdW12>
7.016

> <Bond>
0.103

> <Angle>
2.328

> <Pdih>
6.799

> <Idih>
0.001

> <Tether>
0.000

$$$$
VeraChem MOL file


 20 19  0  0  0  0  0  0  0  0999 V2000     
   20.3964   17.5036   19.6232 C   0  0  0  0  0  0  0  0  0  0  0  0
   21.4118   17.4449   20.0117 H   0  0  0  0  0  0  0  0  0  0  0  0
   19.9723   16.5991   19.1905 H   0  0  0  0  0  0  0  0  0  0  0  0
   19.6938   18.6382   19.6769 C   0  0  0  0  0  0  0  0  0  0  0  0
   18.6779   18.6751   19.2846 H   0  0  0  0  0  0  0  0  0  0  0  0
   20.2150   19.9331   20.2631 C   0  0  0  0  0  0  0  0  0  0  0  0
   20.0722   20.7406   19.5327 H   0  0  0  0  0  0  0  0  0  0  0  0
   21.2964   19.8676   20.4449 H   0  0  0  0  0  0  0  0  0  0  0  0
   19.4934   20.3144   21.5753 C   0  0  0  0  0  0  0  0  0  0  0  0
   19.8215   21.3171   21.8820 H   0  0  0  0  0  0  0  0  0  0  0  0
   18.4118   20.3792   21.3935 H   0  0  0  0  0  0  0  0  0  0  0  0
   19.7731   19.3157   22.7216 C   0  0  0  0  0  0  0  0  0  0  0  0
   20.8562   19.2397   22.8901 H   0  0  0  0  0  0  0  0  0  0  0  0
   19.4248   18.3131   22.4374 H   0  0  0  0  0  0  0  0  0  0  0  0
   19.0781   19.7406   24.0386 C   0  0  0  0  0  0  0  0  0  0  0  0
   19.4261   20.7336   24.3475 H   0  0  0  0  0  0  0  0  0  0  0  0
   17.9938   19.8086   23.8892 H   0  0  0  0  0  0  0  0  0  0  0  0
   19.3389   18.7703   25.1851 C   0  0  0  0  0  0  0  0  0  0  0  0
   20.3231   18.9492   25.8751 O   0  5  0  0  0  0  0  0  0  0  0  0
   18.5591   17.8529   25.3492 O   0  0  0  0  0  0  0  0  0  0  0  0
  1  2  1  0  0  0  0
  1  3  1  0  0  0  0
  1  4  2  0  0  0  0
  4  5  1  0  0  0  0
  4  6  1  0  0  0  0
  6  7  1  0  0  0  0
  6  8  1  0  0  0  0
  6  9  1  0  0  0  0
  9 10  1  0  0  0  0
  9 11  1  0  0  0  0
  9 12  1  0  0  0  0
 12 13  1  0  0  0  0
 12 14  1  0  0  0  0
 12 15  1  0  0  0  0
 15 16  1  0  0  0  0
 15 17  1  0  0  0  0
 15 18  1  0  0  0  0
 18 19  1  0  0  0  0
 18 20  2  0  0  0  0
M  END
> <VM2 Rank>
8

> <Conf_Id>
712

> <Probability>
3.80

> <Sum Probability>
60.26

> <Delta G>
0.760

> <G>
-21.130

> <E>
-36.242

> <-TS>
15.112

> <U+W>
-52.338

> <U>
8.429

> <W>
-60.767

> <W(PB)>
-62.976

> <W(SA)>
2.209

> <Valence>
9.230

> <Coulomb>
-1.303

> <VdW>
0.502

> <VdW6>
-6.515

> <VdW12>
7.017

> <Bond>
0.103

> <Angle>
2.328

> <Pdih>
6.799

> <Idih>
0.000

> <Tether>
0.000

$$$$
