VeraChem MOL file


 17 16  0  0  0  0  0  0  0  0999 V2000     
   20.1216   19.0268   25.0643 C   0  0  0  0  0  0  0  0  0  0  0  0
   21.2292   19.3333   25.4595 O   0  5  0  0  0  0  0  0  0  0  0  0
   19.0984   19.5456   25.4655 O   0  0  0  0  0  0  0  0  0  0  0  0
   20.0077   17.9136   24.0272 C   0  0  0  0  0  0  0  0  0  0  0  0
   19.0748   17.3708   24.2188 H   0  0  0  0  0  0  0  0  0  0  0  0
   20.8163   17.1973   24.2139 H   0  0  0  0  0  0  0  0  0  0  0  0
   20.0480   18.3594   22.5719 C   0  0  0  0  0  0  0  0  0  0  0  0
   19.9642   17.5396   21.8613 H   0  0  0  0  0  0  0  0  0  0  0  0
   20.1730   19.6233   22.1416 C   0  0  0  0  0  0  0  0  0  0  0  0
   20.2564   20.4371   22.8608 H   0  0  0  0  0  0  0  0  0  0  0  0
   20.2152   20.0872   20.6950 C   0  0  0  0  0  0  0  0  0  0  0  0
   19.4084   20.8142   20.5309 H   0  0  0  0  0  0  0  0  0  0  0  0
   21.1490   20.6402   20.5259 H   0  0  0  0  0  0  0  0  0  0  0  0
   20.0998   18.9628   19.6420 C   0  0  0  0  0  0  0  0  0  0  0  0
   20.1387   19.3805   18.6276 H   0  0  0  0  0  0  0  0  0  0  0  0
   20.9238   18.2441   19.7410 H   0  0  0  0  0  0  0  0  0  0  0  0
   19.1504   18.4214   19.7460 H   0  0  0  0  0  0  0  0  0  0  0  0
  1  2  1  0  0  0  0
  1  3  2  0  0  0  0
  1  4  1  0  0  0  0
  4  5  1  0  0  0  0
  4  6  1  0  0  0  0
  4  7  1  0  0  0  0
  7  8  1  0  0  0  0
  7  9  2  0  0  0  0
  9 10  1  0  0  0  0
  9 11  1  0  0  0  0
 11 12  1  0  0  0  0
 11 13  1  0  0  0  0
 11 14  1  0  0  0  0
 14 15  1  0  0  0  0
 14 16  1  0  0  0  0
 14 17  1  0  0  0  0
M  END
> <VM2 Rank>
1

> <Conf_Id>
122

> <Probability>
14.28

> <Sum Probability>
14.28

> <Delta G>
0.000

> <G>
-26.661

> <E>
-36.827

> <-TS>
10.165

> <U+W>
-50.240

> <U>
14.007

> <W>
-64.247

> <W(PB)>
-66.286

> <W(SA)>
2.040

> <Valence>
12.998

> <Coulomb>
-0.405

> <VdW>
1.414

> <VdW6>
-5.682

> <VdW12>
7.096

> <Bond>
0.147

> <Angle>
3.367

> <Pdih>
9.484

> <Idih>
0.001

> <Tether>
0.000

$$$$
VeraChem MOL file


 17 16  0  0  0  0  0  0  0  0999 V2000     
   19.9358   19.0109   25.0042 C   0  0  0  0  0  0  0  0  0  0  0  0
   18.8065   18.5764   25.1174 O   0  5  0  0  0  0  0  0  0  0  0  0
   20.3108   20.0472   25.5166 O   0  0  0  0  0  0  0  0  0  0  0  0
   20.9447   18.1979   24.1988 C   0  0  0  0  0  0  0  0  0  0  0  0
   20.6933   17.1375   24.3173 H   0  0  0  0  0  0  0  0  0  0  0  0
   21.9287   18.3282   24.6640 H   0  0  0  0  0  0  0  0  0  0  0  0
   21.0312   18.5393   22.7180 C   0  0  0  0  0  0  0  0  0  0  0  0
   21.7573   17.9475   22.1620 H   0  0  0  0  0  0  0  0  0  0  0  0
   20.3101   19.4700   22.0818 C   0  0  0  0  0  0  0  0  0  0  0  0
   19.5768   20.0748   22.6139 H   0  0  0  0  0  0  0  0  0  0  0  0
   20.4358   19.7718   20.6049 C   0  0  0  0  0  0  0  0  0  0  0  0
   20.5204   20.8566   20.4544 H   0  0  0  0  0  0  0  0  0  0  0  0
   21.3528   19.3246   20.1971 H   0  0  0  0  0  0  0  0  0  0  0  0
   19.2181   19.2385   19.8253 C   0  0  0  0  0  0  0  0  0  0  0  0
   19.3140   19.4615   18.7547 H   0  0  0  0  0  0  0  0  0  0  0  0
   19.1279   18.1503   19.9402 H   0  0  0  0  0  0  0  0  0  0  0  0
   18.2893   19.6986   20.1874 H   0  0  0  0  0  0  0  0  0  0  0  0
  1  2  1  0  0  0  0
  1  3  2  0  0  0  0
  1  4  1  0  0  0  0
  4  5  1  0  0  0  0
  4  6  1  0  0  0  0
  4  7  1  0  0  0  0
  7  8  1  0  0  0  0
  7  9  2  0  0  0  0
  9 10  1  0  0  0  0
  9 11  1  0  0  0  0
 11 12  1  0  0  0  0
 11 13  1  0  0  0  0
 11 14  1  0  0  0  0
 14 15  1  0  0  0  0
 14 16  1  0  0  0  0
 14 17  1  0  0  0  0
M  END
> <VM2 Rank>
2

> <Conf_Id>
39

> <Probability>
12.36

> <Sum Probability>
26.64

> <Delta G>
0.086

> <G>
-26.576

> <E>
-36.435

> <-TS>
9.860

> <U+W>
-49.849

> <U>
14.465

> <W>
-64.314

> <W(PB)>
-66.406

> <W(SA)>
2.093

> <Valence>
14.072

> <Coulomb>
-0.199

> <VdW>
0.592

> <VdW6>
-5.019

> <VdW12>
5.611

> <Bond>
0.085

> <Angle>
2.748

> <Pdih>
11.238

> <Idih>
0.001

> <Tether>
0.000

$$$$
VeraChem MOL file


 17 16  0  0  0  0  0  0  0  0999 V2000     
   20.3002   18.9746   25.0032 C   0  0  0  0  0  0  0  0  0  0  0  0
   20.1397   20.0641   25.5173 O   0  5  0  0  0  0  0  0  0  0  0  0
   21.3224   18.3258   25.1103 O   0  0  0  0  0  0  0  0  0  0  0  0
   19.1464   18.3770   24.2037 C   0  0  0  0  0  0  0  0  0  0  0  0
   18.2100   18.6983   24.6744 H   0  0  0  0  0  0  0  0  0  0  0  0
   19.1845   17.2877   24.3211 H   0  0  0  0  0  0  0  0  0  0  0  0
   19.1207   18.7299   22.7233 C   0  0  0  0  0  0  0  0  0  0  0  0
   18.2889   18.2936   22.1717 H   0  0  0  0  0  0  0  0  0  0  0  0
   20.0079   19.5002   22.0827 C   0  0  0  0  0  0  0  0  0  0  0  0
   20.8494   19.9477   22.6104 H   0  0  0  0  0  0  0  0  0  0  0  0
   19.9361   19.8219   20.6064 C   0  0  0  0  0  0  0  0  0  0  0  0
   18.9464   19.5654   20.2040 H   0  0  0  0  0  0  0  0  0  0  0  0
   20.0670   20.9020   20.4558 H   0  0  0  0  0  0  0  0  0  0  0  0
   21.0196   19.0585   19.8201 C   0  0  0  0  0  0  0  0  0  0  0  0
   22.0231   19.3253   20.1767 H   0  0  0  0  0  0  0  0  0  0  0  0
   20.8932   17.9739   19.9350 H   0  0  0  0  0  0  0  0  0  0  0  0
   20.9637   19.2968   18.7500 H   0  0  0  0  0  0  0  0  0  0  0  0
  1  2  1  0  0  0  0
  1  3  2  0  0  0  0
  1  4  1  0  0  0  0
  4  5  1  0  0  0  0
  4  6  1  0  0  0  0
  4  7  1  0  0  0  0
  7  8  1  0  0  0  0
  7  9  2  0  0  0  0
  9 10  1  0  0  0  0
  9 11  1  0  0  0  0
 11 12  1  0  0  0  0
 11 13  1  0  0  0  0
 11 14  1  0  0  0  0
 14 15  1  0  0  0  0
 14 16  1  0  0  0  0
 14 17  1  0  0  0  0
M  END
> <VM2 Rank>
3

> <Conf_Id>
50

> <Probability>
11.89

> <Sum Probability>
38.53

> <Delta G>
0.109

> <G>
-26.552

> <E>
-36.412

> <-TS>
9.860

> <U+W>
-49.826

> <U>
14.465

> <W>
-64.290

> <W(PB)>
-66.371

> <W(SA)>
2.081

> <Valence>
14.072

> <Coulomb>
-0.199

> <VdW>
0.592

> <VdW6>
-5.019

> <VdW12>
5.611

> <Bond>
0.085

> <Angle>
2.748

> <Pdih>
11.238

> <Idih>
0.001

> <Tether>
0.000

$$$$
VeraChem MOL file


 17 16  0  0  0  0  0  0  0  0999 V2000     
   20.2302   19.0498   25.1478 C   0  0  0  0  0  0  0  0  0  0  0  0
   21.3843   18.9679   25.5197 O   0  5  0  0  0  0  0  0  0  0  0  0
   19.4242   19.8247   25.6239 O   0  0  0  0  0  0  0  0  0  0  0  0
   19.7685   18.1232   24.0307 C   0  0  0  0  0  0  0  0  0  0  0  0
   18.6811   18.0059   24.1099 H   0  0  0  0  0  0  0  0  0  0  0  0
   20.2111   17.1365   24.2097 H   0  0  0  0  0  0  0  0  0  0  0  0
   20.1637   18.6293   22.6562 C   0  0  0  0  0  0  0  0  0  0  0  0
   21.2342   18.6186   22.4587 H   0  0  0  0  0  0  0  0  0  0  0  0
   19.2894   19.0657   21.7409 C   0  0  0  0  0  0  0  0  0  0  0  0
   18.2256   19.0657   21.9762 H   0  0  0  0  0  0  0  0  0  0  0  0
   19.6147   19.5878   20.3516 C   0  0  0  0  0  0  0  0  0  0  0  0
   19.0778   18.9828   19.6084 H   0  0  0  0  0  0  0  0  0  0  0  0
   19.2127   20.6050   20.2500 H   0  0  0  0  0  0  0  0  0  0  0  0
   21.1179   19.6036   19.9963 C   0  0  0  0  0  0  0  0  0  0  0  0
   21.2693   19.9935   18.9813 H   0  0  0  0  0  0  0  0  0  0  0  0
   21.6797   20.2434   20.6894 H   0  0  0  0  0  0  0  0  0  0  0  0
   21.5424   18.5918   20.0345 H   0  0  0  0  0  0  0  0  0  0  0  0
  1  2  1  0  0  0  0
  1  3  2  0  0  0  0
  1  4  1  0  0  0  0
  4  5  1  0  0  0  0
  4  6  1  0  0  0  0
  4  7  1  0  0  0  0
  7  8  1  0  0  0  0
  7  9  2  0  0  0  0
  9 10  1  0  0  0  0
  9 11  1  0  0  0  0
 11 12  1  0  0  0  0
 11 13  1  0  0  0  0
 11 14  1  0  0  0  0
 14 15  1  0  0  0  0
 14 16  1  0  0  0  0
 14 17  1  0  0  0  0
M  END
> <VM2 Rank>
4

> <Conf_Id>
176

> <Probability>
11.60

> <Sum Probability>
50.13

> <Delta G>
0.124

> <G>
-26.538

> <E>
-36.512

> <-TS>
9.974

> <U+W>
-49.926

> <U>
13.863

> <W>
-63.789

> <W(PB)>
-65.858

> <W(SA)>
2.069

> <Valence>
14.117

> <Coulomb>
-1.228

> <VdW>
0.974

> <VdW6>
-4.885

> <VdW12>
5.858

> <Bond>
0.094

> <Angle>
2.818

> <Pdih>
11.205

> <Idih>
0.000

> <Tether>
0.000

$$$$
VeraChem MOL file


 17 16  0  0  0  0  0  0  0  0999 V2000     
   20.1142   18.9945   25.2590 C   0  0  0  0  0  0  0  0  0  0  0  0
   21.1853   19.4018   25.6635 O   0  5  0  0  0  0  0  0  0  0  0  0
   19.0546   19.2358   25.8031 O   0  0  0  0  0  0  0  0  0  0  0  0
   20.0970   18.1295   24.0056 C   0  0  0  0  0  0  0  0  0  0  0  0
   19.3782   17.3181   24.1684 H   0  0  0  0  0  0  0  0  0  0  0  0
   21.0846   17.6659   23.8951 H   0  0  0  0  0  0  0  0  0  0  0  0
   19.7230   18.9149   22.7629 C   0  0  0  0  0  0  0  0  0  0  0  0
   18.6941   19.2720   22.7306 H   0  0  0  0  0  0  0  0  0  0  0  0
   20.5643   19.1755   21.7576 C   0  0  0  0  0  0  0  0  0  0  0  0
   21.5939   18.8207   21.7920 H   0  0  0  0  0  0  0  0  0  0  0  0
   20.1907   19.9620   20.5210 C   0  0  0  0  0  0  0  0  0  0  0  0
   19.2415   20.4934   20.6756 H   0  0  0  0  0  0  0  0  0  0  0  0
   20.9527   20.7284   20.3250 H   0  0  0  0  0  0  0  0  0  0  0  0
   20.0639   19.0379   19.2942 C   0  0  0  0  0  0  0  0  0  0  0  0
   19.2884   18.2778   19.4571 H   0  0  0  0  0  0  0  0  0  0  0  0
   19.7935   19.6143   18.4000 H   0  0  0  0  0  0  0  0  0  0  0  0
   21.0118   18.5218   19.0930 H   0  0  0  0  0  0  0  0  0  0  0  0
  1  2  1  0  0  0  0
  1  3  2  0  0  0  0
  1  4  1  0  0  0  0
  4  5  1  0  0  0  0
  4  6  1  0  0  0  0
  4  7  1  0  0  0  0
  7  8  1  0  0  0  0
  7  9  2  0  0  0  0
  9 10  1  0  0  0  0
  9 11  1  0  0  0  0
 11 12  1  0  0  0  0
 11 13  1  0  0  0  0
 11 14  1  0  0  0  0
 14 15  1  0  0  0  0
 14 16  1  0  0  0  0
 14 17  1  0  0  0  0
M  END
> <VM2 Rank>
5

> <Conf_Id>
44

> <Probability>
10.74

> <Sum Probability>
60.87

> <Delta G>
0.170

> <G>
-26.492

> <E>
-36.127

> <-TS>
9.636

> <U+W>
-49.541

> <U>
13.666

> <W>
-63.207

> <W(PB)>
-65.297

> <W(SA)>
2.090

> <Valence>
15.226

> <Coulomb>
-1.822

> <VdW>
0.261

> <VdW6>
-4.165

> <VdW12>
4.426

> <Bond>
0.044

> <Angle>
2.229

> <Pdih>
12.953

> <Idih>
0.000

> <Tether>
0.000

$$$$
VeraChem MOL file


 17 16  0  0  0  0  0  0  0  0999 V2000     
   20.0343   18.8557   25.1338 C   0  0  0  0  0  0  0  0  0  0  0  0
   20.0799   17.6769   25.4258 O   0  5  0  0  0  0  0  0  0  0  0  0
   19.2332   19.6355   25.6103 O   0  0  0  0  0  0  0  0  0  0  0  0
   21.0426   19.3843   24.1221 C   0  0  0  0  0  0  0  0  0  0  0  0
   22.0104   18.9175   24.3388 H   0  0  0  0  0  0  0  0  0  0  0  0
   21.1622   20.4617   24.2880 H   0  0  0  0  0  0  0  0  0  0  0  0
   20.6341   19.0950   22.6900 C   0  0  0  0  0  0  0  0  0  0  0  0
   20.6510   18.0414   22.4168 H   0  0  0  0  0  0  0  0  0  0  0  0
   20.2718   20.0382   21.8115 C   0  0  0  0  0  0  0  0  0  0  0  0
   20.2630   21.0823   22.1225 H   0  0  0  0  0  0  0  0  0  0  0  0
   19.8492   19.8199   20.3684 C   0  0  0  0  0  0  0  0  0  0  0  0
   18.8451   20.2410   20.2236 H   0  0  0  0  0  0  0  0  0  0  0  0
   20.5104   20.4010   19.7113 H   0  0  0  0  0  0  0  0  0  0  0  0
   19.8480   18.3464   19.9050 C   0  0  0  0  0  0  0  0  0  0  0  0
   19.5316   18.2730   18.8564 H   0  0  0  0  0  0  0  0  0  0  0  0
   20.8511   17.9074   19.9849 H   0  0  0  0  0  0  0  0  0  0  0  0
   19.1554   17.7445   20.5080 H   0  0  0  0  0  0  0  0  0  0  0  0
  1  2  1  0  0  0  0
  1  3  2  0  0  0  0
  1  4  1  0  0  0  0
  4  5  1  0  0  0  0
  4  6  1  0  0  0  0
  4  7  1  0  0  0  0
  7  8  1  0  0  0  0
  7  9  2  0  0  0  0
  9 10  1  0  0  0  0
  9 11  1  0  0  0  0
 11 12  1  0  0  0  0
 11 13  1  0  0  0  0
 11 14  1  0  0  0  0
 14 15  1  0  0  0  0
 14 16  1  0  0  0  0
 14 17  1  0  0  0  0
M  END
> <VM2 Rank>
6

> <Conf_Id>
54

> <Probability>
10.65

> <Sum Probability>
71.52

> <Delta G>
0.175

> <G>
-26.487

> <E>
-36.461

> <-TS>
9.974

> <U+W>
-49.875

> <U>
13.864

> <W>
-63.738

> <W(PB)>
-65.802

> <W(SA)>
2.064

> <Valence>
14.117

> <Coulomb>
-1.227

> <VdW>
0.974

> <VdW6>
-4.885

> <VdW12>
5.859

> <Bond>
0.094

> <Angle>
2.817

> <Pdih>
11.205

> <Idih>
0.000

> <Tether>
0.000

$$$$
VeraChem MOL file


 17 16  0  0  0  0  0  0  0  0999 V2000     
   20.1102   18.9989   25.2592 C   0  0  0  0  0  0  0  0  0  0  0  0
   20.6754   19.9845   25.6904 O   0  5  0  0  0  0  0  0  0  0  0  0
   20.2330   17.8896   25.7402 O   0  0  0  0  0  0  0  0  0  0  0  0
   19.1936   19.1614   24.0538 C   0  0  0  0  0  0  0  0  0  0  0  0
   18.8611   20.2057   24.0139 H   0  0  0  0  0  0  0  0  0  0  0  0
   18.3020   18.5474   24.2259 H   0  0  0  0  0  0  0  0  0  0  0  0
   19.8637   18.7542   22.7554 C   0  0  0  0  0  0  0  0  0  0  0  0
   20.0786   17.6906   22.6566 H   0  0  0  0  0  0  0  0  0  0  0  0
   20.1873   19.6061   21.7778 C   0  0  0  0  0  0  0  0  0  0  0  0
   19.9750   20.6700   21.8786 H   0  0  0  0  0  0  0  0  0  0  0  0
   20.8591   19.1989   20.4855 C   0  0  0  0  0  0  0  0  0  0  0  0
   21.7101   19.8637   20.2846 H   0  0  0  0  0  0  0  0  0  0  0  0
   21.2663   18.1817   20.5679 H   0  0  0  0  0  0  0  0  0  0  0  0
   19.8707   19.2584   19.3047 C   0  0  0  0  0  0  0  0  0  0  0  0
   20.3640   18.9625   18.3697 H   0  0  0  0  0  0  0  0  0  0  0  0
   19.0227   18.5812   19.4715 H   0  0  0  0  0  0  0  0  0  0  0  0
   19.4763   20.2748   19.1748 H   0  0  0  0  0  0  0  0  0  0  0  0
  1  2  1  0  0  0  0
  1  3  2  0  0  0  0
  1  4  1  0  0  0  0
  4  5  1  0  0  0  0
  4  6  1  0  0  0  0
  4  7  1  0  0  0  0
  7  8  1  0  0  0  0
  7  9  2  0  0  0  0
  9 10  1  0  0  0  0
  9 11  1  0  0  0  0
 11 12  1  0  0  0  0
 11 13  1  0  0  0  0
 11 14  1  0  0  0  0
 14 15  1  0  0  0  0
 14 16  1  0  0  0  0
 14 17  1  0  0  0  0
M  END
> <VM2 Rank>
7

> <Conf_Id>
80

> <Probability>
10.56

> <Sum Probability>
82.09

> <Delta G>
0.180

> <G>
-26.482

> <E>
-36.117

> <-TS>
9.636

> <U+W>
-49.531

> <U>
13.666

> <W>
-63.197

> <W(PB)>
-65.301

> <W(SA)>
2.103

> <Valence>
15.226

> <Coulomb>
-1.821

> <VdW>
0.261

> <VdW6>
-4.165

> <VdW12>
4.426

> <Bond>
0.044

> <Angle>
2.229

> <Pdih>
12.953

> <Idih>
0.000

> <Tether>
0.000

$$$$
VeraChem MOL file


 17 16  0  0  0  0  0  0  0  0999 V2000     
   20.1632   19.1351   25.1460 C   0  0  0  0  0  0  0  0  0  0  0  0
   21.2733   19.5660   25.3887 O   0  5  0  0  0  0  0  0  0  0  0  0
   19.1532   19.5352   25.6907 O   0  0  0  0  0  0  0  0  0  0  0  0
   20.0293   18.0258   24.1109 C   0  0  0  0  0  0  0  0  0  0  0  0
   19.3074   17.2957   24.4945 H   0  0  0  0  0  0  0  0  0  0  0  0
   20.9947   17.5116   24.0321 H   0  0  0  0  0  0  0  0  0  0  0  0
   19.5774   18.5443   22.7590 C   0  0  0  0  0  0  0  0  0  0  0  0
   18.5594   18.9313   22.7259 H   0  0  0  0  0  0  0  0  0  0  0  0
   20.3429   18.5522   21.6634 C   0  0  0  0  0  0  0  0  0  0  0  0
   21.3625   18.1699   21.6983 H   0  0  0  0  0  0  0  0  0  0  0  0
   19.8913   19.0724   20.3170 C   0  0  0  0  0  0  0  0  0  0  0  0
   20.1389   18.3418   19.5350 H   0  0  0  0  0  0  0  0  0  0  0  0
   18.7997   19.1959   20.2990 H   0  0  0  0  0  0  0  0  0  0  0  0
   20.5624   20.4209   19.9914 C   0  0  0  0  0  0  0  0  0  0  0  0
   21.6551   20.3182   19.9643 H   0  0  0  0  0  0  0  0  0  0  0  0
   20.2309   20.7940   19.0136 H   0  0  0  0  0  0  0  0  0  0  0  0
   20.3086   21.1752   20.7479 H   0  0  0  0  0  0  0  0  0  0  0  0
  1  2  1  0  0  0  0
  1  3  2  0  0  0  0
  1  4  1  0  0  0  0
  4  5  1  0  0  0  0
  4  6  1  0  0  0  0
  4  7  1  0  0  0  0
  7  8  1  0  0  0  0
  7  9  2  0  0  0  0
  9 10  1  0  0  0  0
  9 11  1  0  0  0  0
 11 12  1  0  0  0  0
 11 13  1  0  0  0  0
 11 14  1  0  0  0  0
 14 15  1  0  0  0  0
 14 16  1  0  0  0  0
 14 17  1  0  0  0  0
M  END
> <VM2 Rank>
8

> <Conf_Id>
52

> <Probability>
9.33

> <Sum Probability>
91.42

> <Delta G>
0.254

> <G>
-26.408

> <E>
-36.054

> <-TS>
9.646

> <U+W>
-49.468

> <U>
14.121

> <W>
-63.589

> <W(PB)>
-65.659

> <W(SA)>
2.071

> <Valence>
15.230

> <Coulomb>
-1.333

> <VdW>
0.224

> <VdW6>
-4.212

> <VdW12>
4.436

> <Bond>
0.044

> <Angle>
2.230

> <Pdih>
12.956

> <Idih>
0.000

> <Tether>
0.000

$$$$
