@<TRIPOS>MOLECULE
guest-5_vm2.mol2 : vm2 ligand conformer 1
          22          22           1
SMALL
USER_CHARGES
 
@<TRIPOS>ATOM
       1    C1      19.882535   19.048999   20.902624 C.3        1 MOL1        -0.1685
       2    H1      20.893230   19.156633   20.485862 H          1 MOL1         0.0832
       3    H2      19.282408   18.576005   20.113372 H          1 MOL1         0.0832
       4    C2      19.291672   20.449262   21.183590 C.3        1 MOL1        -0.1685
       5    H3      19.360990   21.041179   20.260755 H          1 MOL1         0.0832
       6    H4      18.218524   20.355835   21.398981 H          1 MOL1         0.0832
       7    C3      19.980590   21.234442   22.324931 C.3        1 MOL1        -0.1685
       8    H5      19.622356   22.271965   22.279933 H          1 MOL1         0.0832
       9    H6      21.066945   21.280335   22.168766 H          1 MOL1         0.0832
      10    C4      19.646656   20.673246   23.728259 C.3        1 MOL1        -0.1761
      11    H7      19.718536   21.490454   24.457739 H          1 MOL1         0.0832
      12    H8      18.597373   20.350654   23.748682 H          1 MOL1         0.0832
      13    C5      20.564414   19.531300   24.223444 C.3        1 MOL1         0.1218
      14    H9      21.477121   19.984934   24.635843 H          1 MOL1         0.0789
      15    C6      21.006781   18.501832   23.157795 C.3        1 MOL1        -0.1761
      16    H10     21.888360   18.889429   22.631169 H          1 MOL1         0.0832
      17    H11     21.356377   17.599090   23.676650 H          1 MOL1         0.0832
      18    C7      19.926457   18.100052   22.123475 C.3        1 MOL1        -0.1685
      19    H12     20.166005   17.093096   21.755489 H          1 MOL1         0.0832
      20    H13     18.937096   18.024843   22.593952 H          1 MOL1         0.0832
      21    O1      19.886896   18.838866   25.262881 O.3        1 MOL1        -0.5509
      22    H14     19.142196   18.371511   24.832697 H          1 MOL1         0.3779
@<TRIPOS>BOND
    1     1     2    1
    2     1     3    1
    3     1     4    1
    4     4     5    1
    5     4     6    1
    6     4     7    1
    7     7     8    1
    8     7     9    1
    9     7    10    1
   10    10    11    1
   11    10    12    1
   12    10    13    1
   13    13    14    1
   14    13    15    1
   15    15    16    1
   16    15    17    1
   17     1    18    1
   18    15    18    1
   19    18    19    1
   20    18    20    1
   21    13    21    1
   22    21    22    1
@<TRIPOS>SUBSTRUCTURE
       1 MOL1            1 RESIDUE      1      MOL     
@<SCITEGIC>MOL_PROPERTY
VM2 Rank
SciTegic.value.IntegerValue
1

@<SCITEGIC>MOL_PROPERTY
Conf_Id
SciTegic.value.IntegerValue
1132

@<SCITEGIC>MOL_PROPERTY
Probability
SciTegic.value.DoubleValue
7.58

@<SCITEGIC>MOL_PROPERTY
Sum Probability
SciTegic.value.DoubleValue
7.58

@<SCITEGIC>MOL_PROPERTY
Delta G
SciTegic.value.DoubleValue
0.000

@<SCITEGIC>MOL_PROPERTY
G
SciTegic.value.DoubleValue
47.363

@<SCITEGIC>MOL_PROPERTY
E
SciTegic.value.DoubleValue
20.694

@<SCITEGIC>MOL_PROPERTY
-TS
SciTegic.value.DoubleValue
26.668

@<SCITEGIC>MOL_PROPERTY
U+W
SciTegic.value.DoubleValue
2.809

@<SCITEGIC>MOL_PROPERTY
U
SciTegic.value.DoubleValue
4.530

@<SCITEGIC>MOL_PROPERTY
W
SciTegic.value.DoubleValue
-1.721

@<SCITEGIC>MOL_PROPERTY
W(PB)
SciTegic.value.DoubleValue
-3.723

@<SCITEGIC>MOL_PROPERTY
W(SA)
SciTegic.value.DoubleValue
2.002

@<SCITEGIC>MOL_PROPERTY
Valence
SciTegic.value.DoubleValue
12.224

@<SCITEGIC>MOL_PROPERTY
Coulomb
SciTegic.value.DoubleValue
-9.755

@<SCITEGIC>MOL_PROPERTY
VdW
SciTegic.value.DoubleValue
2.062

@<SCITEGIC>MOL_PROPERTY
VdW6
SciTegic.value.DoubleValue
-9.196

@<SCITEGIC>MOL_PROPERTY
VdW12
SciTegic.value.DoubleValue
11.257

@<SCITEGIC>MOL_PROPERTY
Bond
SciTegic.value.DoubleValue
0.216

@<SCITEGIC>MOL_PROPERTY
Angle
SciTegic.value.DoubleValue
2.754

@<SCITEGIC>MOL_PROPERTY
Pdih
SciTegic.value.DoubleValue
9.253

@<SCITEGIC>MOL_PROPERTY
Idih
SciTegic.value.DoubleValue
0.000

@<SCITEGIC>MOL_PROPERTY
Tether
SciTegic.value.DoubleValue
0.000

