@<TRIPOS>MOLECULE
guest-8_vm2.mol2 : vm2 ligand conformer 1
          25          24           1
SMALL
USER_CHARGES
 
@<TRIPOS>ATOM
       1    C1      20.160093   19.340144   27.808437 C.2        1 MOL1         0.6168
       2    O1      21.215706   19.704989   28.287176 O.co2      1 MOL1        -0.6703
       3    O2      19.077743   19.569007   28.311191 O.co2      1 MOL1        -0.6703
       4    C2      20.194138   18.572403   26.491816 C.3        1 MOL1        -0.1963
       5    H1      19.354716   17.866745   26.487218 H          1 MOL1         0.0750
       6    H2      21.116370   17.979547   26.466963 H          1 MOL1         0.0750
       7    C3      20.120555   19.499060   25.253305 C.3        1 MOL1        -0.1860
       8    H3      19.198437   20.094955   25.300219 H          1 MOL1         0.0752
       9    H4      20.959971   20.207765   25.279946 H          1 MOL1         0.0752
      10    C4      20.156617   18.698625   23.933449 C.3        1 MOL1        -0.1858
      11    H5      19.317089   17.990213   23.910574 H          1 MOL1         0.0752
      12    H6      21.079011   18.103228   23.890161 H          1 MOL1         0.0752
      13    C5      20.082898   19.624965   22.700598 C.3        1 MOL1        -0.1858
      14    H7      19.160571   20.220414   22.743675 H          1 MOL1         0.0752
      15    H8      20.922349   20.333425   22.723226 H          1 MOL1         0.0752
      16    C6      20.118870   18.825210   21.380380 C.3        1 MOL1        -0.1858
      17    H9      19.279514   18.116654   21.357444 H          1 MOL1         0.0752
      18    H10     21.041150   18.229718   21.336953 H          1 MOL1         0.0752
      19    C7      20.045114   19.750974   20.147951 C.3        1 MOL1        -0.1834
      20    H11     19.122762   20.346989   20.186975 H          1 MOL1         0.0752
      21    H12     20.884390   20.460031   20.166460 H          1 MOL1         0.0752
      22    C8      20.081265   18.948622   18.831696 C.3        1 MOL1        -0.2849
      23    H13     19.234002   18.252907   18.772332 H          1 MOL1         0.0764
      24    H14     20.027959   19.622106   17.966442 H          1 MOL1         0.0764
      25    H15     21.008887   18.366808   18.751644 H          1 MOL1         0.0764
@<TRIPOS>BOND
    1     1     2    1
    2     1     3    2
    3     1     4    1
    4     4     5    1
    5     4     6    1
    6     4     7    1
    7     7     8    1
    8     7     9    1
    9     7    10    1
   10    10    11    1
   11    10    12    1
   12    10    13    1
   13    13    14    1
   14    13    15    1
   15    13    16    1
   16    16    17    1
   17    16    18    1
   18    16    19    1
   19    19    20    1
   20    19    21    1
   21    19    22    1
   22    22    23    1
   23    22    24    1
   24    22    25    1
@<TRIPOS>SUBSTRUCTURE
       1 MOL1            1 RESIDUE      1      MOL     
@<SCITEGIC>MOL_PROPERTY
VM2 Rank
SciTegic.value.IntegerValue
1

@<SCITEGIC>MOL_PROPERTY
Conf_Id
SciTegic.value.IntegerValue
348

@<SCITEGIC>MOL_PROPERTY
Probability
SciTegic.value.DoubleValue
22.97

@<SCITEGIC>MOL_PROPERTY
Sum Probability
SciTegic.value.DoubleValue
22.97

@<SCITEGIC>MOL_PROPERTY
Delta G
SciTegic.value.DoubleValue
0.000

@<SCITEGIC>MOL_PROPERTY
G
SciTegic.value.DoubleValue
-7.962

@<SCITEGIC>MOL_PROPERTY
E
SciTegic.value.DoubleValue
-32.361

@<SCITEGIC>MOL_PROPERTY
-TS
SciTegic.value.DoubleValue
24.399

@<SCITEGIC>MOL_PROPERTY
U+W
SciTegic.value.DoubleValue
-52.928

@<SCITEGIC>MOL_PROPERTY
U
SciTegic.value.DoubleValue
5.617

@<SCITEGIC>MOL_PROPERTY
W
SciTegic.value.DoubleValue
-58.544

@<SCITEGIC>MOL_PROPERTY
W(PB)
SciTegic.value.DoubleValue
-61.064

@<SCITEGIC>MOL_PROPERTY
W(SA)
SciTegic.value.DoubleValue
2.520

@<SCITEGIC>MOL_PROPERTY
Valence
SciTegic.value.DoubleValue
7.531

@<SCITEGIC>MOL_PROPERTY
Coulomb
SciTegic.value.DoubleValue
-2.818

@<SCITEGIC>MOL_PROPERTY
VdW
SciTegic.value.DoubleValue
0.904

@<SCITEGIC>MOL_PROPERTY
VdW6
SciTegic.value.DoubleValue
-7.640

@<SCITEGIC>MOL_PROPERTY
VdW12
SciTegic.value.DoubleValue
8.544

@<SCITEGIC>MOL_PROPERTY
Bond
SciTegic.value.DoubleValue
0.115

@<SCITEGIC>MOL_PROPERTY
Angle
SciTegic.value.DoubleValue
2.271

@<SCITEGIC>MOL_PROPERTY
Pdih
SciTegic.value.DoubleValue
5.144

@<SCITEGIC>MOL_PROPERTY
Idih
SciTegic.value.DoubleValue
0.001

@<SCITEGIC>MOL_PROPERTY
Tether
SciTegic.value.DoubleValue
0.000

