VeraChem MOL file


 16 15  0  0  0  0  0  0  0  0999 V2000     
   20.0718   19.4318   24.6567 C   0  0  0  0  0  0  0  0  0  0  0  0
   20.4841   20.5080   25.0408 O   0  5  0  0  0  0  0  0  0  0  0  0
   19.2403   18.7784   25.2547 O   0  0  0  0  0  0  0  0  0  0  0  0
   20.6140   18.8794   23.3431 C   0  0  0  0  0  0  0  0  0  0  0  0
   20.6286   17.7851   23.4135 H   0  0  0  0  0  0  0  0  0  0  0  0
   21.6540   19.2111   23.2371 H   0  0  0  0  0  0  0  0  0  0  0  0
   19.7839   19.3242   22.1138 C   0  0  0  0  0  0  0  0  0  0  0  0
   18.7430   18.9958   22.2406 H   0  0  0  0  0  0  0  0  0  0  0  0
   19.7683   20.4219   22.0642 H   0  0  0  0  0  0  0  0  0  0  0  0
   20.3534   18.7522   20.7989 C   0  0  0  0  0  0  0  0  0  0  0  0
   20.3686   17.6545   20.8479 H   0  0  0  0  0  0  0  0  0  0  0  0
   21.3942   19.0810   20.6715 H   0  0  0  0  0  0  0  0  0  0  0  0
   19.5224   19.1989   19.5799 C   0  0  0  0  0  0  0  0  0  0  0  0
   19.5162   20.2930   19.4885 H   0  0  0  0  0  0  0  0  0  0  0  0
   18.4830   18.8560   19.6662 H   0  0  0  0  0  0  0  0  0  0  0  0
   19.9406   18.7838   18.6537 H   0  0  0  0  0  0  0  0  0  0  0  0
  1  2  1  0  0  0  0
  1  3  2  0  0  0  0
  1  4  1  0  0  0  0
  4  5  1  0  0  0  0
  4  6  1  0  0  0  0
  4  7  1  0  0  0  0
  7  8  1  0  0  0  0
  7  9  1  0  0  0  0
  7 10  1  0  0  0  0
 10 11  1  0  0  0  0
 10 12  1  0  0  0  0
 10 13  1  0  0  0  0
 13 14  1  0  0  0  0
 13 15  1  0  0  0  0
 13 16  1  0  0  0  0
M  END
> <VM2 Rank>
1

> <Conf_Id>
166

> <Probability>
57.83

> <Sum Probability>
57.83

> <Delta G>
0.000

> <G>
-35.660

> <E>
-45.569

> <-TS>
9.910

> <U+W>
-58.089

> <U>
6.298

> <W>
-64.387

> <W(PB)>
-66.329

> <W(SA)>
1.942

> <Valence>
6.246

> <Coulomb>
-0.408

> <VdW>
0.460

> <VdW6>
-4.207

> <VdW12>
4.667

> <Bond>
0.072

> <Angle>
2.246

> <Pdih>
3.928

> <Idih>
0.001

> <Tether>
0.000

$$$$
VeraChem MOL file


 16 15  0  0  0  0  0  0  0  0999 V2000     
   20.0738   19.3291   24.5704 C   0  0  0  0  0  0  0  0  0  0  0  0
   20.7531   20.1563   25.1452 O   0  5  0  0  0  0  0  0  0  0  0  0
   19.1098   18.7860   25.0719 O   0  0  0  0  0  0  0  0  0  0  0  0
   20.4399   18.9678   23.1351 C   0  0  0  0  0  0  0  0  0  0  0  0
   20.1775   17.9154   22.9779 H   0  0  0  0  0  0  0  0  0  0  0  0
   21.5283   19.0509   23.0300 H   0  0  0  0  0  0  0  0  0  0  0  0
   19.7319   19.8680   22.0894 C   0  0  0  0  0  0  0  0  0  0  0  0
   18.6436   19.7439   22.1758 H   0  0  0  0  0  0  0  0  0  0  0  0
   19.9446   20.9195   22.3269 H   0  0  0  0  0  0  0  0  0  0  0  0
   20.1756   19.5876   20.6351 C   0  0  0  0  0  0  0  0  0  0  0  0
   21.2624   19.7231   20.5458 H   0  0  0  0  0  0  0  0  0  0  0  0
   19.7141   20.3348   19.9748 H   0  0  0  0  0  0  0  0  0  0  0  0
   19.7858   18.1782   20.1408 C   0  0  0  0  0  0  0  0  0  0  0  0
   18.7063   18.0090   20.2475 H   0  0  0  0  0  0  0  0  0  0  0  0
   20.3143   17.3965   20.7008 H   0  0  0  0  0  0  0  0  0  0  0  0
   20.0433   18.0588   19.0804 H   0  0  0  0  0  0  0  0  0  0  0  0
  1  2  1  0  0  0  0
  1  3  2  0  0  0  0
  1  4  1  0  0  0  0
  4  5  1  0  0  0  0
  4  6  1  0  0  0  0
  4  7  1  0  0  0  0
  7  8  1  0  0  0  0
  7  9  1  0  0  0  0
  7 10  1  0  0  0  0
 10 11  1  0  0  0  0
 10 12  1  0  0  0  0
 10 13  1  0  0  0  0
 13 14  1  0  0  0  0
 13 15  1  0  0  0  0
 13 16  1  0  0  0  0
M  END
> <VM2 Rank>
2

> <Conf_Id>
184

> <Probability>
14.72

> <Sum Probability>
72.55

> <Delta G>
0.816

> <G>
-34.844

> <E>
-44.867

> <-TS>
10.023

> <U+W>
-57.386

> <U>
7.263

> <W>
-64.649

> <W(PB)>
-66.544

> <W(SA)>
1.895

> <Valence>
6.734

> <Coulomb>
-0.069

> <VdW>
0.598

> <VdW6>
-4.819

> <VdW12>
5.417

> <Bond>
0.107

> <Angle>
2.469

> <Pdih>
4.157

> <Idih>
0.001

> <Tether>
0.000

$$$$
VeraChem MOL file


 16 15  0  0  0  0  0  0  0  0999 V2000     
   19.9194   19.5237   24.5497 C   0  0  0  0  0  0  0  0  0  0  0  0
   20.8187   20.0734   25.1539 O   0  5  0  0  0  0  0  0  0  0  0  0
   19.1179   18.7757   25.0731 O   0  0  0  0  0  0  0  0  0  0  0  0
   19.8031   19.7705   23.0496 C   0  0  0  0  0  0  0  0  0  0  0  0
   20.1476   20.7912   22.8448 H   0  0  0  0  0  0  0  0  0  0  0  0
   18.7405   19.7267   22.7850 H   0  0  0  0  0  0  0  0  0  0  0  0
   20.6166   18.7531   22.2082 C   0  0  0  0  0  0  0  0  0  0  0  0
   21.6586   18.7595   22.5570 H   0  0  0  0  0  0  0  0  0  0  0  0
   20.2346   17.7389   22.3894 H   0  0  0  0  0  0  0  0  0  0  0  0
   20.5985   19.0547   20.6919 C   0  0  0  0  0  0  0  0  0  0  0  0
   21.2818   18.3591   20.1853 H   0  0  0  0  0  0  0  0  0  0  0  0
   20.9915   20.0644   20.5094 H   0  0  0  0  0  0  0  0  0  0  0  0
   19.1957   18.9219   20.0616 C   0  0  0  0  0  0  0  0  0  0  0  0
   18.7700   17.9288   20.2561 H   0  0  0  0  0  0  0  0  0  0  0  0
   19.2493   19.0594   18.9739 H   0  0  0  0  0  0  0  0  0  0  0  0
   18.5050   19.6767   20.4579 H   0  0  0  0  0  0  0  0  0  0  0  0
  1  2  1  0  0  0  0
  1  3  2  0  0  0  0
  1  4  1  0  0  0  0
  4  5  1  0  0  0  0
  4  6  1  0  0  0  0
  4  7  1  0  0  0  0
  7  8  1  0  0  0  0
  7  9  1  0  0  0  0
  7 10  1  0  0  0  0
 10 11  1  0  0  0  0
 10 12  1  0  0  0  0
 10 13  1  0  0  0  0
 13 14  1  0  0  0  0
 13 15  1  0  0  0  0
 13 16  1  0  0  0  0
M  END
> <VM2 Rank>
3

> <Conf_Id>
170

> <Probability>
13.45

> <Sum Probability>
86.00

> <Delta G>
0.870

> <G>
-34.790

> <E>
-44.813

> <-TS>
10.023

> <U+W>
-57.333

> <U>
7.263

> <W>
-64.596

> <W(PB)>
-66.514

> <W(SA)>
1.918

> <Valence>
6.734

> <Coulomb>
-0.068

> <VdW>
0.598

> <VdW6>
-4.819

> <VdW12>
5.417

> <Bond>
0.107

> <Angle>
2.469

> <Pdih>
4.157

> <Idih>
0.001

> <Tether>
0.000

$$$$
VeraChem MOL file


 16 15  0  0  0  0  0  0  0  0999 V2000     
   20.1071   19.3611   24.4385 C   0  0  0  0  0  0  0  0  0  0  0  0
   20.9072   20.1992   24.8041 O   0  5  0  0  0  0  0  0  0  0  0  0
   20.1123   18.2116   24.8320 O   0  0  0  0  0  0  0  0  0  0  0  0
   19.0237   19.7832   23.4497 C   0  0  0  0  0  0  0  0  0  0  0  0
   18.6135   20.7377   23.8001 H   0  0  0  0  0  0  0  0  0  0  0  0
   18.2068   19.0525   23.4917 H   0  0  0  0  0  0  0  0  0  0  0  0
   19.5260   19.9407   21.9910 C   0  0  0  0  0  0  0  0  0  0  0  0
   18.7223   20.3770   21.3825 H   0  0  0  0  0  0  0  0  0  0  0  0
   20.3621   20.6534   21.9686 H   0  0  0  0  0  0  0  0  0  0  0  0
   19.9657   18.5989   21.3662 C   0  0  0  0  0  0  0  0  0  0  0  0
   19.1325   17.8834   21.4004 H   0  0  0  0  0  0  0  0  0  0  0  0
   20.7842   18.1625   21.9556 H   0  0  0  0  0  0  0  0  0  0  0  0
   20.4280   18.7784   19.9066 C   0  0  0  0  0  0  0  0  0  0  0  0
   19.6182   19.1816   19.2845 H   0  0  0  0  0  0  0  0  0  0  0  0
   20.7377   17.8163   19.4781 H   0  0  0  0  0  0  0  0  0  0  0  0
   21.2815   19.4665   19.8471 H   0  0  0  0  0  0  0  0  0  0  0  0
  1  2  1  0  0  0  0
  1  3  2  0  0  0  0
  1  4  1  0  0  0  0
  4  5  1  0  0  0  0
  4  6  1  0  0  0  0
  4  7  1  0  0  0  0
  7  8  1  0  0  0  0
  7  9  1  0  0  0  0
  7 10  1  0  0  0  0
 10 11  1  0  0  0  0
 10 12  1  0  0  0  0
 10 13  1  0  0  0  0
 13 14  1  0  0  0  0
 13 15  1  0  0  0  0
 13 16  1  0  0  0  0
M  END
> <VM2 Rank>
4

> <Conf_Id>
20

> <Probability>
4.80

> <Sum Probability>
90.80

> <Delta G>
1.483

> <G>
-34.176

> <E>
-44.394

> <-TS>
10.218

> <U+W>
-56.914

> <U>
8.277

> <W>
-65.191

> <W(PB)>
-67.081

> <W(SA)>
1.890

> <Valence>
6.513

> <Coulomb>
1.429

> <VdW>
0.335

> <VdW6>
-5.021

> <VdW12>
5.356

> <Bond>
0.092

> <Angle>
2.417

> <Pdih>
4.002

> <Idih>
0.001

> <Tether>
0.000

$$$$
VeraChem MOL file


 16 15  0  0  0  0  0  0  0  0999 V2000     
   20.0069   19.4102   24.4377 C   0  0  0  0  0  0  0  0  0  0  0  0
   20.1752   20.5581   24.7988 O   0  5  0  0  0  0  0  0  0  0  0  0
   19.0904   18.7126   24.8245 O   0  0  0  0  0  0  0  0  0  0  0  0
   21.0157   18.8065   23.4645 C   0  0  0  0  0  0  0  0  0  0  0  0
   20.9378   17.7135   23.5119 H   0  0  0  0  0  0  0  0  0  0  0  0
   22.0173   19.0689   23.8253 H   0  0  0  0  0  0  0  0  0  0  0  0
   20.8501   19.2914   22.0007 C   0  0  0  0  0  0  0  0  0  0  0  0
   20.9018   20.3888   21.9726 H   0  0  0  0  0  0  0  0  0  0  0  0
   21.6945   18.9198   21.4045 H   0  0  0  0  0  0  0  0  0  0  0  0
   19.5277   18.8137   21.3628 C   0  0  0  0  0  0  0  0  0  0  0  0
   18.6745   19.1969   21.9398 H   0  0  0  0  0  0  0  0  0  0  0  0
   19.4718   17.7170   21.4029 H   0  0  0  0  0  0  0  0  0  0  0  0
   19.4040   19.2804   19.8989 C   0  0  0  0  0  0  0  0  0  0  0  0
   20.2261   18.8835   19.2889 H   0  0  0  0  0  0  0  0  0  0  0  0
   19.4260   20.3762   19.8332 H   0  0  0  0  0  0  0  0  0  0  0  0
   18.4590   18.9335   19.4611 H   0  0  0  0  0  0  0  0  0  0  0  0
  1  2  1  0  0  0  0
  1  3  2  0  0  0  0
  1  4  1  0  0  0  0
  4  5  1  0  0  0  0
  4  6  1  0  0  0  0
  4  7  1  0  0  0  0
  7  8  1  0  0  0  0
  7  9  1  0  0  0  0
  7 10  1  0  0  0  0
 10 11  1  0  0  0  0
 10 12  1  0  0  0  0
 10 13  1  0  0  0  0
 13 14  1  0  0  0  0
 13 15  1  0  0  0  0
 13 16  1  0  0  0  0
M  END
> <VM2 Rank>
5

> <Conf_Id>
53

> <Probability>
4.36

> <Sum Probability>
95.16

> <Delta G>
1.541

> <G>
-34.119

> <E>
-44.337

> <-TS>
10.218

> <U+W>
-56.856

> <U>
8.276

> <W>
-65.132

> <W(PB)>
-67.031

> <W(SA)>
1.899

> <Valence>
6.513

> <Coulomb>
1.428

> <VdW>
0.335

> <VdW6>
-5.021

> <VdW12>
5.356

> <Bond>
0.092

> <Angle>
2.417

> <Pdih>
4.003

> <Idih>
0.001

> <Tether>
0.000

$$$$
VeraChem MOL file


 16 15  0  0  0  0  0  0  0  0999 V2000     
   20.0196   19.3905   24.6749 C   0  0  0  0  0  0  0  0  0  0  0  0
   20.1520   20.5987   24.6516 O   0  5  0  0  0  0  0  0  0  0  0  0
   19.9478   18.7520   25.7057 O   0  0  0  0  0  0  0  0  0  0  0  0
   19.9368   18.6093   23.3624 C   0  0  0  0  0  0  0  0  0  0  0  0
   18.9894   18.0574   23.3693 H   0  0  0  0  0  0  0  0  0  0  0  0
   20.7417   17.8649   23.3733 H   0  0  0  0  0  0  0  0  0  0  0  0
   20.0339   19.4666   22.0724 C   0  0  0  0  0  0  0  0  0  0  0  0
   19.2284   20.2140   22.0698 H   0  0  0  0  0  0  0  0  0  0  0  0
   20.9824   20.0213   22.0738 H   0  0  0  0  0  0  0  0  0  0  0  0
   19.9415   18.5995   20.7993 C   0  0  0  0  0  0  0  0  0  0  0  0
   18.9924   18.0456   20.7959 H   0  0  0  0  0  0  0  0  0  0  0  0
   20.7476   17.8527   20.7998 H   0  0  0  0  0  0  0  0  0  0  0  0
   20.0385   19.4565   19.5217 C   0  0  0  0  0  0  0  0  0  0  0  0
   19.2247   20.1923   19.4796 H   0  0  0  0  0  0  0  0  0  0  0  0
   19.9711   18.8250   18.6262 H   0  0  0  0  0  0  0  0  0  0  0  0
   20.9928   19.9981   19.4836 H   0  0  0  0  0  0  0  0  0  0  0  0
  1  2  1  0  0  0  0
  1  3  2  0  0  0  0
  1  4  1  0  0  0  0
  4  5  1  0  0  0  0
  4  6  1  0  0  0  0
  4  7  1  0  0  0  0
  7  8  1  0  0  0  0
  7  9  1  0  0  0  0
  7 10  1  0  0  0  0
 10 11  1  0  0  0  0
 10 12  1  0  0  0  0
 10 13  1  0  0  0  0
 13 14  1  0  0  0  0
 13 15  1  0  0  0  0
 13 16  1  0  0  0  0
M  END
> <VM2 Rank>
6

> <Conf_Id>
0

> <Probability>
3.39

> <Sum Probability>
98.55

> <Delta G>
1.691

> <G>
-33.969

> <E>
-44.385

> <-TS>
10.416

> <U+W>
-56.904

> <U>
7.329

> <W>
-64.233

> <W(PB)>
-66.148

> <W(SA)>
1.915

> <Valence>
6.755

> <Coulomb>
-0.421

> <VdW>
0.995

> <VdW6>
-4.495

> <VdW12>
5.490

> <Bond>
0.106

> <Angle>
2.715

> <Pdih>
3.934

> <Idih>
0.000

> <Tether>
0.000

$$$$
VeraChem MOL file


 16 15  0  0  0  0  0  0  0  0999 V2000     
   20.0626   19.5193   24.2842 C   0  0  0  0  0  0  0  0  0  0  0  0
   20.7090   20.5481   24.2836 O   0  5  0  0  0  0  0  0  0  0  0  0
   20.2324   18.6214   25.0853 O   0  0  0  0  0  0  0  0  0  0  0  0
   18.9553   19.3579   23.2462 C   0  0  0  0  0  0  0  0  0  0  0  0
   18.7522   20.3351   22.7933 H   0  0  0  0  0  0  0  0  0  0  0  0
   18.0444   19.0701   23.7841 H   0  0  0  0  0  0  0  0  0  0  0  0
   19.2597   18.2994   22.1509 C   0  0  0  0  0  0  0  0  0  0  0  0
   19.4047   17.3233   22.6341 H   0  0  0  0  0  0  0  0  0  0  0  0
   18.3821   18.1930   21.4991 H   0  0  0  0  0  0  0  0  0  0  0  0
   20.5015   18.6174   21.2843 C   0  0  0  0  0  0  0  0  0  0  0  0
   20.6795   17.7756   20.6011 H   0  0  0  0  0  0  0  0  0  0  0  0
   21.3936   18.6923   21.9216 H   0  0  0  0  0  0  0  0  0  0  0  0
   20.3494   19.9094   20.4536 C   0  0  0  0  0  0  0  0  0  0  0  0
   21.2118   20.0408   19.7874 H   0  0  0  0  0  0  0  0  0  0  0  0
   20.2923   20.7941   21.1004 H   0  0  0  0  0  0  0  0  0  0  0  0
   19.4444   19.8748   19.8332 H   0  0  0  0  0  0  0  0  0  0  0  0
  1  2  1  0  0  0  0
  1  3  2  0  0  0  0
  1  4  1  0  0  0  0
  4  5  1  0  0  0  0
  4  6  1  0  0  0  0
  4  7  1  0  0  0  0
  7  8  1  0  0  0  0
  7  9  1  0  0  0  0
  7 10  1  0  0  0  0
 10 11  1  0  0  0  0
 10 12  1  0  0  0  0
 10 13  1  0  0  0  0
 13 14  1  0  0  0  0
 13 15  1  0  0  0  0
 13 16  1  0  0  0  0
M  END
> <VM2 Rank>
7

> <Conf_Id>
37

> <Probability>
0.69

> <Sum Probability>
99.24

> <Delta G>
2.639

> <G>
-33.020

> <E>
-43.372

> <-TS>
10.352

> <U+W>
-55.892

> <U>
9.719

> <W>
-65.610

> <W(PB)>
-67.461

> <W(SA)>
1.850

> <Valence>
7.002

> <Coulomb>
2.402

> <VdW>
0.314

> <VdW6>
-5.861

> <VdW12>
6.175

> <Bond>
0.134

> <Angle>
2.733

> <Pdih>
4.133

> <Idih>
0.002

> <Tether>
0.000

$$$$
VeraChem MOL file


 16 15  0  0  0  0  0  0  0  0999 V2000     
   19.9434   19.3535   24.3046 C   0  0  0  0  0  0  0  0  0  0  0  0
   20.9343   19.5973   24.9645 O   0  5  0  0  0  0  0  0  0  0  0  0
   19.1879   18.4328   24.5451 O   0  0  0  0  0  0  0  0  0  0  0  0
   19.6145   20.2746   23.1328 C   0  0  0  0  0  0  0  0  0  0  0  0
   19.6510   21.3041   23.5079 H   0  0  0  0  0  0  0  0  0  0  0  0
   18.5787   20.0940   22.8232 H   0  0  0  0  0  0  0  0  0  0  0  0
   20.5796   20.1350   21.9238 C   0  0  0  0  0  0  0  0  0  0  0  0
   20.3185   20.8860   21.1660 H   0  0  0  0  0  0  0  0  0  0  0  0
   21.5990   20.3749   22.2567 H   0  0  0  0  0  0  0  0  0  0  0  0
   20.5844   18.7327   21.2701 C   0  0  0  0  0  0  0  0  0  0  0  0
   20.8783   17.9755   22.0102 H   0  0  0  0  0  0  0  0  0  0  0  0
   21.3529   18.7123   20.4852 H   0  0  0  0  0  0  0  0  0  0  0  0
   19.2259   18.3470   20.6470 C   0  0  0  0  0  0  0  0  0  0  0  0
   18.8920   19.1068   19.9284 H   0  0  0  0  0  0  0  0  0  0  0  0
   18.4522   18.2349   21.4172 H   0  0  0  0  0  0  0  0  0  0  0  0
   19.3057   17.3899   20.1154 H   0  0  0  0  0  0  0  0  0  0  0  0
  1  2  1  0  0  0  0
  1  3  2  0  0  0  0
  1  4  1  0  0  0  0
  4  5  1  0  0  0  0
  4  6  1  0  0  0  0
  4  7  1  0  0  0  0
  7  8  1  0  0  0  0
  7  9  1  0  0  0  0
  7 10  1  0  0  0  0
 10 11  1  0  0  0  0
 10 12  1  0  0  0  0
 10 13  1  0  0  0  0
 13 14  1  0  0  0  0
 13 15  1  0  0  0  0
 13 16  1  0  0  0  0
M  END
> <VM2 Rank>
8

> <Conf_Id>
134

> <Probability>
0.63

> <Sum Probability>
99.88

> <Delta G>
2.690

> <G>
-32.970

> <E>
-43.322

> <-TS>
10.352

> <U+W>
-55.841

> <U>
9.719

> <W>
-65.560

> <W(PB)>
-67.415

> <W(SA)>
1.854

> <Valence>
7.002

> <Coulomb>
2.402

> <VdW>
0.314

> <VdW6>
-5.861

> <VdW12>
6.175

> <Bond>
0.134

> <Angle>
2.733

> <Pdih>
4.133

> <Idih>
0.002

> <Tether>
0.000

$$$$
