@<TRIPOS>MOLECULE
guest-s21_vm2.mol2 : vm2 ligand conformer 1
          22          21           1
SMALL
USER_CHARGES
 
@<TRIPOS>ATOM
       1    C1      19.831439   19.134070   26.187474 C.2        1 MOL1         0.6145
       2    O1      20.058647   20.237168   26.643527 O.co2      1 MOL1        -0.6735
       3    O2      20.174561   18.099771   26.724989 O.co2      1 MOL1        -0.6735
       4    C2      19.094620   19.043364   24.855901 C.3        1 MOL1        -0.1985
       5    H1      18.398039   19.888095   24.793699 H          1 MOL1         0.0740
       6    H2      18.492822   18.126591   24.861261 H          1 MOL1         0.0740
       7    C3      20.050623   19.048081   23.637669 C.3        1 MOL1        -0.1882
       8    H3      20.654885   19.965779   23.654132 H          1 MOL1         0.0742
       9    H4      20.749625   18.204329   23.721655 H          1 MOL1         0.0742
      10    C4      19.280794   18.955499   22.302501 C.3        1 MOL1        -0.1880
      11    H5      18.582153   19.799677   22.222257 H          1 MOL1         0.0742
      12    H6      18.676799   18.037783   22.289854 H          1 MOL1         0.0742
      13    C5      20.236312   18.960301   21.089963 C.3        1 MOL1        -0.1880
      14    H7      20.840549   19.877837   21.102281 H          1 MOL1         0.0742
      15    H8      20.935091   18.116229   21.169815 H          1 MOL1         0.0742
      16    C6      19.467652   18.867880   19.755165 C.3        1 MOL1        -0.1856
      17    H9      18.769001   19.711817   19.670700 H          1 MOL1         0.0742
      18    H10     18.863439   17.950209   19.738279 H          1 MOL1         0.0742
      19    C7      20.425352   18.872865   18.546812 C.3        1 MOL1        -0.2871
      20    H11     21.115707   18.020213   18.589254 H          1 MOL1         0.0754
      21    H12     21.020605   19.795049   18.521197 H          1 MOL1         0.0754
      22    H13     19.862403   18.806654   17.606708 H          1 MOL1         0.0754
@<TRIPOS>BOND
    1     1     2    1
    2     1     3    2
    3     1     4    1
    4     4     5    1
    5     4     6    1
    6     4     7    1
    7     7     8    1
    8     7     9    1
    9     7    10    1
   10    10    11    1
   11    10    12    1
   12    10    13    1
   13    13    14    1
   14    13    15    1
   15    13    16    1
   16    16    17    1
   17    16    18    1
   18    16    19    1
   19    19    20    1
   20    19    21    1
   21    19    22    1
@<TRIPOS>SUBSTRUCTURE
       1 MOL1            1 RESIDUE      1      MOL     
@<SCITEGIC>MOL_PROPERTY
VM2 Rank
SciTegic.value.IntegerValue
1

@<SCITEGIC>MOL_PROPERTY
Conf_Id
SciTegic.value.IntegerValue
236

@<SCITEGIC>MOL_PROPERTY
Probability
SciTegic.value.DoubleValue
33.65

@<SCITEGIC>MOL_PROPERTY
Sum Probability
SciTegic.value.DoubleValue
33.65

@<SCITEGIC>MOL_PROPERTY
Delta G
SciTegic.value.DoubleValue
0.000

@<SCITEGIC>MOL_PROPERTY
G
SciTegic.value.DoubleValue
-16.998

@<SCITEGIC>MOL_PROPERTY
E
SciTegic.value.DoubleValue
-36.566

@<SCITEGIC>MOL_PROPERTY
-TS
SciTegic.value.DoubleValue
19.568

@<SCITEGIC>MOL_PROPERTY
U+W
SciTegic.value.DoubleValue
-54.450

@<SCITEGIC>MOL_PROPERTY
U
SciTegic.value.DoubleValue
5.779

@<SCITEGIC>MOL_PROPERTY
W
SciTegic.value.DoubleValue
-60.230

@<SCITEGIC>MOL_PROPERTY
W(PB)
SciTegic.value.DoubleValue
-62.557

@<SCITEGIC>MOL_PROPERTY
W(SA)
SciTegic.value.DoubleValue
2.328

@<SCITEGIC>MOL_PROPERTY
Valence
SciTegic.value.DoubleValue
7.101

@<SCITEGIC>MOL_PROPERTY
Coulomb
SciTegic.value.DoubleValue
-2.079

@<SCITEGIC>MOL_PROPERTY
VdW
SciTegic.value.DoubleValue
0.757

@<SCITEGIC>MOL_PROPERTY
VdW6
SciTegic.value.DoubleValue
-6.496

@<SCITEGIC>MOL_PROPERTY
VdW12
SciTegic.value.DoubleValue
7.253

@<SCITEGIC>MOL_PROPERTY
Bond
SciTegic.value.DoubleValue
0.100

@<SCITEGIC>MOL_PROPERTY
Angle
SciTegic.value.DoubleValue
2.262

@<SCITEGIC>MOL_PROPERTY
Pdih
SciTegic.value.DoubleValue
4.739

@<SCITEGIC>MOL_PROPERTY
Idih
SciTegic.value.DoubleValue
0.001

@<SCITEGIC>MOL_PROPERTY
Tether
SciTegic.value.DoubleValue
0.000

@<TRIPOS>MOLECULE
guest-s21_vm2.mol2 : vm2 ligand conformer 2
          22          21           1
SMALL
USER_CHARGES
 
@<TRIPOS>ATOM
       1    C1      19.729080   18.854878   25.965544 C.2        1 MOL1         0.6145
       2    O1      19.213001   19.642956   26.733095 O.co2      1 MOL1        -0.6735
       3    O2      20.523292   18.002184   26.309996 O.co2      1 MOL1        -0.6735
       4    C2      19.378382   18.956842   24.485413 C.3        1 MOL1        -0.1985
       5    H1      18.343415   19.310020   24.404576 H          1 MOL1         0.0740
       6    H2      19.411097   17.945453   24.064933 H          1 MOL1         0.0740
       7    C3      20.329102   19.903548   23.707590 C.3        1 MOL1        -0.1882
       8    H3      20.342648   20.880508   24.210391 H          1 MOL1         0.0742
       9    H4      21.355611   19.514833   23.757693 H          1 MOL1         0.0742
      10    C4      19.920475   20.112209   22.229996 C.3        1 MOL1        -0.1880
      11    H5      20.573142   20.880497   21.793252 H          1 MOL1         0.0742
      12    H6      18.897602   20.510453   22.183893 H          1 MOL1         0.0742
      13    C5      20.017922   18.825955   21.377628 C.3        1 MOL1        -0.1880
      14    H7      21.026852   18.400813   21.468283 H          1 MOL1         0.0742
      15    H8      19.316267   18.071253   21.755847 H          1 MOL1         0.0742
      16    C6      19.707637   19.102346   19.891453 C.3        1 MOL1        -0.1856
      17    H9      20.409979   19.850611   19.498707 H          1 MOL1         0.0742
      18    H10     18.699734   19.529751   19.797015 H          1 MOL1         0.0742
      19    C7      19.801109   17.818082   19.043286 C.3        1 MOL1        -0.2871
      20    H11     20.808993   17.385778   19.095032 H          1 MOL1         0.0754
      21    H12     19.578108   18.032924   17.990107 H          1 MOL1         0.0754
      22    H13     19.085635   17.062765   19.393981 H          1 MOL1         0.0754
@<TRIPOS>BOND
    1     1     2    1
    2     1     3    2
    3     1     4    1
    4     4     5    1
    5     4     6    1
    6     4     7    1
    7     7     8    1
    8     7     9    1
    9     7    10    1
   10    10    11    1
   11    10    12    1
   12    10    13    1
   13    13    14    1
   14    13    15    1
   15    13    16    1
   16    16    17    1
   17    16    18    1
   18    16    19    1
   19    19    20    1
   20    19    21    1
   21    19    22    1
@<TRIPOS>SUBSTRUCTURE
       1 MOL1            1 RESIDUE      1      MOL     
@<SCITEGIC>MOL_PROPERTY
VM2 Rank
SciTegic.value.IntegerValue
2

@<SCITEGIC>MOL_PROPERTY
Conf_Id
SciTegic.value.IntegerValue
121

@<SCITEGIC>MOL_PROPERTY
Probability
SciTegic.value.DoubleValue
8.69

@<SCITEGIC>MOL_PROPERTY
Sum Probability
SciTegic.value.DoubleValue
42.34

@<SCITEGIC>MOL_PROPERTY
Delta G
SciTegic.value.DoubleValue
0.807

@<SCITEGIC>MOL_PROPERTY
G
SciTegic.value.DoubleValue
-16.191

@<SCITEGIC>MOL_PROPERTY
E
SciTegic.value.DoubleValue
-35.868

@<SCITEGIC>MOL_PROPERTY
-TS
SciTegic.value.DoubleValue
19.678

@<SCITEGIC>MOL_PROPERTY
U+W
SciTegic.value.DoubleValue
-53.753

@<SCITEGIC>MOL_PROPERTY
U
SciTegic.value.DoubleValue
6.782

@<SCITEGIC>MOL_PROPERTY
W
SciTegic.value.DoubleValue
-60.535

@<SCITEGIC>MOL_PROPERTY
W(PB)
SciTegic.value.DoubleValue
-62.847

@<SCITEGIC>MOL_PROPERTY
W(SA)
SciTegic.value.DoubleValue
2.311

@<SCITEGIC>MOL_PROPERTY
Valence
SciTegic.value.DoubleValue
7.621

@<SCITEGIC>MOL_PROPERTY
Coulomb
SciTegic.value.DoubleValue
-1.711

@<SCITEGIC>MOL_PROPERTY
VdW
SciTegic.value.DoubleValue
0.872

@<SCITEGIC>MOL_PROPERTY
VdW6
SciTegic.value.DoubleValue
-7.188

@<SCITEGIC>MOL_PROPERTY
VdW12
SciTegic.value.DoubleValue
8.060

@<SCITEGIC>MOL_PROPERTY
Bond
SciTegic.value.DoubleValue
0.142

@<SCITEGIC>MOL_PROPERTY
Angle
SciTegic.value.DoubleValue
2.504

@<SCITEGIC>MOL_PROPERTY
Pdih
SciTegic.value.DoubleValue
4.974

@<SCITEGIC>MOL_PROPERTY
Idih
SciTegic.value.DoubleValue
0.001

@<SCITEGIC>MOL_PROPERTY
Tether
SciTegic.value.DoubleValue
0.000

@<TRIPOS>MOLECULE
guest-s21_vm2.mol2 : vm2 ligand conformer 3
          22          21           1
SMALL
USER_CHARGES
 
@<TRIPOS>ATOM
       1    C1      20.133442   19.130229   25.955959 C.2        1 MOL1         0.6145
       2    O1      19.613944   19.915999   26.723571 O.co2      1 MOL1        -0.6735
       3    O2      20.647731   18.086826   26.307130 O.co2      1 MOL1        -0.6735
       4    C2      20.118992   19.461175   24.467858 C.3        1 MOL1        -0.1985
       5    H1      21.034099   19.050669   24.026442 H          1 MOL1         0.0740
       6    H2      20.166547   20.551507   24.361375 H          1 MOL1         0.0740
       7    C3      18.865422   18.906877   23.742290 C.3        1 MOL1        -0.1882
       8    H3      18.853005   17.810704   23.816992 H          1 MOL1         0.0742
       9    H4      17.968082   19.263557   24.266699 H          1 MOL1         0.0742
      10    C4      18.773009   19.330909   22.257213 C.3        1 MOL1        -0.1880
      11    H5      18.775530   20.427281   22.186825 H          1 MOL1         0.0742
      12    H6      17.805418   18.996088   21.858907 H          1 MOL1         0.0742
      13    C5      19.905971   18.749706   21.380246 C.3        1 MOL1        -0.1880
      14    H7      20.876975   19.133667   21.718872 H          1 MOL1         0.0742
      15    H8      19.934912   17.657404   21.494014 H          1 MOL1         0.0742
      16    C6      19.714433   19.107068   19.891290 C.3        1 MOL1        -0.1856
      17    H9      19.683020   20.199165   19.773806 H          1 MOL1         0.0742
      18    H10     18.748643   18.719896   19.538048 H          1 MOL1         0.0742
      19    C7      20.847055   18.530210   19.018444 C.3        1 MOL1        -0.2871
      20    H11     21.822853   18.926085   19.329079 H          1 MOL1         0.0754
      21    H12     20.694822   18.793304   17.963607 H          1 MOL1         0.0754
      22    H13     20.881650   17.435398   19.093176 H          1 MOL1         0.0754
@<TRIPOS>BOND
    1     1     2    1
    2     1     3    2
    3     1     4    1
    4     4     5    1
    5     4     6    1
    6     4     7    1
    7     7     8    1
    8     7     9    1
    9     7    10    1
   10    10    11    1
   11    10    12    1
   12    10    13    1
   13    13    14    1
   14    13    15    1
   15    13    16    1
   16    16    17    1
   17    16    18    1
   18    16    19    1
   19    19    20    1
   20    19    21    1
   21    19    22    1
@<TRIPOS>SUBSTRUCTURE
       1 MOL1            1 RESIDUE      1      MOL     
@<SCITEGIC>MOL_PROPERTY
VM2 Rank
SciTegic.value.IntegerValue
3

@<SCITEGIC>MOL_PROPERTY
Conf_Id
SciTegic.value.IntegerValue
324

@<SCITEGIC>MOL_PROPERTY
Probability
SciTegic.value.DoubleValue
7.79

@<SCITEGIC>MOL_PROPERTY
Sum Probability
SciTegic.value.DoubleValue
50.12

@<SCITEGIC>MOL_PROPERTY
Delta G
SciTegic.value.DoubleValue
0.873

@<SCITEGIC>MOL_PROPERTY
G
SciTegic.value.DoubleValue
-16.125

@<SCITEGIC>MOL_PROPERTY
E
SciTegic.value.DoubleValue
-35.803

@<SCITEGIC>MOL_PROPERTY
-TS
SciTegic.value.DoubleValue
19.677

@<SCITEGIC>MOL_PROPERTY
U+W
SciTegic.value.DoubleValue
-53.688

@<SCITEGIC>MOL_PROPERTY
U
SciTegic.value.DoubleValue
6.782

@<SCITEGIC>MOL_PROPERTY
W
SciTegic.value.DoubleValue
-60.470

@<SCITEGIC>MOL_PROPERTY
W(PB)
SciTegic.value.DoubleValue
-62.789

@<SCITEGIC>MOL_PROPERTY
W(SA)
SciTegic.value.DoubleValue
2.320

@<SCITEGIC>MOL_PROPERTY
Valence
SciTegic.value.DoubleValue
7.621

@<SCITEGIC>MOL_PROPERTY
Coulomb
SciTegic.value.DoubleValue
-1.711

@<SCITEGIC>MOL_PROPERTY
VdW
SciTegic.value.DoubleValue
0.872

@<SCITEGIC>MOL_PROPERTY
VdW6
SciTegic.value.DoubleValue
-7.188

@<SCITEGIC>MOL_PROPERTY
VdW12
SciTegic.value.DoubleValue
8.060

@<SCITEGIC>MOL_PROPERTY
Bond
SciTegic.value.DoubleValue
0.142

@<SCITEGIC>MOL_PROPERTY
Angle
SciTegic.value.DoubleValue
2.504

@<SCITEGIC>MOL_PROPERTY
Pdih
SciTegic.value.DoubleValue
4.974

@<SCITEGIC>MOL_PROPERTY
Idih
SciTegic.value.DoubleValue
0.001

@<SCITEGIC>MOL_PROPERTY
Tether
SciTegic.value.DoubleValue
0.000

@<TRIPOS>MOLECULE
guest-s21_vm2.mol2 : vm2 ligand conformer 4
          22          21           1
SMALL
USER_CHARGES
 
@<TRIPOS>ATOM
       1    C1      19.996131   19.032791   25.987445 C.2        1 MOL1         0.6145
       2    O1      20.322464   20.079944   26.510367 O.co2      1 MOL1        -0.6735
       3    O2      20.420623   17.947576   26.331787 O.co2      1 MOL1        -0.6735
       4    C2      19.015459   19.085344   24.821321 C.3        1 MOL1        -0.1985
       5    H1      18.331845   19.926281   24.988989 H          1 MOL1         0.0740
       6    H2      18.413353   18.168972   24.840827 H          1 MOL1         0.0740
       7    C3      19.719141   19.232752   23.449681 C.3        1 MOL1        -0.1882
       8    H3      20.324642   20.149634   23.449425 H          1 MOL1         0.0742
       9    H4      20.411541   18.391500   23.314241 H          1 MOL1         0.0742
      10    C4      18.702217   19.278782   22.285719 C.3        1 MOL1        -0.1880
      11    H5      17.973670   20.077862   22.479760 H          1 MOL1         0.0742
      12    H6      18.132609   18.339898   22.253595 H          1 MOL1         0.0742
      13    C5      19.355013   19.535706   20.906805 C.3        1 MOL1        -0.1880
      14    H7      18.557083   19.677879   20.165172 H          1 MOL1         0.0742
      15    H8      19.921606   20.476435   20.937350 H          1 MOL1         0.0742
      16    C6      20.276677   18.387442   20.437431 C.3        1 MOL1        -0.1856
      17    H9      19.724876   17.437533   20.457298 H          1 MOL1         0.0742
      18    H10     21.126355   18.279229   21.124232 H          1 MOL1         0.0742
      19    C7      20.812276   18.638663   19.013445 C.3        1 MOL1        -0.2871
      20    H11     21.467123   17.816796   18.695987 H          1 MOL1         0.0754
      21    H12     21.392183   19.569946   18.970966 H          1 MOL1         0.0754
      22    H13     19.988924   18.713987   18.291105 H          1 MOL1         0.0754
@<TRIPOS>BOND
    1     1     2    1
    2     1     3    2
    3     1     4    1
    4     4     5    1
    5     4     6    1
    6     4     7    1
    7     7     8    1
    8     7     9    1
    9     7    10    1
   10    10    11    1
   11    10    12    1
   12    10    13    1
   13    13    14    1
   14    13    15    1
   15    13    16    1
   16    16    17    1
   17    16    18    1
   18    16    19    1
   19    19    20    1
   20    19    21    1
   21    19    22    1
@<TRIPOS>SUBSTRUCTURE
       1 MOL1            1 RESIDUE      1      MOL     
@<SCITEGIC>MOL_PROPERTY
VM2 Rank
SciTegic.value.IntegerValue
4

@<SCITEGIC>MOL_PROPERTY
Conf_Id
SciTegic.value.IntegerValue
132

@<SCITEGIC>MOL_PROPERTY
Probability
SciTegic.value.DoubleValue
7.72

@<SCITEGIC>MOL_PROPERTY
Sum Probability
SciTegic.value.DoubleValue
57.84

@<SCITEGIC>MOL_PROPERTY
Delta G
SciTegic.value.DoubleValue
0.878

@<SCITEGIC>MOL_PROPERTY
G
SciTegic.value.DoubleValue
-16.120

@<SCITEGIC>MOL_PROPERTY
E
SciTegic.value.DoubleValue
-35.794

@<SCITEGIC>MOL_PROPERTY
-TS
SciTegic.value.DoubleValue
19.673

@<SCITEGIC>MOL_PROPERTY
U+W
SciTegic.value.DoubleValue
-53.679

@<SCITEGIC>MOL_PROPERTY
U
SciTegic.value.DoubleValue
7.026

@<SCITEGIC>MOL_PROPERTY
W
SciTegic.value.DoubleValue
-60.705

@<SCITEGIC>MOL_PROPERTY
W(PB)
SciTegic.value.DoubleValue
-63.009

@<SCITEGIC>MOL_PROPERTY
W(SA)
SciTegic.value.DoubleValue
2.304

@<SCITEGIC>MOL_PROPERTY
Valence
SciTegic.value.DoubleValue
7.638

@<SCITEGIC>MOL_PROPERTY
Coulomb
SciTegic.value.DoubleValue
-1.488

@<SCITEGIC>MOL_PROPERTY
VdW
SciTegic.value.DoubleValue
0.877

@<SCITEGIC>MOL_PROPERTY
VdW6
SciTegic.value.DoubleValue
-7.165

@<SCITEGIC>MOL_PROPERTY
VdW12
SciTegic.value.DoubleValue
8.042

@<SCITEGIC>MOL_PROPERTY
Bond
SciTegic.value.DoubleValue
0.134

@<SCITEGIC>MOL_PROPERTY
Angle
SciTegic.value.DoubleValue
2.513

@<SCITEGIC>MOL_PROPERTY
Pdih
SciTegic.value.DoubleValue
4.990

@<SCITEGIC>MOL_PROPERTY
Idih
SciTegic.value.DoubleValue
0.001

@<SCITEGIC>MOL_PROPERTY
Tether
SciTegic.value.DoubleValue
0.000

@<TRIPOS>MOLECULE
guest-s21_vm2.mol2 : vm2 ligand conformer 5
          22          21           1
SMALL
USER_CHARGES
 
@<TRIPOS>ATOM
       1    C1      19.600367   19.027375   25.980230 C.2        1 MOL1         0.6145
       2    O1      19.226246   20.064898   26.490182 O.co2      1 MOL1        -0.6735
       3    O2      19.194553   17.930622   26.310235 O.co2      1 MOL1        -0.6735
       4    C2      20.620686   19.107534   24.850250 C.3        1 MOL1        -0.1985
       5    H1      21.246833   18.208174   24.892015 H          1 MOL1         0.0740
       6    H2      21.274253   19.967008   25.042006 H          1 MOL1         0.0740
       7    C3      19.963183   19.235984   23.454011 C.3        1 MOL1        -0.1882
       8    H3      19.299596   18.375995   23.294192 H          1 MOL1         0.0742
       9    H4      19.333025   20.135811   23.431330 H          1 MOL1         0.0742
      10    C4      21.019792   19.310470   22.327469 C.3        1 MOL1        -0.1880
      11    H5      21.615711   18.387570   22.316380 H          1 MOL1         0.0742
      12    H6      21.718689   20.129123   22.547274 H          1 MOL1         0.0742
      13    C5      20.410367   19.550095   20.925773 C.3        1 MOL1        -0.1880
      14    H7      19.817721   20.475088   20.935333 H          1 MOL1         0.0742
      15    H8      21.230346   19.714162   20.213284 H          1 MOL1         0.0742
      16    C6      19.537692   18.377434   20.424175 C.3        1 MOL1        -0.1856
      17    H9      18.667067   18.245959   21.079985 H          1 MOL1         0.0742
      18    H10     20.113972   17.442830   20.464471 H          1 MOL1         0.0742
      19    C7      19.047113   18.614589   18.981674 C.3        1 MOL1        -0.2871
      20    H11     19.893599   18.712429   18.289398 H          1 MOL1         0.0754
      21    H12     18.444123   19.529852   18.917778 H          1 MOL1         0.0754
      22    H13     18.426597   17.775417   18.641349 H          1 MOL1         0.0754
@<TRIPOS>BOND
    1     1     2    1
    2     1     3    2
    3     1     4    1
    4     4     5    1
    5     4     6    1
    6     4     7    1
    7     7     8    1
    8     7     9    1
    9     7    10    1
   10    10    11    1
   11    10    12    1
   12    10    13    1
   13    13    14    1
   14    13    15    1
   15    13    16    1
   16    16    17    1
   17    16    18    1
   18    16    19    1
   19    19    20    1
   20    19    21    1
   21    19    22    1
@<TRIPOS>SUBSTRUCTURE
       1 MOL1            1 RESIDUE      1      MOL     
@<SCITEGIC>MOL_PROPERTY
VM2 Rank
SciTegic.value.IntegerValue
5

@<SCITEGIC>MOL_PROPERTY
Conf_Id
SciTegic.value.IntegerValue
309

@<SCITEGIC>MOL_PROPERTY
Probability
SciTegic.value.DoubleValue
7.30

@<SCITEGIC>MOL_PROPERTY
Sum Probability
SciTegic.value.DoubleValue
65.14

@<SCITEGIC>MOL_PROPERTY
Delta G
SciTegic.value.DoubleValue
0.911

@<SCITEGIC>MOL_PROPERTY
G
SciTegic.value.DoubleValue
-16.087

@<SCITEGIC>MOL_PROPERTY
E
SciTegic.value.DoubleValue
-35.761

@<SCITEGIC>MOL_PROPERTY
-TS
SciTegic.value.DoubleValue
19.674

@<SCITEGIC>MOL_PROPERTY
U+W
SciTegic.value.DoubleValue
-53.646

@<SCITEGIC>MOL_PROPERTY
U
SciTegic.value.DoubleValue
7.026

@<SCITEGIC>MOL_PROPERTY
W
SciTegic.value.DoubleValue
-60.672

@<SCITEGIC>MOL_PROPERTY
W(PB)
SciTegic.value.DoubleValue
-62.965

@<SCITEGIC>MOL_PROPERTY
W(SA)
SciTegic.value.DoubleValue
2.292

@<SCITEGIC>MOL_PROPERTY
Valence
SciTegic.value.DoubleValue
7.638

@<SCITEGIC>MOL_PROPERTY
Coulomb
SciTegic.value.DoubleValue
-1.488

@<SCITEGIC>MOL_PROPERTY
VdW
SciTegic.value.DoubleValue
0.877

@<SCITEGIC>MOL_PROPERTY
VdW6
SciTegic.value.DoubleValue
-7.165

@<SCITEGIC>MOL_PROPERTY
VdW12
SciTegic.value.DoubleValue
8.042

@<SCITEGIC>MOL_PROPERTY
Bond
SciTegic.value.DoubleValue
0.134

@<SCITEGIC>MOL_PROPERTY
Angle
SciTegic.value.DoubleValue
2.513

@<SCITEGIC>MOL_PROPERTY
Pdih
SciTegic.value.DoubleValue
4.990

@<SCITEGIC>MOL_PROPERTY
Idih
SciTegic.value.DoubleValue
0.001

@<SCITEGIC>MOL_PROPERTY
Tether
SciTegic.value.DoubleValue
0.000

@<TRIPOS>MOLECULE
guest-s21_vm2.mol2 : vm2 ligand conformer 6
          22          21           1
SMALL
USER_CHARGES
 
@<TRIPOS>ATOM
       1    C1      19.732893   19.223310   26.094719 C.2        1 MOL1         0.6145
       2    O1      20.138776   20.291529   26.507780 O.co2      1 MOL1        -0.6735
       3    O2      19.790749   18.189745   26.730999 O.co2      1 MOL1        -0.6735
       4    C2      19.137847   19.172855   24.692012 C.3        1 MOL1        -0.1985
       5    H1      18.646185   20.133269   24.495720 H          1 MOL1         0.0740
       6    H2      18.358626   18.401289   24.679925 H          1 MOL1         0.0740
       7    C3      20.195903   18.880946   23.599556 C.3        1 MOL1        -0.1882
       8    H3      20.975204   19.654977   23.632941 H          1 MOL1         0.0742
       9    H4      20.687938   17.923019   23.818161 H          1 MOL1         0.0742
      10    C4      19.568606   18.835067   22.189329 C.3        1 MOL1        -0.1880
      11    H5      19.074053   19.793463   21.984243 H          1 MOL1         0.0742
      12    H6      18.791565   18.059115   22.158322 H          1 MOL1         0.0742
      13    C5      20.629420   18.547133   21.102117 C.3        1 MOL1        -0.1880
      14    H7      21.380817   19.348575   21.096466 H          1 MOL1         0.0742
      15    H8      21.163163   17.622072   21.359631 H          1 MOL1         0.0742
      16    C6      20.030514   18.389949   19.685109 C.3        1 MOL1        -0.1856
      17    H9      19.282853   17.584769   19.685390 H          1 MOL1         0.0742
      18    H10     20.827727   18.072707   18.998782 H          1 MOL1         0.0742
      19    C7      19.395292   19.688466   19.142380 C.3        1 MOL1        -0.2871
      20    H11     18.518077   19.982400   19.732126 H          1 MOL1         0.0754
      21    H12     19.066186   19.549916   18.104396 H          1 MOL1         0.0754
      22    H13     20.116303   20.516079   19.160684 H          1 MOL1         0.0754
@<TRIPOS>BOND
    1     1     2    1
    2     1     3    2
    3     1     4    1
    4     4     5    1
    5     4     6    1
    6     4     7    1
    7     7     8    1
    8     7     9    1
    9     7    10    1
   10    10    11    1
   11    10    12    1
   12    10    13    1
   13    13    14    1
   14    13    15    1
   15    13    16    1
   16    16    17    1
   17    16    18    1
   18    16    19    1
   19    19    20    1
   20    19    21    1
   21    19    22    1
@<TRIPOS>SUBSTRUCTURE
       1 MOL1            1 RESIDUE      1      MOL     
@<SCITEGIC>MOL_PROPERTY
VM2 Rank
SciTegic.value.IntegerValue
6

@<SCITEGIC>MOL_PROPERTY
Conf_Id
SciTegic.value.IntegerValue
131

@<SCITEGIC>MOL_PROPERTY
Probability
SciTegic.value.DoubleValue
6.71

@<SCITEGIC>MOL_PROPERTY
Sum Probability
SciTegic.value.DoubleValue
71.85

@<SCITEGIC>MOL_PROPERTY
Delta G
SciTegic.value.DoubleValue
0.961

@<SCITEGIC>MOL_PROPERTY
G
SciTegic.value.DoubleValue
-16.037

@<SCITEGIC>MOL_PROPERTY
E
SciTegic.value.DoubleValue
-35.714

@<SCITEGIC>MOL_PROPERTY
-TS
SciTegic.value.DoubleValue
19.677

@<SCITEGIC>MOL_PROPERTY
U+W
SciTegic.value.DoubleValue
-53.599

@<SCITEGIC>MOL_PROPERTY
U
SciTegic.value.DoubleValue
6.751

@<SCITEGIC>MOL_PROPERTY
W
SciTegic.value.DoubleValue
-60.350

@<SCITEGIC>MOL_PROPERTY
W(PB)
SciTegic.value.DoubleValue
-62.659

@<SCITEGIC>MOL_PROPERTY
W(SA)
SciTegic.value.DoubleValue
2.309

@<SCITEGIC>MOL_PROPERTY
Valence
SciTegic.value.DoubleValue
7.602

@<SCITEGIC>MOL_PROPERTY
Coulomb
SciTegic.value.DoubleValue
-1.744

@<SCITEGIC>MOL_PROPERTY
VdW
SciTegic.value.DoubleValue
0.893

@<SCITEGIC>MOL_PROPERTY
VdW6
SciTegic.value.DoubleValue
-7.110

@<SCITEGIC>MOL_PROPERTY
VdW12
SciTegic.value.DoubleValue
8.004

@<SCITEGIC>MOL_PROPERTY
Bond
SciTegic.value.DoubleValue
0.131

@<SCITEGIC>MOL_PROPERTY
Angle
SciTegic.value.DoubleValue
2.489

@<SCITEGIC>MOL_PROPERTY
Pdih
SciTegic.value.DoubleValue
4.982

@<SCITEGIC>MOL_PROPERTY
Idih
SciTegic.value.DoubleValue
0.001

@<SCITEGIC>MOL_PROPERTY
Tether
SciTegic.value.DoubleValue
0.000

@<TRIPOS>MOLECULE
guest-s21_vm2.mol2 : vm2 ligand conformer 7
          22          21           1
SMALL
USER_CHARGES
 
@<TRIPOS>ATOM
       1    C1      19.743507   19.027866   26.102220 C.2        1 MOL1         0.6145
       2    O1      19.687091   20.107269   26.657344 O.co2      1 MOL1        -0.6735
       3    O2      20.260330   18.044299   26.594096 O.co2      1 MOL1        -0.6735
       4    C2      19.152301   18.906530   24.702233 C.3        1 MOL1        -0.1985
       5    H1      18.294403   19.586284   24.634496 H          1 MOL1         0.0740
       6    H2      18.767996   17.886490   24.581891 H          1 MOL1         0.0740
       7    C3      20.177164   19.226669   23.586294 C.3        1 MOL1        -0.1882
       8    H3      20.561970   20.246011   23.729043 H          1 MOL1         0.0742
       9    H4      21.035346   18.546141   23.675477 H          1 MOL1         0.0742
      10    C4      19.554419   19.096676   22.179297 C.3        1 MOL1        -0.1880
      11    H5      18.698218   19.779475   22.092357 H          1 MOL1         0.0742
      12    H6      19.167171   18.077608   22.050047 H          1 MOL1         0.0742
      13    C5      20.582394   19.413685   21.068877 C.3        1 MOL1        -0.1880
      14    H7      21.011990   20.407946   21.252792 H          1 MOL1         0.0742
      15    H8      21.416004   18.700045   21.121313 H          1 MOL1         0.0742
      16    C6      19.975874   19.396590   19.646502 C.3        1 MOL1        -0.1856
      17    H9      20.736975   19.744777   18.934656 H          1 MOL1         0.0742
      18    H10     19.145599   20.113932   19.588409 H          1 MOL1         0.0742
      19    C7      19.486921   17.999417   19.207137 C.3        1 MOL1        -0.2871
      20    H11     20.293037   17.258370   19.285620 H          1 MOL1         0.0754
      21    H12     19.149107   18.021933   18.162966 H          1 MOL1         0.0754
      22    H13     18.644142   17.658333   19.821212 H          1 MOL1         0.0754
@<TRIPOS>BOND
    1     1     2    1
    2     1     3    2
    3     1     4    1
    4     4     5    1
    5     4     6    1
    6     4     7    1
    7     7     8    1
    8     7     9    1
    9     7    10    1
   10    10    11    1
   11    10    12    1
   12    10    13    1
   13    13    14    1
   14    13    15    1
   15    13    16    1
   16    16    17    1
   17    16    18    1
   18    16    19    1
   19    19    20    1
   20    19    21    1
   21    19    22    1
@<TRIPOS>SUBSTRUCTURE
       1 MOL1            1 RESIDUE      1      MOL     
@<SCITEGIC>MOL_PROPERTY
VM2 Rank
SciTegic.value.IntegerValue
7

@<SCITEGIC>MOL_PROPERTY
Conf_Id
SciTegic.value.IntegerValue
99

@<SCITEGIC>MOL_PROPERTY
Probability
SciTegic.value.DoubleValue
6.33

@<SCITEGIC>MOL_PROPERTY
Sum Probability
SciTegic.value.DoubleValue
78.18

@<SCITEGIC>MOL_PROPERTY
Delta G
SciTegic.value.DoubleValue
0.996

@<SCITEGIC>MOL_PROPERTY
G
SciTegic.value.DoubleValue
-16.002

@<SCITEGIC>MOL_PROPERTY
E
SciTegic.value.DoubleValue
-35.679

@<SCITEGIC>MOL_PROPERTY
-TS
SciTegic.value.DoubleValue
19.677

@<SCITEGIC>MOL_PROPERTY
U+W
SciTegic.value.DoubleValue
-53.564

@<SCITEGIC>MOL_PROPERTY
U
SciTegic.value.DoubleValue
6.751

@<SCITEGIC>MOL_PROPERTY
W
SciTegic.value.DoubleValue
-60.315

@<SCITEGIC>MOL_PROPERTY
W(PB)
SciTegic.value.DoubleValue
-62.637

@<SCITEGIC>MOL_PROPERTY
W(SA)
SciTegic.value.DoubleValue
2.321

@<SCITEGIC>MOL_PROPERTY
Valence
SciTegic.value.DoubleValue
7.602

@<SCITEGIC>MOL_PROPERTY
Coulomb
SciTegic.value.DoubleValue
-1.744

@<SCITEGIC>MOL_PROPERTY
VdW
SciTegic.value.DoubleValue
0.893

@<SCITEGIC>MOL_PROPERTY
VdW6
SciTegic.value.DoubleValue
-7.110

@<SCITEGIC>MOL_PROPERTY
VdW12
SciTegic.value.DoubleValue
8.004

@<SCITEGIC>MOL_PROPERTY
Bond
SciTegic.value.DoubleValue
0.131

@<SCITEGIC>MOL_PROPERTY
Angle
SciTegic.value.DoubleValue
2.489

@<SCITEGIC>MOL_PROPERTY
Pdih
SciTegic.value.DoubleValue
4.982

@<SCITEGIC>MOL_PROPERTY
Idih
SciTegic.value.DoubleValue
0.001

@<SCITEGIC>MOL_PROPERTY
Tether
SciTegic.value.DoubleValue
0.000

@<TRIPOS>MOLECULE
guest-s21_vm2.mol2 : vm2 ligand conformer 8
          22          21           1
SMALL
USER_CHARGES
 
@<TRIPOS>ATOM
       1    C1      19.995943   19.018056   25.802307 C.2        1 MOL1         0.6145
       2    O1      20.594724   19.981693   26.237931 O.co2      1 MOL1        -0.6735
       3    O2      20.375581   17.871908   25.940192 O.co2      1 MOL1        -0.6735
       4    C2      18.686329   19.261802   25.057572 C.3        1 MOL1        -0.1985
       5    H1      18.102195   19.978120   25.647246 H          1 MOL1         0.0740
       6    H2      18.114948   18.325823   25.038328 H          1 MOL1         0.0740
       7    C3      18.871587   19.805858   23.617198 C.3        1 MOL1        -0.1882
       8    H3      17.888774   20.080671   23.210876 H          1 MOL1         0.0742
       9    H4      19.469104   20.727556   23.650355 H          1 MOL1         0.0742
      10    C4      19.543077   18.780377   22.676415 C.3        1 MOL1        -0.1880
      11    H5      18.949132   17.856326   22.657051 H          1 MOL1         0.0742
      12    H6      20.534661   18.513312   23.067370 H          1 MOL1         0.0742
      13    C5      19.688746   19.330817   21.241408 C.3        1 MOL1        -0.1880
      14    H7      18.698118   19.595934   20.847167 H          1 MOL1         0.0742
      15    H8      20.282810   20.254825   21.261603 H          1 MOL1         0.0742
      16    C6      20.359953   18.307583   20.301453 C.3        1 MOL1        -0.1856
      17    H9      19.767625   17.382361   20.277514 H          1 MOL1         0.0742
      18    H10     21.352128   18.041442   20.691659 H          1 MOL1         0.0742
      19    C7      20.504059   18.860906   18.869522 C.3        1 MOL1        -0.2871
      20    H11     19.522741   19.106184   18.442615 H          1 MOL1         0.0754
      21    H12     20.982937   18.120893   18.215197 H          1 MOL1         0.0754
      22    H13     21.119170   19.770272   18.859914 H          1 MOL1         0.0754
@<TRIPOS>BOND
    1     1     2    1
    2     1     3    2
    3     1     4    1
    4     4     5    1
    5     4     6    1
    6     4     7    1
    7     7     8    1
    8     7     9    1
    9     7    10    1
   10    10    11    1
   11    10    12    1
   12    10    13    1
   13    13    14    1
   14    13    15    1
   15    13    16    1
   16    16    17    1
   17    16    18    1
   18    16    19    1
   19    19    20    1
   20    19    21    1
   21    19    22    1
@<TRIPOS>SUBSTRUCTURE
       1 MOL1            1 RESIDUE      1      MOL     
@<SCITEGIC>MOL_PROPERTY
VM2 Rank
SciTegic.value.IntegerValue
8

@<SCITEGIC>MOL_PROPERTY
Conf_Id
SciTegic.value.IntegerValue
134

@<SCITEGIC>MOL_PROPERTY
Probability
SciTegic.value.DoubleValue
2.99

@<SCITEGIC>MOL_PROPERTY
Sum Probability
SciTegic.value.DoubleValue
81.17

@<SCITEGIC>MOL_PROPERTY
Delta G
SciTegic.value.DoubleValue
1.443

@<SCITEGIC>MOL_PROPERTY
G
SciTegic.value.DoubleValue
-15.555

@<SCITEGIC>MOL_PROPERTY
E
SciTegic.value.DoubleValue
-35.435

@<SCITEGIC>MOL_PROPERTY
-TS
SciTegic.value.DoubleValue
19.880

@<SCITEGIC>MOL_PROPERTY
U+W
SciTegic.value.DoubleValue
-53.320

@<SCITEGIC>MOL_PROPERTY
U
SciTegic.value.DoubleValue
7.937

@<SCITEGIC>MOL_PROPERTY
W
SciTegic.value.DoubleValue
-61.257

@<SCITEGIC>MOL_PROPERTY
W(PB)
SciTegic.value.DoubleValue
-63.561

@<SCITEGIC>MOL_PROPERTY
W(SA)
SciTegic.value.DoubleValue
2.304

@<SCITEGIC>MOL_PROPERTY
Valence
SciTegic.value.DoubleValue
7.358

@<SCITEGIC>MOL_PROPERTY
Coulomb
SciTegic.value.DoubleValue
-0.021

@<SCITEGIC>MOL_PROPERTY
VdW
SciTegic.value.DoubleValue
0.600

@<SCITEGIC>MOL_PROPERTY
VdW6
SciTegic.value.DoubleValue
-7.363

@<SCITEGIC>MOL_PROPERTY
VdW12
SciTegic.value.DoubleValue
7.964

@<SCITEGIC>MOL_PROPERTY
Bond
SciTegic.value.DoubleValue
0.121

@<SCITEGIC>MOL_PROPERTY
Angle
SciTegic.value.DoubleValue
2.425

@<SCITEGIC>MOL_PROPERTY
Pdih
SciTegic.value.DoubleValue
4.811

@<SCITEGIC>MOL_PROPERTY
Idih
SciTegic.value.DoubleValue
0.001

@<SCITEGIC>MOL_PROPERTY
Tether
SciTegic.value.DoubleValue
0.000

