@<TRIPOS>MOLECULE
guest-1_vm2.mol2 : vm2 ligand conformer 1
          17          16           1
SMALL
USER_CHARGES
 
@<TRIPOS>ATOM
       1    N1      19.626220   18.841371   24.138335 N.4        1 MOL1        -0.5891
       2    H1      18.640200   19.118086   24.168157 H          1 MOL1         0.3726
       3    H2      20.058110   19.190719   24.999925 H          1 MOL1         0.3726
       4    H3      19.653062   17.818353   24.187439 H          1 MOL1         0.3726
       5    C1      20.327117   19.369238   22.902431 C.3        1 MOL1         0.0314
       6    H4      21.375816   19.063912   22.952741 H          1 MOL1         0.0999
       7    H5      20.286616   20.461488   22.931971 H          1 MOL1         0.0999
       8    C2      19.703468   18.863674   21.588759 C.3        1 MOL1        -0.1308
       9    H6      19.732044   17.766040   21.569490 H          1 MOL1         0.1025
      10    H7      18.646435   19.158768   21.548879 H          1 MOL1         0.1025
      11    C3      20.446125   19.424332   20.356020 C.3        1 MOL1        -0.1243
      12    H8      21.505005   19.132077   20.397066 H          1 MOL1         0.1025
      13    H9      20.420645   20.523086   20.376452 H          1 MOL1         0.1025
      14    C4      19.826069   18.921384   19.034456 C.3        1 MOL1        -0.2258
      15    H10     20.367394   19.330627   18.171590 H          1 MOL1         0.1036
      16    H11     18.775509   19.228253   18.948659 H          1 MOL1         0.1036
      17    H12     19.868453   17.826314   18.969411 H          1 MOL1         0.1036
@<TRIPOS>BOND
    1     1     2    1
    2     1     3    1
    3     1     4    1
    4     1     5    1
    5     5     6    1
    6     5     7    1
    7     5     8    1
    8     8     9    1
    9     8    10    1
   10     8    11    1
   11    11    12    1
   12    11    13    1
   13    11    14    1
   14    14    15    1
   15    14    16    1
   16    14    17    1
@<TRIPOS>SUBSTRUCTURE
       1 MOL1            1 RESIDUE      1      MOL     
@<SCITEGIC>MOL_PROPERTY
VM2 Rank
SciTegic.value.IntegerValue
1

@<SCITEGIC>MOL_PROPERTY
Conf_Id
SciTegic.value.IntegerValue
40

@<SCITEGIC>MOL_PROPERTY
Probability
SciTegic.value.DoubleValue
28.05

@<SCITEGIC>MOL_PROPERTY
Sum Probability
SciTegic.value.DoubleValue
28.05

@<SCITEGIC>MOL_PROPERTY
Delta G
SciTegic.value.DoubleValue
0.000

@<SCITEGIC>MOL_PROPERTY
G
SciTegic.value.DoubleValue
15.404

@<SCITEGIC>MOL_PROPERTY
E
SciTegic.value.DoubleValue
-2.454

@<SCITEGIC>MOL_PROPERTY
-TS
SciTegic.value.DoubleValue
17.858

@<SCITEGIC>MOL_PROPERTY
U+W
SciTegic.value.DoubleValue
-15.867

@<SCITEGIC>MOL_PROPERTY
U
SciTegic.value.DoubleValue
44.664

@<SCITEGIC>MOL_PROPERTY
W
SciTegic.value.DoubleValue
-60.531

@<SCITEGIC>MOL_PROPERTY
W(PB)
SciTegic.value.DoubleValue
-62.308

@<SCITEGIC>MOL_PROPERTY
W(SA)
SciTegic.value.DoubleValue
1.777

@<SCITEGIC>MOL_PROPERTY
Valence
SciTegic.value.DoubleValue
0.872

@<SCITEGIC>MOL_PROPERTY
Coulomb
SciTegic.value.DoubleValue
43.648

@<SCITEGIC>MOL_PROPERTY
VdW
SciTegic.value.DoubleValue
0.144

@<SCITEGIC>MOL_PROPERTY
VdW6
SciTegic.value.DoubleValue
-2.370

@<SCITEGIC>MOL_PROPERTY
VdW12
SciTegic.value.DoubleValue
2.515

@<SCITEGIC>MOL_PROPERTY
Bond
SciTegic.value.DoubleValue
0.080

@<SCITEGIC>MOL_PROPERTY
Angle
SciTegic.value.DoubleValue
0.376

@<SCITEGIC>MOL_PROPERTY
Pdih
SciTegic.value.DoubleValue
0.416

@<SCITEGIC>MOL_PROPERTY
Idih
SciTegic.value.DoubleValue
0.000

@<SCITEGIC>MOL_PROPERTY
Tether
SciTegic.value.DoubleValue
0.000

