VeraChem MOL file


 20 19  0  0  0  0  0  0  0  0999 V2000     
   19.7358   18.9391   25.6479 N   0  3  0  0  0  0  0  0  0  0  0  0
   20.2632   19.1851   26.4922 H   0  0  0  0  0  0  0  0  0  0  0  0
   18.8387   19.4314   25.7041 H   0  0  0  0  0  0  0  0  0  0  0  0
   19.5331   17.9362   25.7060 H   0  0  0  0  0  0  0  0  0  0  0  0
   20.4973   19.2912   24.3858 C   0  0  0  0  0  0  0  0  0  0  0  0
   21.4511   18.7571   24.4071 H   0  0  0  0  0  0  0  0  0  0  0  0
   20.7045   20.3646   24.4050 H   0  0  0  0  0  0  0  0  0  0  0  0
   19.7326   18.9344   23.0985 C   0  0  0  0  0  0  0  0  0  0  0  0
   19.5127   17.8584   23.0910 H   0  0  0  0  0  0  0  0  0  0  0  0
   18.7685   19.4603   23.0890 H   0  0  0  0  0  0  0  0  0  0  0  0
   20.5421   19.3090   21.8371 C   0  0  0  0  0  0  0  0  0  0  0  0
   21.5081   18.7851   21.8525 H   0  0  0  0  0  0  0  0  0  0  0  0
   20.7647   20.3851   21.8505 H   0  0  0  0  0  0  0  0  0  0  0  0
   19.7839   18.9552   20.5381 C   0  0  0  0  0  0  0  0  0  0  0  0
   19.5610   17.8790   20.5196 H   0  0  0  0  0  0  0  0  0  0  0  0
   18.8178   19.4789   20.5177 H   0  0  0  0  0  0  0  0  0  0  0  0
   20.5964   19.3312   19.2806 C   0  0  0  0  0  0  0  0  0  0  0  0
   20.0420   19.0725   18.3691 H   0  0  0  0  0  0  0  0  0  0  0  0
   20.8056   20.4085   19.2529 H   0  0  0  0  0  0  0  0  0  0  0  0
   21.5547   18.7961   19.2548 H   0  0  0  0  0  0  0  0  0  0  0  0
  1  2  1  0  0  0  0
  1  3  1  0  0  0  0
  1  4  1  0  0  0  0
  1  5  1  0  0  0  0
  5  6  1  0  0  0  0
  5  7  1  0  0  0  0
  5  8  1  0  0  0  0
  8  9  1  0  0  0  0
  8 10  1  0  0  0  0
  8 11  1  0  0  0  0
 11 12  1  0  0  0  0
 11 13  1  0  0  0  0
 11 14  1  0  0  0  0
 14 15  1  0  0  0  0
 14 16  1  0  0  0  0
 14 17  1  0  0  0  0
 17 18  1  0  0  0  0
 17 19  1  0  0  0  0
 17 20  1  0  0  0  0
M  END
> <VM2 Rank>
1

> <Conf_Id>
170

> <Probability>
18.31

> <Sum Probability>
18.31

> <Delta G>
0.000

> <G>
27.005

> <E>
4.317

> <-TS>
22.689

> <U+W>
-11.779

> <U>
45.772

> <W>
-57.550

> <W(PB)>
-59.509

> <W(SA)>
1.960

> <Valence>
1.299

> <Coulomb>
44.177

> <VdW>
0.297

> <VdW6>
-3.490

> <VdW12>
3.786

> <Bond>
0.096

> <Angle>
0.381

> <Pdih>
0.822

> <Idih>
0.000

> <Tether>
0.000

$$$$
