VeraChem MOL file


 20 19  0  0  0  0  0  0  0  0999 V2000     
   19.8544   19.1510   18.8170 C   0  0  0  0  0  0  0  0  0  0  0  0
   20.0357   20.2331   18.7809 H   0  0  0  0  0  0  0  0  0  0  0  0
   20.3379   18.6999   17.9408 H   0  0  0  0  0  0  0  0  0  0  0  0
   18.7732   18.9828   18.7279 H   0  0  0  0  0  0  0  0  0  0  0  0
   20.4072   18.5374   20.1216 C   0  0  0  0  0  0  0  0  0  0  0  0
   21.4948   18.6912   20.1651 H   0  0  0  0  0  0  0  0  0  0  0  0
   20.2421   17.4507   20.1126 H   0  0  0  0  0  0  0  0  0  0  0  0
   19.7440   19.1542   21.3727 C   0  0  0  0  0  0  0  0  0  0  0  0
   19.9122   20.2394   21.3827 H   0  0  0  0  0  0  0  0  0  0  0  0
   18.6579   18.9972   21.3302 H   0  0  0  0  0  0  0  0  0  0  0  0
   20.3006   18.5374   22.6694 C   0  0  0  0  0  0  0  0  0  0  0  0
   21.3792   18.7056   22.7224 H   0  0  0  0  0  0  0  0  0  0  0  0
   20.1208   17.4593   22.6697 H   0  0  0  0  0  0  0  0  0  0  0  0
   19.6775   19.1133   23.9259 N   0  3  0  0  0  0  0  0  0  0  0  0
   18.6546   18.9805   23.9099 H   0  0  0  0  0  0  0  0  0  0  0  0
   19.8196   20.1345   23.9586 H   0  0  0  0  0  0  0  0  0  0  0  0
   20.2824   18.4507   25.1565 C   0  0  0  0  0  0  0  0  0  0  0  0
   20.0902   17.3763   25.1179 H   0  0  0  0  0  0  0  0  0  0  0  0
   21.3591   18.6332   25.1710 H   0  0  0  0  0  0  0  0  0  0  0  0
   19.8251   18.8744   26.0534 H   0  0  0  0  0  0  0  0  0  0  0  0
  1  2  1  0  0  0  0
  1  3  1  0  0  0  0
  1  4  1  0  0  0  0
  1  5  1  0  0  0  0
  5  6  1  0  0  0  0
  5  7  1  0  0  0  0
  5  8  1  0  0  0  0
  8  9  1  0  0  0  0
  8 10  1  0  0  0  0
  8 11  1  0  0  0  0
 11 12  1  0  0  0  0
 11 13  1  0  0  0  0
 11 14  1  0  0  0  0
 14 15  1  0  0  0  0
 14 16  1  0  0  0  0
 14 17  1  0  0  0  0
 17 18  1  0  0  0  0
 17 19  1  0  0  0  0
 17 20  1  0  0  0  0
M  END
> <VM2 Rank>
1

> <Conf_Id>
295

> <Probability>
14.30

> <Sum Probability>
14.30

> <Delta G>
0.000

> <G>
53.936

> <E>
31.434

> <-TS>
22.502

> <U+W>
15.338

> <U>
69.277

> <W>
-53.939

> <W(PB)>
-55.889

> <W(SA)>
1.950

> <Valence>
0.846

> <Coulomb>
68.557

> <VdW>
-0.126

> <VdW6>
-3.008

> <VdW12>
2.882

> <Bond>
0.088

> <Angle>
0.332

> <Pdih>
0.426

> <Idih>
0.000

> <Tether>
0.000

$$$$
