VeraChem MOL file


 29 28  0  0  0  0  0  0  0  0999 V2000     
   19.9950   18.9913   18.8122 C   0  0  0  0  0  0  0  0  0  0  0  0
   20.3035   17.9387   18.7676 H   0  0  0  0  0  0  0  0  0  0  0  0
   19.4252   19.2145   17.9009 H   0  0  0  0  0  0  0  0  0  0  0  0
   20.8996   19.6134   18.8051 H   0  0  0  0  0  0  0  0  0  0  0  0
   19.1426   19.2666   20.0690 C   0  0  0  0  0  0  0  0  0  0  0  0
   18.2298   18.6557   20.0314 H   0  0  0  0  0  0  0  0  0  0  0  0
   18.8212   20.3176   20.0685 H   0  0  0  0  0  0  0  0  0  0  0  0
   19.9220   18.9603   21.3669 C   0  0  0  0  0  0  0  0  0  0  0  0
   20.2432   17.9095   21.3619 H   0  0  0  0  0  0  0  0  0  0  0  0
   20.8346   19.5715   21.3990 H   0  0  0  0  0  0  0  0  0  0  0  0
   19.0717   19.2347   22.6277 C   0  0  0  0  0  0  0  0  0  0  0  0
   18.1592   18.6234   22.5948 H   0  0  0  0  0  0  0  0  0  0  0  0
   18.7506   20.2856   22.6318 H   0  0  0  0  0  0  0  0  0  0  0  0
   19.8518   18.9283   23.9260 C   0  0  0  0  0  0  0  0  0  0  0  0
   20.1729   17.8774   23.9215 H   0  0  0  0  0  0  0  0  0  0  0  0
   20.7644   19.5395   23.9585 H   0  0  0  0  0  0  0  0  0  0  0  0
   19.0013   19.2028   25.1867 C   0  0  0  0  0  0  0  0  0  0  0  0
   18.0885   18.5916   25.1547 H   0  0  0  0  0  0  0  0  0  0  0  0
   18.6800   20.2538   25.1918 H   0  0  0  0  0  0  0  0  0  0  0  0
   19.7803   18.8966   26.4847 C   0  0  0  0  0  0  0  0  0  0  0  0
   20.0987   17.8456   26.4858 H   0  0  0  0  0  0  0  0  0  0  0  0
   20.6907   19.5096   26.5230 H   0  0  0  0  0  0  0  0  0  0  0  0
   18.9245   19.1732   27.7332 C   0  0  0  0  0  0  0  0  0  0  0  0
   18.0245   18.5528   27.7075 H   0  0  0  0  0  0  0  0  0  0  0  0
   18.6188   20.2229   27.7451 H   0  0  0  0  0  0  0  0  0  0  0  0
   19.6549   18.8841   29.0286 N   0  3  0  0  0  0  0  0  0  0  0  0
   19.0673   19.0748   29.8479 H   0  0  0  0  0  0  0  0  0  0  0  0
   20.4995   19.4573   29.1269 H   0  0  0  0  0  0  0  0  0  0  0  0
   19.9465   17.9031   29.0919 H   0  0  0  0  0  0  0  0  0  0  0  0
  1  2  1  0  0  0  0
  1  3  1  0  0  0  0
  1  4  1  0  0  0  0
  1  5  1  0  0  0  0
  5  6  1  0  0  0  0
  5  7  1  0  0  0  0
  5  8  1  0  0  0  0
  8  9  1  0  0  0  0
  8 10  1  0  0  0  0
  8 11  1  0  0  0  0
 11 12  1  0  0  0  0
 11 13  1  0  0  0  0
 11 14  1  0  0  0  0
 14 15  1  0  0  0  0
 14 16  1  0  0  0  0
 14 17  1  0  0  0  0
 17 18  1  0  0  0  0
 17 19  1  0  0  0  0
 17 20  1  0  0  0  0
 20 21  1  0  0  0  0
 20 22  1  0  0  0  0
 20 23  1  0  0  0  0
 23 24  1  0  0  0  0
 23 25  1  0  0  0  0
 23 26  1  0  0  0  0
 26 27  1  0  0  0  0
 26 28  1  0  0  0  0
 26 29  1  0  0  0  0
M  END
> <VM2 Rank>
1

> <Conf_Id>
1428

> <Probability>
5.23

> <Sum Probability>
5.23

> <Delta G>
0.000

> <G>
58.146

> <E>
20.962

> <-TS>
37.184

> <U+W>
-3.182

> <U>
47.674

> <W>
-50.849

> <W(PB)>
-53.429

> <W(SA)>
2.580

> <Valence>
2.587

> <Coulomb>
44.357

> <VdW>
0.730

> <VdW6>
-6.901

> <VdW12>
7.631

> <Bond>
0.145

> <Angle>
0.401

> <Pdih>
2.040

> <Idih>
0.000

> <Tether>
0.000

$$$$
VeraChem MOL file


 29 28  0  0  0  0  0  0  0  0999 V2000     
   19.8617   19.1640   18.8955 C   0  0  0  0  0  0  0  0  0  0  0  0
   19.4179   19.7070   18.0509 H   0  0  0  0  0  0  0  0  0  0  0  0
   20.9427   19.3556   18.8888 H   0  0  0  0  0  0  0  0  0  0  0  0
   19.7036   18.0907   18.7267 H   0  0  0  0  0  0  0  0  0  0  0  0
   19.2267   19.6153   20.2277 C   0  0  0  0  0  0  0  0  0  0  0  0
   18.1420   19.4424   20.1916 H   0  0  0  0  0  0  0  0  0  0  0  0
   19.3714   20.6977   20.3523 H   0  0  0  0  0  0  0  0  0  0  0  0
   19.8344   18.8657   21.4338 C   0  0  0  0  0  0  0  0  0  0  0  0
   19.6894   17.7843   21.3038 H   0  0  0  0  0  0  0  0  0  0  0  0
   20.9190   19.0396   21.4645 H   0  0  0  0  0  0  0  0  0  0  0  0
   19.2011   19.3151   22.7698 C   0  0  0  0  0  0  0  0  0  0  0  0
   18.1166   19.1411   22.7383 H   0  0  0  0  0  0  0  0  0  0  0  0
   19.3463   20.3966   22.8989 H   0  0  0  0  0  0  0  0  0  0  0  0
   19.8094   18.5649   23.9761 C   0  0  0  0  0  0  0  0  0  0  0  0
   19.6647   17.4834   23.8459 H   0  0  0  0  0  0  0  0  0  0  0  0
   20.8939   18.7392   24.0076 H   0  0  0  0  0  0  0  0  0  0  0  0
   19.1756   19.0138   25.3121 C   0  0  0  0  0  0  0  0  0  0  0  0
   18.0915   18.8366   25.2817 H   0  0  0  0  0  0  0  0  0  0  0  0
   19.3187   20.0957   25.4346 H   0  0  0  0  0  0  0  0  0  0  0  0
   19.7866   18.2624   26.5184 C   0  0  0  0  0  0  0  0  0  0  0  0
   19.6718   17.1806   26.3690 H   0  0  0  0  0  0  0  0  0  0  0  0
   20.8657   18.4581   26.5765 H   0  0  0  0  0  0  0  0  0  0  0  0
   19.1220   18.6432   27.8553 C   0  0  0  0  0  0  0  0  0  0  0  0
   19.5349   18.0228   28.6554 H   0  0  0  0  0  0  0  0  0  0  0  0
   18.0464   18.4554   27.7984 H   0  0  0  0  0  0  0  0  0  0  0  0
   19.3263   20.0936   28.2464 N   0  3  0  0  0  0  0  0  0  0  0  0
   20.3206   20.3264   28.3384 H   0  0  0  0  0  0  0  0  0  0  0  0
   18.8827   20.3117   29.1454 H   0  0  0  0  0  0  0  0  0  0  0  0
   18.9280   20.7333   27.5518 H   0  0  0  0  0  0  0  0  0  0  0  0
  1  2  1  0  0  0  0
  1  3  1  0  0  0  0
  1  4  1  0  0  0  0
  1  5  1  0  0  0  0
  5  6  1  0  0  0  0
  5  7  1  0  0  0  0
  5  8  1  0  0  0  0
  8  9  1  0  0  0  0
  8 10  1  0  0  0  0
  8 11  1  0  0  0  0
 11 12  1  0  0  0  0
 11 13  1  0  0  0  0
 11 14  1  0  0  0  0
 14 15  1  0  0  0  0
 14 16  1  0  0  0  0
 14 17  1  0  0  0  0
 17 18  1  0  0  0  0
 17 19  1  0  0  0  0
 17 20  1  0  0  0  0
 20 21  1  0  0  0  0
 20 22  1  0  0  0  0
 20 23  1  0  0  0  0
 23 24  1  0  0  0  0
 23 25  1  0  0  0  0
 23 26  1  0  0  0  0
 26 27  1  0  0  0  0
 26 28  1  0  0  0  0
 26 29  1  0  0  0  0
M  END
> <VM2 Rank>
2

> <Conf_Id>
1882

> <Probability>
3.49

> <Sum Probability>
8.72

> <Delta G>
0.242

> <G>
58.388

> <E>
21.100

> <-TS>
37.288

> <U+W>
-3.045

> <U>
48.292

> <W>
-51.337

> <W(PB)>
-53.876

> <W(SA)>
2.539

> <Valence>
2.685

> <Coulomb>
44.768

> <VdW>
0.839

> <VdW6>
-7.428

> <VdW12>
8.268

> <Bond>
0.165

> <Angle>
0.440

> <Pdih>
2.080

> <Idih>
0.000

> <Tether>
0.000

$$$$
VeraChem MOL file


 29 28  0  0  0  0  0  0  0  0999 V2000     
   19.7817   18.9385   18.8904 C   0  0  0  0  0  0  0  0  0  0  0  0
   20.3390   19.8763   18.7667 H   0  0  0  0  0  0  0  0  0  0  0  0
   20.4990   18.1080   18.8610 H   0  0  0  0  0  0  0  0  0  0  0  0
   19.1067   18.8316   18.0314 H   0  0  0  0  0  0  0  0  0  0  0  0
   18.9855   18.9370   20.2125 C   0  0  0  0  0  0  0  0  0  0  0  0
   18.4128   18.0023   20.2921 H   0  0  0  0  0  0  0  0  0  0  0  0
   18.2539   19.7570   20.1985 H   0  0  0  0  0  0  0  0  0  0  0  0
   19.9129   19.0864   21.4387 C   0  0  0  0  0  0  0  0  0  0  0  0
   20.6438   18.2659   21.4472 H   0  0  0  0  0  0  0  0  0  0  0  0
   20.4848   20.0208   21.3537 H   0  0  0  0  0  0  0  0  0  0  0  0
   19.1192   19.0851   22.7647 C   0  0  0  0  0  0  0  0  0  0  0  0
   18.5473   18.1506   22.8487 H   0  0  0  0  0  0  0  0  0  0  0  0
   18.3884   19.9057   22.7553 H   0  0  0  0  0  0  0  0  0  0  0  0
   20.0475   19.2346   23.9911 C   0  0  0  0  0  0  0  0  0  0  0  0
   20.7780   18.4138   24.0003 H   0  0  0  0  0  0  0  0  0  0  0  0
   20.6197   20.1687   23.9059 H   0  0  0  0  0  0  0  0  0  0  0  0
   19.2538   19.2339   25.3170 C   0  0  0  0  0  0  0  0  0  0  0  0
   18.6802   18.3006   25.3945 H   0  0  0  0  0  0  0  0  0  0  0  0
   18.5253   20.0566   25.3089 H   0  0  0  0  0  0  0  0  0  0  0  0
   20.1849   19.3826   26.5434 C   0  0  0  0  0  0  0  0  0  0  0  0
   20.8975   18.5477   26.5785 H   0  0  0  0  0  0  0  0  0  0  0  0
   20.7807   20.2991   26.4386 H   0  0  0  0  0  0  0  0  0  0  0  0
   19.4104   19.4541   27.8734 C   0  0  0  0  0  0  0  0  0  0  0  0
   18.6955   20.2805   27.8392 H   0  0  0  0  0  0  0  0  0  0  0  0
   20.1109   19.6424   28.6916 H   0  0  0  0  0  0  0  0  0  0  0  0
   18.6481   18.1860   28.2038 N   0  3  0  0  0  0  0  0  0  0  0  0
   19.2711   17.3745   28.2726 H   0  0  0  0  0  0  0  0  0  0  0  0
   17.9452   17.9692   27.4902 H   0  0  0  0  0  0  0  0  0  0  0  0
   18.1538   18.2614   29.0997 H   0  0  0  0  0  0  0  0  0  0  0  0
  1  2  1  0  0  0  0
  1  3  1  0  0  0  0
  1  4  1  0  0  0  0
  1  5  1  0  0  0  0
  5  6  1  0  0  0  0
  5  7  1  0  0  0  0
  5  8  1  0  0  0  0
  8  9  1  0  0  0  0
  8 10  1  0  0  0  0
  8 11  1  0  0  0  0
 11 12  1  0  0  0  0
 11 13  1  0  0  0  0
 11 14  1  0  0  0  0
 14 15  1  0  0  0  0
 14 16  1  0  0  0  0
 14 17  1  0  0  0  0
 17 18  1  0  0  0  0
 17 19  1  0  0  0  0
 17 20  1  0  0  0  0
 20 21  1  0  0  0  0
 20 22  1  0  0  0  0
 20 23  1  0  0  0  0
 23 24  1  0  0  0  0
 23 25  1  0  0  0  0
 23 26  1  0  0  0  0
 26 27  1  0  0  0  0
 26 28  1  0  0  0  0
 26 29  1  0  0  0  0
M  END
> <VM2 Rank>
3

> <Conf_Id>
2851

> <Probability>
3.30

> <Sum Probability>
12.02

> <Delta G>
0.275

> <G>
58.421

> <E>
21.133

> <-TS>
37.288

> <U+W>
-3.012

> <U>
48.292

> <W>
-51.304

> <W(PB)>
-53.855

> <W(SA)>
2.551

> <Valence>
2.685

> <Coulomb>
44.768

> <VdW>
0.839

> <VdW6>
-7.428

> <VdW12>
8.267

> <Bond>
0.165

> <Angle>
0.440

> <Pdih>
2.080

> <Idih>
0.000

> <Tether>
0.000

$$$$
VeraChem MOL file


 29 28  0  0  0  0  0  0  0  0999 V2000     
   20.2026   18.4715   19.1139 C   0  0  0  0  0  0  0  0  0  0  0  0
   20.3372   17.3930   19.2690 H   0  0  0  0  0  0  0  0  0  0  0  0
   19.7631   18.6166   18.1185 H   0  0  0  0  0  0  0  0  0  0  0  0
   21.1937   18.9438   19.1170 H   0  0  0  0  0  0  0  0  0  0  0  0
   19.2951   19.0795   20.2042 C   0  0  0  0  0  0  0  0  0  0  0  0
   18.3019   18.6117   20.1544 H   0  0  0  0  0  0  0  0  0  0  0  0
   19.1517   20.1505   20.0036 H   0  0  0  0  0  0  0  0  0  0  0  0
   19.8913   18.8887   21.6163 C   0  0  0  0  0  0  0  0  0  0  0  0
   20.0352   17.8169   21.8113 H   0  0  0  0  0  0  0  0  0  0  0  0
   20.8848   19.3561   21.6606 H   0  0  0  0  0  0  0  0  0  0  0  0
   18.9852   19.4961   22.7109 C   0  0  0  0  0  0  0  0  0  0  0  0
   17.9920   19.0282   22.6662 H   0  0  0  0  0  0  0  0  0  0  0  0
   18.8412   20.5676   22.5143 H   0  0  0  0  0  0  0  0  0  0  0  0
   19.5822   19.3055   24.1234 C   0  0  0  0  0  0  0  0  0  0  0  0
   19.7294   18.2335   24.3108 H   0  0  0  0  0  0  0  0  0  0  0  0
   20.5741   19.7763   24.1681 H   0  0  0  0  0  0  0  0  0  0  0  0
   18.6723   19.9133   25.2176 C   0  0  0  0  0  0  0  0  0  0  0  0
   17.6897   19.4214   25.1982 H   0  0  0  0  0  0  0  0  0  0  0  0
   18.4935   20.9735   24.9910 H   0  0  0  0  0  0  0  0  0  0  0  0
   19.2752   19.8047   26.6378 C   0  0  0  0  0  0  0  0  0  0  0  0
   20.2461   20.3171   26.6667 H   0  0  0  0  0  0  0  0  0  0  0  0
   18.6202   20.3317   27.3442 H   0  0  0  0  0  0  0  0  0  0  0  0
   19.4455   18.3460   27.1018 C   0  0  0  0  0  0  0  0  0  0  0  0
   20.1313   17.8217   26.4314 H   0  0  0  0  0  0  0  0  0  0  0  0
   18.4789   17.8359   27.0745 H   0  0  0  0  0  0  0  0  0  0  0  0
   19.9945   18.2327   28.5092 N   0  3  0  0  0  0  0  0  0  0  0  0
   20.1003   17.2543   28.7994 H   0  0  0  0  0  0  0  0  0  0  0  0
   19.3804   18.6831   29.1959 H   0  0  0  0  0  0  0  0  0  0  0  0
   20.9172   18.6716   28.5956 H   0  0  0  0  0  0  0  0  0  0  0  0
  1  2  1  0  0  0  0
  1  3  1  0  0  0  0
  1  4  1  0  0  0  0
  1  5  1  0  0  0  0
  5  6  1  0  0  0  0
  5  7  1  0  0  0  0
  5  8  1  0  0  0  0
  8  9  1  0  0  0  0
  8 10  1  0  0  0  0
  8 11  1  0  0  0  0
 11 12  1  0  0  0  0
 11 13  1  0  0  0  0
 11 14  1  0  0  0  0
 14 15  1  0  0  0  0
 14 16  1  0  0  0  0
 14 17  1  0  0  0  0
 17 18  1  0  0  0  0
 17 19  1  0  0  0  0
 17 20  1  0  0  0  0
 20 21  1  0  0  0  0
 20 22  1  0  0  0  0
 20 23  1  0  0  0  0
 23 24  1  0  0  0  0
 23 25  1  0  0  0  0
 23 26  1  0  0  0  0
 26 27  1  0  0  0  0
 26 28  1  0  0  0  0
 26 29  1  0  0  0  0
M  END
> <VM2 Rank>
4

> <Conf_Id>
1252

> <Probability>
2.24

> <Sum Probability>
14.25

> <Delta G>
0.507

> <G>
58.653

> <E>
21.369

> <-TS>
37.284

> <U+W>
-2.775

> <U>
48.481

> <W>
-51.256

> <W(PB)>
-53.824

> <W(SA)>
2.568

> <Valence>
2.887

> <Coulomb>
44.808

> <VdW>
0.785

> <VdW6>
-7.506

> <VdW12>
8.292

> <Bond>
0.167

> <Angle>
0.525

> <Pdih>
2.195

> <Idih>
0.000

> <Tether>
0.000

$$$$
VeraChem MOL file


 29 28  0  0  0  0  0  0  0  0999 V2000     
   20.4800   19.2505   19.1313 C   0  0  0  0  0  0  0  0  0  0  0  0
   21.2638   19.9940   19.3271 H   0  0  0  0  0  0  0  0  0  0  0  0
   20.9493   18.2585   19.1016 H   0  0  0  0  0  0  0  0  0  0  0  0
   20.0618   19.4555   18.1373 H   0  0  0  0  0  0  0  0  0  0  0  0
   19.3773   19.3103   20.2094 C   0  0  0  0  0  0  0  0  0  0  0  0
   18.5920   18.5800   19.9685 H   0  0  0  0  0  0  0  0  0  0  0  0
   18.9041   20.3021   20.1923 H   0  0  0  0  0  0  0  0  0  0  0  0
   19.9399   19.0250   21.6193 C   0  0  0  0  0  0  0  0  0  0  0  0
   20.4137   18.0337   21.6309 H   0  0  0  0  0  0  0  0  0  0  0  0
   20.7259   19.7559   21.8547 H   0  0  0  0  0  0  0  0  0  0  0  0
   18.8385   19.0840   22.7017 C   0  0  0  0  0  0  0  0  0  0  0  0
   18.0526   18.3534   22.4649 H   0  0  0  0  0  0  0  0  0  0  0  0
   18.3651   20.0756   22.6896 H   0  0  0  0  0  0  0  0  0  0  0  0
   19.4016   18.7982   24.1121 C   0  0  0  0  0  0  0  0  0  0  0  0
   19.8722   17.8054   24.1240 H   0  0  0  0  0  0  0  0  0  0  0  0
   20.1904   19.5277   24.3397 H   0  0  0  0  0  0  0  0  0  0  0  0
   18.2970   18.8593   25.1940 C   0  0  0  0  0  0  0  0  0  0  0  0
   17.4919   18.1604   24.9282 H   0  0  0  0  0  0  0  0  0  0  0  0
   17.8465   19.8615   25.2080 H   0  0  0  0  0  0  0  0  0  0  0  0
   18.8129   18.5062   26.6088 C   0  0  0  0  0  0  0  0  0  0  0  0
   17.9623   18.4841   27.3030 H   0  0  0  0  0  0  0  0  0  0  0  0
   19.2413   17.4951   26.6037 H   0  0  0  0  0  0  0  0  0  0  0  0
   19.8598   19.5095   27.1277 C   0  0  0  0  0  0  0  0  0  0  0  0
   19.4333   20.5162   27.1341 H   0  0  0  0  0  0  0  0  0  0  0  0
   20.7321   19.5087   26.4691 H   0  0  0  0  0  0  0  0  0  0  0  0
   20.3370   19.1948   28.5307 N   0  3  0  0  0  0  0  0  0  0  0  0
   19.5668   19.2070   29.2076 H   0  0  0  0  0  0  0  0  0  0  0  0
   21.0331   19.8739   28.8577 H   0  0  0  0  0  0  0  0  0  0  0  0
   20.7736   18.2687   28.5867 H   0  0  0  0  0  0  0  0  0  0  0  0
  1  2  1  0  0  0  0
  1  3  1  0  0  0  0
  1  4  1  0  0  0  0
  1  5  1  0  0  0  0
  5  6  1  0  0  0  0
  5  7  1  0  0  0  0
  5  8  1  0  0  0  0
  8  9  1  0  0  0  0
  8 10  1  0  0  0  0
  8 11  1  0  0  0  0
 11 12  1  0  0  0  0
 11 13  1  0  0  0  0
 11 14  1  0  0  0  0
 14 15  1  0  0  0  0
 14 16  1  0  0  0  0
 14 17  1  0  0  0  0
 17 18  1  0  0  0  0
 17 19  1  0  0  0  0
 17 20  1  0  0  0  0
 20 21  1  0  0  0  0
 20 22  1  0  0  0  0
 20 23  1  0  0  0  0
 23 24  1  0  0  0  0
 23 25  1  0  0  0  0
 23 26  1  0  0  0  0
 26 27  1  0  0  0  0
 26 28  1  0  0  0  0
 26 29  1  0  0  0  0
M  END
> <VM2 Rank>
5

> <Conf_Id>
1893

> <Probability>
2.20

> <Sum Probability>
16.46

> <Delta G>
0.516

> <G>
58.662

> <E>
21.378

> <-TS>
37.284

> <U+W>
-2.766

> <U>
48.481

> <W>
-51.248

> <W(PB)>
-53.779

> <W(SA)>
2.532

> <Valence>
2.887

> <Coulomb>
44.809

> <VdW>
0.786

> <VdW6>
-7.506

> <VdW12>
8.292

> <Bond>
0.167

> <Angle>
0.525

> <Pdih>
2.195

> <Idih>
0.000

> <Tether>
0.000

$$$$
VeraChem MOL file


 29 28  0  0  0  0  0  0  0  0999 V2000     
   18.9501   18.2474   19.5328 C   0  0  0  0  0  0  0  0  0  0  0  0
   18.1067   17.9969   20.1881 H   0  0  0  0  0  0  0  0  0  0  0  0
   18.5591   18.3346   18.5109 H   0  0  0  0  0  0  0  0  0  0  0  0
   19.6604   17.4106   19.5503 H   0  0  0  0  0  0  0  0  0  0  0  0
   19.6329   19.5648   19.9648 C   0  0  0  0  0  0  0  0  0  0  0  0
   18.8953   20.3795   19.9682 H   0  0  0  0  0  0  0  0  0  0  0  0
   20.3870   19.8358   19.2127 H   0  0  0  0  0  0  0  0  0  0  0  0
   20.3210   19.4761   21.3483 C   0  0  0  0  0  0  0  0  0  0  0  0
   21.0715   18.6738   21.3338 H   0  0  0  0  0  0  0  0  0  0  0  0
   20.8710   20.4108   21.5245 H   0  0  0  0  0  0  0  0  0  0  0  0
   19.3316   19.2444   22.5153 C   0  0  0  0  0  0  0  0  0  0  0  0
   18.8251   18.2785   22.3896 H   0  0  0  0  0  0  0  0  0  0  0  0
   18.5527   20.0191   22.4950 H   0  0  0  0  0  0  0  0  0  0  0  0
   20.0460   19.2666   23.8855 C   0  0  0  0  0  0  0  0  0  0  0  0
   20.8275   18.4943   23.9037 H   0  0  0  0  0  0  0  0  0  0  0  0
   20.5507   20.2332   24.0209 H   0  0  0  0  0  0  0  0  0  0  0  0
   19.0602   19.0314   25.0522 C   0  0  0  0  0  0  0  0  0  0  0  0
   18.5557   18.0644   24.9180 H   0  0  0  0  0  0  0  0  0  0  0  0
   18.2781   19.8033   25.0338 H   0  0  0  0  0  0  0  0  0  0  0  0
   19.7734   19.0540   26.4219 C   0  0  0  0  0  0  0  0  0  0  0  0
   20.5525   18.2804   26.4461 H   0  0  0  0  0  0  0  0  0  0  0  0
   20.2746   20.0211   26.5621 H   0  0  0  0  0  0  0  0  0  0  0  0
   18.7831   18.8190   27.5760 C   0  0  0  0  0  0  0  0  0  0  0  0
   18.2938   17.8494   27.4496 H   0  0  0  0  0  0  0  0  0  0  0  0
   18.0145   19.5966   27.5658 H   0  0  0  0  0  0  0  0  0  0  0  0
   19.4458   18.8343   28.9382 N   0  3  0  0  0  0  0  0  0  0  0  0
   18.7689   18.6760   29.6929 H   0  0  0  0  0  0  0  0  0  0  0  0
   19.9029   19.7319   29.1305 H   0  0  0  0  0  0  0  0  0  0  0  0
   20.1628   18.1060   29.0224 H   0  0  0  0  0  0  0  0  0  0  0  0
  1  2  1  0  0  0  0
  1  3  1  0  0  0  0
  1  4  1  0  0  0  0
  1  5  1  0  0  0  0
  5  6  1  0  0  0  0
  5  7  1  0  0  0  0
  5  8  1  0  0  0  0
  8  9  1  0  0  0  0
  8 10  1  0  0  0  0
  8 11  1  0  0  0  0
 11 12  1  0  0  0  0
 11 13  1  0  0  0  0
 11 14  1  0  0  0  0
 14 15  1  0  0  0  0
 14 16  1  0  0  0  0
 14 17  1  0  0  0  0
 17 18  1  0  0  0  0
 17 19  1  0  0  0  0
 17 20  1  0  0  0  0
 20 21  1  0  0  0  0
 20 22  1  0  0  0  0
 20 23  1  0  0  0  0
 23 24  1  0  0  0  0
 23 25  1  0  0  0  0
 23 26  1  0  0  0  0
 26 27  1  0  0  0  0
 26 28  1  0  0  0  0
 26 29  1  0  0  0  0
M  END
> <VM2 Rank>
6

> <Conf_Id>
2214

> <Probability>
1.77

> <Sum Probability>
18.23

> <Delta G>
0.646

> <G>
58.792

> <E>
21.497

> <-TS>
37.295

> <U+W>
-2.648

> <U>
48.301

> <W>
-50.948

> <W(PB)>
-53.520

> <W(SA)>
2.572

> <Valence>
3.091

> <Coulomb>
44.344

> <VdW>
0.866

> <VdW6>
-7.521

> <VdW12>
8.387

> <Bond>
0.180

> <Angle>
0.641

> <Pdih>
2.270

> <Idih>
0.000

> <Tether>
0.000

$$$$
VeraChem MOL file


 29 28  0  0  0  0  0  0  0  0999 V2000     
   19.6453   20.1989   19.5765 C   0  0  0  0  0  0  0  0  0  0  0  0
   19.1407   20.8998   20.2530 H   0  0  0  0  0  0  0  0  0  0  0  0
   20.7242   20.3971   19.6171 H   0  0  0  0  0  0  0  0  0  0  0  0
   19.3016   20.4190   18.5575 H   0  0  0  0  0  0  0  0  0  0  0  0
   19.3357   18.7306   19.9462 C   0  0  0  0  0  0  0  0  0  0  0  0
   19.7596   18.0741   19.1734 H   0  0  0  0  0  0  0  0  0  0  0  0
   18.2494   18.5659   19.9276 H   0  0  0  0  0  0  0  0  0  0  0  0
   19.9055   18.3095   21.3222 C   0  0  0  0  0  0  0  0  0  0  0  0
   19.7387   17.2314   21.4534 H   0  0  0  0  0  0  0  0  0  0  0  0
   20.9943   18.4570   21.3291 H   0  0  0  0  0  0  0  0  0  0  0  0
   19.2685   19.0676   22.5114 C   0  0  0  0  0  0  0  0  0  0  0  0
   18.1757   18.9606   22.4714 H   0  0  0  0  0  0  0  0  0  0  0  0
   19.4878   20.1404   22.4312 H   0  0  0  0  0  0  0  0  0  0  0  0
   19.7890   18.5449   23.8694 C   0  0  0  0  0  0  0  0  0  0  0  0
   19.5678   17.4724   23.9592 H   0  0  0  0  0  0  0  0  0  0  0  0
   20.8823   18.6486   23.9071 H   0  0  0  0  0  0  0  0  0  0  0  0
   19.1569   19.3033   25.0583 C   0  0  0  0  0  0  0  0  0  0  0  0
   18.0634   19.2002   25.0205 H   0  0  0  0  0  0  0  0  0  0  0  0
   19.3782   20.3761   24.9696 H   0  0  0  0  0  0  0  0  0  0  0  0
   19.6764   18.7813   26.4158 C   0  0  0  0  0  0  0  0  0  0  0  0
   19.4524   17.7104   26.5106 H   0  0  0  0  0  0  0  0  0  0  0  0
   20.7686   18.8876   26.4596 H   0  0  0  0  0  0  0  0  0  0  0  0
   19.0408   19.5429   27.5921 C   0  0  0  0  0  0  0  0  0  0  0  0
   17.9541   19.4262   27.5623 H   0  0  0  0  0  0  0  0  0  0  0  0
   19.2751   20.6078   27.5110 H   0  0  0  0  0  0  0  0  0  0  0  0
   19.5260   19.0589   28.9432 N   0  3  0  0  0  0  0  0  0  0  0  0
   19.3113   18.0675   29.0934 H   0  0  0  0  0  0  0  0  0  0  0  0
   19.0906   19.5791   29.7130 H   0  0  0  0  0  0  0  0  0  0  0  0
   20.5406   19.1671   29.0458 H   0  0  0  0  0  0  0  0  0  0  0  0
  1  2  1  0  0  0  0
  1  3  1  0  0  0  0
  1  4  1  0  0  0  0
  1  5  1  0  0  0  0
  5  6  1  0  0  0  0
  5  7  1  0  0  0  0
  5  8  1  0  0  0  0
  8  9  1  0  0  0  0
  8 10  1  0  0  0  0
  8 11  1  0  0  0  0
 11 12  1  0  0  0  0
 11 13  1  0  0  0  0
 11 14  1  0  0  0  0
 14 15  1  0  0  0  0
 14 16  1  0  0  0  0
 14 17  1  0  0  0  0
 17 18  1  0  0  0  0
 17 19  1  0  0  0  0
 17 20  1  0  0  0  0
 20 21  1  0  0  0  0
 20 22  1  0  0  0  0
 20 23  1  0  0  0  0
 23 24  1  0  0  0  0
 23 25  1  0  0  0  0
 23 26  1  0  0  0  0
 26 27  1  0  0  0  0
 26 28  1  0  0  0  0
 26 29  1  0  0  0  0
M  END
> <VM2 Rank>
7

> <Conf_Id>
1863

> <Probability>
1.74

> <Sum Probability>
19.97

> <Delta G>
0.657

> <G>
58.803

> <E>
21.508

> <-TS>
37.295

> <U+W>
-2.637

> <U>
48.301

> <W>
-50.937

> <W(PB)>
-53.502

> <W(SA)>
2.565

> <Valence>
3.090

> <Coulomb>
44.344

> <VdW>
0.866

> <VdW6>
-7.521

> <VdW12>
8.387

> <Bond>
0.180

> <Angle>
0.641

> <Pdih>
2.270

> <Idih>
0.000

> <Tether>
0.000

$$$$
VeraChem MOL file


 29 28  0  0  0  0  0  0  0  0999 V2000     
   20.2307   18.4039   19.2510 C   0  0  0  0  0  0  0  0  0  0  0  0
   21.2152   18.8892   19.2280 H   0  0  0  0  0  0  0  0  0  0  0  0
   20.3529   17.3759   18.8859 H   0  0  0  0  0  0  0  0  0  0  0  0
   19.5717   18.9338   18.5509 H   0  0  0  0  0  0  0  0  0  0  0  0
   19.6436   18.4090   20.6783 C   0  0  0  0  0  0  0  0  0  0  0  0
   20.3083   17.8363   21.3386 H   0  0  0  0  0  0  0  0  0  0  0  0
   18.6739   17.8919   20.6751 H   0  0  0  0  0  0  0  0  0  0  0  0
   19.4663   19.8485   21.2163 C   0  0  0  0  0  0  0  0  0  0  0  0
   20.4439   20.3471   21.2696 H   0  0  0  0  0  0  0  0  0  0  0  0
   18.8650   20.4253   20.5001 H   0  0  0  0  0  0  0  0  0  0  0  0
   18.7748   19.9126   22.6003 C   0  0  0  0  0  0  0  0  0  0  0  0
   17.7908   19.4272   22.5423 H   0  0  0  0  0  0  0  0  0  0  0  0
   18.5848   20.9668   22.8449 H   0  0  0  0  0  0  0  0  0  0  0  0
   19.6067   19.2735   23.7381 C   0  0  0  0  0  0  0  0  0  0  0  0
   19.7410   18.2008   23.5472 H   0  0  0  0  0  0  0  0  0  0  0  0
   20.6090   19.7232   23.7568 H   0  0  0  0  0  0  0  0  0  0  0  0
   18.9316   19.4605   25.1156 C   0  0  0  0  0  0  0  0  0  0  0  0
   17.9273   19.0145   25.0960 H   0  0  0  0  0  0  0  0  0  0  0  0
   18.7995   20.5325   25.3184 H   0  0  0  0  0  0  0  0  0  0  0  0
   19.7571   18.8201   26.2531 C   0  0  0  0  0  0  0  0  0  0  0  0
   19.8864   17.7472   26.0577 H   0  0  0  0  0  0  0  0  0  0  0  0
   20.7601   19.2666   26.2787 H   0  0  0  0  0  0  0  0  0  0  0  0
   19.0764   19.0127   27.6195 C   0  0  0  0  0  0  0  0  0  0  0  0
   18.0834   18.5553   27.6041 H   0  0  0  0  0  0  0  0  0  0  0  0
   18.9606   20.0802   27.8261 H   0  0  0  0  0  0  0  0  0  0  0  0
   19.8569   18.3972   28.7628 N   0  3  0  0  0  0  0  0  0  0  0  0
   19.3865   18.5367   29.6639 H   0  0  0  0  0  0  0  0  0  0  0  0
   20.7939   18.8050   28.8487 H   0  0  0  0  0  0  0  0  0  0  0  0
   19.9775   17.3860   28.6422 H   0  0  0  0  0  0  0  0  0  0  0  0
  1  2  1  0  0  0  0
  1  3  1  0  0  0  0
  1  4  1  0  0  0  0
  1  5  1  0  0  0  0
  5  6  1  0  0  0  0
  5  7  1  0  0  0  0
  5  8  1  0  0  0  0
  8  9  1  0  0  0  0
  8 10  1  0  0  0  0
  8 11  1  0  0  0  0
 11 12  1  0  0  0  0
 11 13  1  0  0  0  0
 11 14  1  0  0  0  0
 14 15  1  0  0  0  0
 14 16  1  0  0  0  0
 14 17  1  0  0  0  0
 17 18  1  0  0  0  0
 17 19  1  0  0  0  0
 17 20  1  0  0  0  0
 20 21  1  0  0  0  0
 20 22  1  0  0  0  0
 20 23  1  0  0  0  0
 23 24  1  0  0  0  0
 23 25  1  0  0  0  0
 23 26  1  0  0  0  0
 26 27  1  0  0  0  0
 26 28  1  0  0  0  0
 26 29  1  0  0  0  0
M  END
> <VM2 Rank>
8

> <Conf_Id>
1544

> <Probability>
1.69

> <Sum Probability>
21.65

> <Delta G>
0.675

> <G>
58.821

> <E>
21.537

> <-TS>
37.284

> <U+W>
-2.608

> <U>
48.495

> <W>
-51.102

> <W(PB)>
-53.636

> <W(SA)>
2.533

> <Valence>
3.129

> <Coulomb>
44.512

> <VdW>
0.854

> <VdW6>
-7.566

> <VdW12>
8.420

> <Bond>
0.184

> <Angle>
0.664

> <Pdih>
2.281

> <Idih>
0.000

> <Tether>
0.000

$$$$
