@<TRIPOS>MOLECULE
guest-s13_vm2.mol2 : vm2 ligand conformer 1
          26          25           1
SMALL
USER_CHARGES
 
@<TRIPOS>ATOM
       1    C1      20.241437   18.656342   18.805950 C.3        1 MOL1        -0.2398
       2    H1      19.604631   19.497257   18.501677 H          1 MOL1         0.0972
       3    H2      21.055747   18.568658   18.075021 H          1 MOL1         0.0972
       4    H3      19.642380   17.737779   18.754826 H          1 MOL1         0.0972
       5    C2      20.805058   18.872790   20.226379 C.3        1 MOL1        -0.1383
       6    H4      21.426479   19.779235   20.237700 H          1 MOL1         0.0961
       7    H5      21.464105   18.033293   20.488713 H          1 MOL1         0.0961
       8    C3      19.678458   18.999511   21.275693 C.3        1 MOL1        -0.1407
       9    H6      19.020834   19.837747   21.006704 H          1 MOL1         0.0961
      10    H7      19.059137   18.091945   21.259404 H          1 MOL1         0.0961
      11    C4      20.238918   19.217250   22.699440 C.3        1 MOL1        -0.1407
      12    H8      20.855085   20.127092   22.715078 H          1 MOL1         0.0961
      13    H9      20.899831   18.379137   22.957572 H          1 MOL1         0.0961
      14    C5      19.107592   19.342333   23.748804 C.3        1 MOL1        -0.1472
      15    H10     18.428042   20.149185   23.443331 H          1 MOL1         0.0961
      16    H11     18.511763   18.419978   23.764565 H          1 MOL1         0.0961
      17    C6      19.633144   19.645592   25.168773 C.3        1 MOL1         0.1190
      18    H12     20.241886   20.553881   25.122267 H          1 MOL1         0.0923
      19    C7      18.460536   19.899595   26.129598 C.3        1 MOL1        -0.2463
      20    H13     17.844626   20.737658   25.780258 H          1 MOL1         0.0972
      21    H14     18.827554   20.152074   27.132059 H          1 MOL1         0.0972
      22    H15     17.817286   19.014694   26.213821 H          1 MOL1         0.0972
      23    N1      20.522858   18.554587   25.699364 N.4        1 MOL1        -0.5974
      24    H16     21.333706   18.404925   25.093131 H          1 MOL1         0.3625
      25    H17     20.876873   18.781423   26.632982 H          1 MOL1         0.3625
      26    H18     20.021683   17.665101   25.769647 H          1 MOL1         0.3625
@<TRIPOS>BOND
    1     1     2    1
    2     1     3    1
    3     1     4    1
    4     1     5    1
    5     5     6    1
    6     5     7    1
    7     5     8    1
    8     8     9    1
    9     8    10    1
   10     8    11    1
   11    11    12    1
   12    11    13    1
   13    11    14    1
   14    14    15    1
   15    14    16    1
   16    14    17    1
   17    17    18    1
   18    17    19    1
   19    19    20    1
   20    19    21    1
   21    19    22    1
   22    17    23    1
   23    23    24    1
   24    23    25    1
   25    23    26    1
@<TRIPOS>SUBSTRUCTURE
       1 MOL1            1 RESIDUE      1      MOL     
@<SCITEGIC>MOL_PROPERTY
VM2 Rank
SciTegic.value.IntegerValue
1

@<SCITEGIC>MOL_PROPERTY
Conf_Id
SciTegic.value.IntegerValue
326

@<SCITEGIC>MOL_PROPERTY
Probability
SciTegic.value.DoubleValue
16.98

@<SCITEGIC>MOL_PROPERTY
Sum Probability
SciTegic.value.DoubleValue
16.98

@<SCITEGIC>MOL_PROPERTY
Delta G
SciTegic.value.DoubleValue
0.000

@<SCITEGIC>MOL_PROPERTY
G
SciTegic.value.DoubleValue
23.710

@<SCITEGIC>MOL_PROPERTY
E
SciTegic.value.DoubleValue
-8.843

@<SCITEGIC>MOL_PROPERTY
-TS
SciTegic.value.DoubleValue
32.553

@<SCITEGIC>MOL_PROPERTY
U+W
SciTegic.value.DoubleValue
-30.305

@<SCITEGIC>MOL_PROPERTY
U
SciTegic.value.DoubleValue
23.517

@<SCITEGIC>MOL_PROPERTY
W
SciTegic.value.DoubleValue
-53.813

@<SCITEGIC>MOL_PROPERTY
W(PB)
SciTegic.value.DoubleValue
-56.159

@<SCITEGIC>MOL_PROPERTY
W(SA)
SciTegic.value.DoubleValue
2.346

@<SCITEGIC>MOL_PROPERTY
Valence
SciTegic.value.DoubleValue
2.737

@<SCITEGIC>MOL_PROPERTY
Coulomb
SciTegic.value.DoubleValue
19.862

@<SCITEGIC>MOL_PROPERTY
VdW
SciTegic.value.DoubleValue
0.919

@<SCITEGIC>MOL_PROPERTY
VdW6
SciTegic.value.DoubleValue
-6.793

@<SCITEGIC>MOL_PROPERTY
VdW12
SciTegic.value.DoubleValue
7.712

@<SCITEGIC>MOL_PROPERTY
Bond
SciTegic.value.DoubleValue
0.171

@<SCITEGIC>MOL_PROPERTY
Angle
SciTegic.value.DoubleValue
0.873

@<SCITEGIC>MOL_PROPERTY
Pdih
SciTegic.value.DoubleValue
1.693

@<SCITEGIC>MOL_PROPERTY
Idih
SciTegic.value.DoubleValue
0.000

@<SCITEGIC>MOL_PROPERTY
Tether
SciTegic.value.DoubleValue
0.000

@<TRIPOS>MOLECULE
guest-s13_vm2.mol2 : vm2 ligand conformer 2
          26          25           1
SMALL
USER_CHARGES
 
@<TRIPOS>ATOM
       1    C1      20.264824   18.643738   18.802551 C.3        1 MOL1        -0.2398
       2    H1      20.317531   19.278313   17.908356 H          1 MOL1         0.0972
       3    H2      21.173505   18.028430   18.833112 H          1 MOL1         0.0972
       4    H3      19.402090   17.974178   18.690206 H          1 MOL1         0.0972
       5    C2      20.135660   19.506162   20.075997 C.3        1 MOL1        -0.1383
       6    H4      19.237056   20.134493   20.000922 H          1 MOL1         0.0961
       7    H5      20.994797   20.188321   20.142914 H          1 MOL1         0.0961
       8    C3      20.059512   18.636601   21.350541 C.3        1 MOL1        -0.1407
       9    H6      19.200450   17.955219   21.278206 H          1 MOL1         0.0961
      10    H7      20.958497   18.008387   21.418601 H          1 MOL1         0.0961
      11    C4      19.930454   19.496840   22.628152 C.3        1 MOL1        -0.1407
      12    H8      19.034567   20.126040   22.545538 H          1 MOL1         0.0961
      13    H9      20.792289   20.174543   22.702243 H          1 MOL1         0.0961
      14    C5      19.849879   18.622204   23.903584 C.3        1 MOL1        -0.1472
      15    H10     18.953129   17.989652   23.862954 H          1 MOL1         0.0961
      16    H11     20.710867   17.940808   23.914781 H          1 MOL1         0.0961
      17    C6      19.853470   19.435472   25.218313 C.3        1 MOL1         0.1190
      18    H12     20.732588   20.087270   25.216089 H          1 MOL1         0.0923
      19    C7      18.596848   20.312964   25.361752 C.3        1 MOL1        -0.2463
      20    H13     17.682541   19.709186   25.305391 H          1 MOL1         0.0972
      21    H14     18.552761   21.078149   24.578248 H          1 MOL1         0.0972
      22    H15     18.599476   20.836654   26.325635 H          1 MOL1         0.0972
      23    N1      19.997354   18.534019   26.413110 N.4        1 MOL1        -0.5974
      24    H16     19.207699   17.887683   26.491916 H          1 MOL1         0.3625
      25    H17     20.851324   17.971309   26.360766 H          1 MOL1         0.3625
      26    H18     20.040296   19.070969   27.283921 H          1 MOL1         0.3625
@<TRIPOS>BOND
    1     1     2    1
    2     1     3    1
    3     1     4    1
    4     1     5    1
    5     5     6    1
    6     5     7    1
    7     5     8    1
    8     8     9    1
    9     8    10    1
   10     8    11    1
   11    11    12    1
   12    11    13    1
   13    11    14    1
   14    14    15    1
   15    14    16    1
   16    14    17    1
   17    17    18    1
   18    17    19    1
   19    19    20    1
   20    19    21    1
   21    19    22    1
   22    17    23    1
   23    23    24    1
   24    23    25    1
   25    23    26    1
@<TRIPOS>SUBSTRUCTURE
       1 MOL1            1 RESIDUE      1      MOL     
@<SCITEGIC>MOL_PROPERTY
VM2 Rank
SciTegic.value.IntegerValue
2

@<SCITEGIC>MOL_PROPERTY
Conf_Id
SciTegic.value.IntegerValue
54

@<SCITEGIC>MOL_PROPERTY
Probability
SciTegic.value.DoubleValue
7.67

@<SCITEGIC>MOL_PROPERTY
Sum Probability
SciTegic.value.DoubleValue
24.64

@<SCITEGIC>MOL_PROPERTY
Delta G
SciTegic.value.DoubleValue
0.474

@<SCITEGIC>MOL_PROPERTY
G
SciTegic.value.DoubleValue
24.184

@<SCITEGIC>MOL_PROPERTY
E
SciTegic.value.DoubleValue
-8.383

@<SCITEGIC>MOL_PROPERTY
-TS
SciTegic.value.DoubleValue
32.567

@<SCITEGIC>MOL_PROPERTY
U+W
SciTegic.value.DoubleValue
-29.845

@<SCITEGIC>MOL_PROPERTY
U
SciTegic.value.DoubleValue
23.817

@<SCITEGIC>MOL_PROPERTY
W
SciTegic.value.DoubleValue
-53.663

@<SCITEGIC>MOL_PROPERTY
W(PB)
SciTegic.value.DoubleValue
-56.021

@<SCITEGIC>MOL_PROPERTY
W(SA)
SciTegic.value.DoubleValue
2.358

@<SCITEGIC>MOL_PROPERTY
Valence
SciTegic.value.DoubleValue
3.277

@<SCITEGIC>MOL_PROPERTY
Coulomb
SciTegic.value.DoubleValue
19.492

@<SCITEGIC>MOL_PROPERTY
VdW
SciTegic.value.DoubleValue
1.049

@<SCITEGIC>MOL_PROPERTY
VdW6
SciTegic.value.DoubleValue
-6.949

@<SCITEGIC>MOL_PROPERTY
VdW12
SciTegic.value.DoubleValue
7.998

@<SCITEGIC>MOL_PROPERTY
Bond
SciTegic.value.DoubleValue
0.183

@<SCITEGIC>MOL_PROPERTY
Angle
SciTegic.value.DoubleValue
1.152

@<SCITEGIC>MOL_PROPERTY
Pdih
SciTegic.value.DoubleValue
1.942

@<SCITEGIC>MOL_PROPERTY
Idih
SciTegic.value.DoubleValue
0.000

@<SCITEGIC>MOL_PROPERTY
Tether
SciTegic.value.DoubleValue
0.000

@<TRIPOS>MOLECULE
guest-s13_vm2.mol2 : vm2 ligand conformer 3
          26          25           1
SMALL
USER_CHARGES
 
@<TRIPOS>ATOM
       1    C1      20.361123   18.766475   18.898832 C.3        1 MOL1        -0.2398
       2    H1      21.356485   19.225007   18.833719 H          1 MOL1         0.0972
       3    H2      20.328931   17.928947   18.189922 H          1 MOL1         0.0972
       4    H3      19.620457   19.509781   18.576109 H          1 MOL1         0.0972
       5    C2      20.068129   18.277917   20.333257 C.3        1 MOL1        -0.1383
       6    H4      20.804142   17.511785   20.614749 H          1 MOL1         0.0961
       7    H5      19.081484   17.794406   20.359117 H          1 MOL1         0.0961
       8    C3      20.107374   19.438493   21.352057 C.3        1 MOL1        -0.1407
       9    H6      21.094628   19.919909   21.320160 H          1 MOL1         0.0961
      10    H7      19.371837   20.202631   21.064765 H          1 MOL1         0.0961
      11    C4      19.814269   18.953442   22.789919 C.3        1 MOL1        -0.1407
      12    H8      20.551516   18.189267   23.069365 H          1 MOL1         0.0961
      13    H9      18.828611   18.470199   22.809774 H          1 MOL1         0.0961
      14    C5      19.852277   20.123842   23.806969 C.3        1 MOL1        -0.1472
      15    H10     20.825510   20.627693   23.740541 H          1 MOL1         0.0961
      16    H11     19.103522   20.875360   23.523472 H          1 MOL1         0.0961
      17    C6      19.613302   19.715676   25.280025 C.3        1 MOL1         0.1190
      18    H12     19.696579   20.623240   25.886027 H          1 MOL1         0.0923
      19    C7      18.203960   19.138300   25.499371 C.3        1 MOL1        -0.2463
      20    H13     18.078477   18.171786   24.997110 H          1 MOL1         0.0972
      21    H14     17.437564   19.825549   25.120054 H          1 MOL1         0.0972
      22    H15     18.014123   18.986615   26.569012 H          1 MOL1         0.0972
      23    N1      20.667566   18.773855   25.793571 N.4        1 MOL1        -0.5974
      24    H16     20.650901   17.885271   25.287219 H          1 MOL1         0.3625
      25    H17     21.606482   19.169550   25.691916 H          1 MOL1         0.3625
      26    H18     20.530289   18.564046   26.786323 H          1 MOL1         0.3625
@<TRIPOS>BOND
    1     1     2    1
    2     1     3    1
    3     1     4    1
    4     1     5    1
    5     5     6    1
    6     5     7    1
    7     5     8    1
    8     8     9    1
    9     8    10    1
   10     8    11    1
   11    11    12    1
   12    11    13    1
   13    11    14    1
   14    14    15    1
   15    14    16    1
   16    14    17    1
   17    17    18    1
   18    17    19    1
   19    19    20    1
   20    19    21    1
   21    19    22    1
   22    17    23    1
   23    23    24    1
   24    23    25    1
   25    23    26    1
@<TRIPOS>SUBSTRUCTURE
       1 MOL1            1 RESIDUE      1      MOL     
@<SCITEGIC>MOL_PROPERTY
VM2 Rank
SciTegic.value.IntegerValue
3

@<SCITEGIC>MOL_PROPERTY
Conf_Id
SciTegic.value.IntegerValue
130

@<SCITEGIC>MOL_PROPERTY
Probability
SciTegic.value.DoubleValue
7.18

@<SCITEGIC>MOL_PROPERTY
Sum Probability
SciTegic.value.DoubleValue
31.82

@<SCITEGIC>MOL_PROPERTY
Delta G
SciTegic.value.DoubleValue
0.513

@<SCITEGIC>MOL_PROPERTY
G
SciTegic.value.DoubleValue
24.223

@<SCITEGIC>MOL_PROPERTY
E
SciTegic.value.DoubleValue
-8.475

@<SCITEGIC>MOL_PROPERTY
-TS
SciTegic.value.DoubleValue
32.698

@<SCITEGIC>MOL_PROPERTY
U+W
SciTegic.value.DoubleValue
-29.937

@<SCITEGIC>MOL_PROPERTY
U
SciTegic.value.DoubleValue
24.060

@<SCITEGIC>MOL_PROPERTY
W
SciTegic.value.DoubleValue
-53.997

@<SCITEGIC>MOL_PROPERTY
W(PB)
SciTegic.value.DoubleValue
-56.328

@<SCITEGIC>MOL_PROPERTY
W(SA)
SciTegic.value.DoubleValue
2.332

@<SCITEGIC>MOL_PROPERTY
Valence
SciTegic.value.DoubleValue
3.249

@<SCITEGIC>MOL_PROPERTY
Coulomb
SciTegic.value.DoubleValue
19.781

@<SCITEGIC>MOL_PROPERTY
VdW
SciTegic.value.DoubleValue
1.030

@<SCITEGIC>MOL_PROPERTY
VdW6
SciTegic.value.DoubleValue
-7.421

@<SCITEGIC>MOL_PROPERTY
VdW12
SciTegic.value.DoubleValue
8.450

@<SCITEGIC>MOL_PROPERTY
Bond
SciTegic.value.DoubleValue
0.207

@<SCITEGIC>MOL_PROPERTY
Angle
SciTegic.value.DoubleValue
1.205

@<SCITEGIC>MOL_PROPERTY
Pdih
SciTegic.value.DoubleValue
1.837

@<SCITEGIC>MOL_PROPERTY
Idih
SciTegic.value.DoubleValue
0.000

@<SCITEGIC>MOL_PROPERTY
Tether
SciTegic.value.DoubleValue
0.000

@<TRIPOS>MOLECULE
guest-s13_vm2.mol2 : vm2 ligand conformer 4
          26          25           1
SMALL
USER_CHARGES
 
@<TRIPOS>ATOM
       1    C1      21.048551   19.537007   19.591155 C.3        1 MOL1        -0.2398
       2    H1      20.377232   20.364187   19.326340 H          1 MOL1         0.0972
       3    H2      21.741494   19.890125   20.364832 H          1 MOL1         0.0972
       4    H3      21.644291   19.290708   18.702691 H          1 MOL1         0.0972
       5    C2      20.248976   18.302238   20.065284 C.3        1 MOL1        -0.1383
       6    H4      20.943338   17.500277   20.352458 H          1 MOL1         0.0961
       7    H5      19.663578   17.913741   19.220189 H          1 MOL1         0.0961
       8    C3      19.285874   18.606078   21.238231 C.3        1 MOL1        -0.1407
       9    H6      18.578765   19.391465   20.937471 H          1 MOL1         0.0961
      10    H7      18.684368   17.708235   21.436870 H          1 MOL1         0.0961
      11    C4      20.011616   19.026050   22.538981 C.3        1 MOL1        -0.1407
      12    H8      20.556814   19.965025   22.375336 H          1 MOL1         0.0961
      13    H9      20.757004   18.262322   22.797269 H          1 MOL1         0.0961
      14    C5      19.018966   19.215554   23.711799 C.3        1 MOL1        -0.1472
      15    H10     18.249287   19.938977   23.411182 H          1 MOL1         0.0961
      16    H11     18.498396   18.270211   23.915013 H          1 MOL1         0.0961
      17    C6      19.700062   19.720883   25.002212 C.3        1 MOL1         0.1190
      18    H12     20.230023   20.649575   24.769011 H          1 MOL1         0.0923
      19    C7      18.646115   20.024411   26.079127 C.3        1 MOL1        -0.2463
      20    H13     18.085224   19.121566   26.351489 H          1 MOL1         0.0972
      21    H14     17.930919   20.776691   25.723741 H          1 MOL1         0.0972
      22    H15     19.120255   20.418948   26.986267 H          1 MOL1         0.0972
      23    N1      20.727839   18.755780   25.527212 N.4        1 MOL1        -0.5974
      24    H16     21.182479   19.115732   26.371103 H          1 MOL1         0.3625
      25    H17     20.305781   17.854912   25.767208 H          1 MOL1         0.3625
      26    H18     21.461842   18.578472   24.836416 H          1 MOL1         0.3625
@<TRIPOS>BOND
    1     1     2    1
    2     1     3    1
    3     1     4    1
    4     1     5    1
    5     5     6    1
    6     5     7    1
    7     5     8    1
    8     8     9    1
    9     8    10    1
   10     8    11    1
   11    11    12    1
   12    11    13    1
   13    11    14    1
   14    14    15    1
   15    14    16    1
   16    14    17    1
   17    17    18    1
   18    17    19    1
   19    19    20    1
   20    19    21    1
   21    19    22    1
   22    17    23    1
   23    23    24    1
   24    23    25    1
   25    23    26    1
@<TRIPOS>SUBSTRUCTURE
       1 MOL1            1 RESIDUE      1      MOL     
@<SCITEGIC>MOL_PROPERTY
VM2 Rank
SciTegic.value.IntegerValue
4

@<SCITEGIC>MOL_PROPERTY
Conf_Id
SciTegic.value.IntegerValue
772

@<SCITEGIC>MOL_PROPERTY
Probability
SciTegic.value.DoubleValue
6.42

@<SCITEGIC>MOL_PROPERTY
Sum Probability
SciTegic.value.DoubleValue
38.24

@<SCITEGIC>MOL_PROPERTY
Delta G
SciTegic.value.DoubleValue
0.580

@<SCITEGIC>MOL_PROPERTY
G
SciTegic.value.DoubleValue
24.290

@<SCITEGIC>MOL_PROPERTY
E
SciTegic.value.DoubleValue
-8.375

@<SCITEGIC>MOL_PROPERTY
-TS
SciTegic.value.DoubleValue
32.665

@<SCITEGIC>MOL_PROPERTY
U+W
SciTegic.value.DoubleValue
-29.837

@<SCITEGIC>MOL_PROPERTY
U
SciTegic.value.DoubleValue
24.148

@<SCITEGIC>MOL_PROPERTY
W
SciTegic.value.DoubleValue
-53.985

@<SCITEGIC>MOL_PROPERTY
W(PB)
SciTegic.value.DoubleValue
-56.298

@<SCITEGIC>MOL_PROPERTY
W(SA)
SciTegic.value.DoubleValue
2.313

@<SCITEGIC>MOL_PROPERTY
Valence
SciTegic.value.DoubleValue
3.242

@<SCITEGIC>MOL_PROPERTY
Coulomb
SciTegic.value.DoubleValue
19.863

@<SCITEGIC>MOL_PROPERTY
VdW
SciTegic.value.DoubleValue
1.043

@<SCITEGIC>MOL_PROPERTY
VdW6
SciTegic.value.DoubleValue
-7.422

@<SCITEGIC>MOL_PROPERTY
VdW12
SciTegic.value.DoubleValue
8.465

@<SCITEGIC>MOL_PROPERTY
Bond
SciTegic.value.DoubleValue
0.206

@<SCITEGIC>MOL_PROPERTY
Angle
SciTegic.value.DoubleValue
1.112

@<SCITEGIC>MOL_PROPERTY
Pdih
SciTegic.value.DoubleValue
1.924

@<SCITEGIC>MOL_PROPERTY
Idih
SciTegic.value.DoubleValue
0.000

@<SCITEGIC>MOL_PROPERTY
Tether
SciTegic.value.DoubleValue
0.000

@<TRIPOS>MOLECULE
guest-s13_vm2.mol2 : vm2 ligand conformer 5
          26          25           1
SMALL
USER_CHARGES
 
@<TRIPOS>ATOM
       1    C1      21.069763   18.017662   19.828535 C.3        1 MOL1        -0.2398
       2    H1      20.411709   17.139097   19.817704 H          1 MOL1         0.0972
       3    H2      21.658044   18.007675   18.901840 H          1 MOL1         0.0972
       4    H3      21.771553   17.912119   20.665011 H          1 MOL1         0.0972
       5    C2      20.250982   19.324254   19.934867 C.3        1 MOL1        -0.1383
       6    H4      19.658165   19.445786   19.017476 H          1 MOL1         0.0961
       7    H5      20.932616   20.185304   19.976455 H          1 MOL1         0.0961
       8    C3      19.294309   19.354451   21.151277 C.3        1 MOL1        -0.1407
       9    H6      18.676333   20.260586   21.085294 H          1 MOL1         0.0961
      10    H7      18.601700   18.503357   21.094308 H          1 MOL1         0.0961
      11    C4      20.028185   19.340070   22.513783 C.3        1 MOL1        -0.1407
      12    H8      20.754323   20.164118   22.547108 H          1 MOL1         0.0961
      13    H9      20.596510   18.407025   22.613650 H          1 MOL1         0.0961
      14    C5      19.039550   19.475551   23.697544 C.3        1 MOL1        -0.1472
      15    H10     18.443357   20.387482   23.559753 H          1 MOL1         0.0961
      16    H11     18.332951   18.634935   23.689166 H          1 MOL1         0.0961
      17    C6      19.746315   19.546714   25.068701 C.3        1 MOL1         0.1190
      18    H12     20.461673   20.374553   25.043037 H          1 MOL1         0.0923
      19    C7      18.724608   19.826632   26.182472 C.3        1 MOL1        -0.2463
      20    H13     17.982157   19.021722   26.251741 H          1 MOL1         0.0972
      21    H14     18.192039   20.767489   25.995694 H          1 MOL1         0.0972
      22    H15     19.224586   19.915129   27.154872 H          1 MOL1         0.0972
      23    N1      20.534289   18.302667   25.376821 N.4        1 MOL1        -0.5974
      24    H16     21.010312   18.375670   26.280429 H          1 MOL1         0.3625
      25    H17     19.929807   17.477764   25.414871 H          1 MOL1         0.3625
      26    H18     21.250679   18.128095   24.667135 H          1 MOL1         0.3625
@<TRIPOS>BOND
    1     1     2    1
    2     1     3    1
    3     1     4    1
    4     1     5    1
    5     5     6    1
    6     5     7    1
    7     5     8    1
    8     8     9    1
    9     8    10    1
   10     8    11    1
   11    11    12    1
   12    11    13    1
   13    11    14    1
   14    14    15    1
   15    14    16    1
   16    14    17    1
   17    17    18    1
   18    17    19    1
   19    19    20    1
   20    19    21    1
   21    19    22    1
   22    17    23    1
   23    23    24    1
   24    23    25    1
   25    23    26    1
@<TRIPOS>SUBSTRUCTURE
       1 MOL1            1 RESIDUE      1      MOL     
@<SCITEGIC>MOL_PROPERTY
VM2 Rank
SciTegic.value.IntegerValue
5

@<SCITEGIC>MOL_PROPERTY
Conf_Id
SciTegic.value.IntegerValue
1321

@<SCITEGIC>MOL_PROPERTY
Probability
SciTegic.value.DoubleValue
6.02

@<SCITEGIC>MOL_PROPERTY
Sum Probability
SciTegic.value.DoubleValue
44.26

@<SCITEGIC>MOL_PROPERTY
Delta G
SciTegic.value.DoubleValue
0.618

@<SCITEGIC>MOL_PROPERTY
G
SciTegic.value.DoubleValue
24.327

@<SCITEGIC>MOL_PROPERTY
E
SciTegic.value.DoubleValue
-8.331

@<SCITEGIC>MOL_PROPERTY
-TS
SciTegic.value.DoubleValue
32.658

@<SCITEGIC>MOL_PROPERTY
U+W
SciTegic.value.DoubleValue
-29.792

@<SCITEGIC>MOL_PROPERTY
U
SciTegic.value.DoubleValue
24.259

@<SCITEGIC>MOL_PROPERTY
W
SciTegic.value.DoubleValue
-54.052

@<SCITEGIC>MOL_PROPERTY
W(PB)
SciTegic.value.DoubleValue
-56.355

@<SCITEGIC>MOL_PROPERTY
W(SA)
SciTegic.value.DoubleValue
2.304

@<SCITEGIC>MOL_PROPERTY
Valence
SciTegic.value.DoubleValue
3.240

@<SCITEGIC>MOL_PROPERTY
Coulomb
SciTegic.value.DoubleValue
19.971

@<SCITEGIC>MOL_PROPERTY
VdW
SciTegic.value.DoubleValue
1.049

@<SCITEGIC>MOL_PROPERTY
VdW6
SciTegic.value.DoubleValue
-7.432

@<SCITEGIC>MOL_PROPERTY
VdW12
SciTegic.value.DoubleValue
8.481

@<SCITEGIC>MOL_PROPERTY
Bond
SciTegic.value.DoubleValue
0.208

@<SCITEGIC>MOL_PROPERTY
Angle
SciTegic.value.DoubleValue
1.110

@<SCITEGIC>MOL_PROPERTY
Pdih
SciTegic.value.DoubleValue
1.922

@<SCITEGIC>MOL_PROPERTY
Idih
SciTegic.value.DoubleValue
0.000

@<SCITEGIC>MOL_PROPERTY
Tether
SciTegic.value.DoubleValue
0.000

@<TRIPOS>MOLECULE
guest-s13_vm2.mol2 : vm2 ligand conformer 6
          26          25           1
SMALL
USER_CHARGES
 
@<TRIPOS>ATOM
       1    C1      19.926735   18.437572   19.084870 C.3        1 MOL1        -0.2398
       2    H1      19.585166   17.479449   18.672114 H          1 MOL1         0.0972
       3    H2      19.223716   19.215025   18.758420 H          1 MOL1         0.0972
       4    H3      20.909531   18.660507   18.649399 H          1 MOL1         0.0972
       5    C2      20.003744   18.371036   20.624961 C.3        1 MOL1        -0.1383
       6    H4      20.690836   17.565943   20.920652 H          1 MOL1         0.0961
       7    H5      19.013854   18.106464   21.019790 H          1 MOL1         0.0961
       8    C3      20.479444   19.712815   21.230354 C.3        1 MOL1        -0.1407
       9    H6      21.433593   19.996273   20.764904 H          1 MOL1         0.0961
      10    H7      19.764901   20.507820   20.976033 H          1 MOL1         0.0961
      11    C4      20.677510   19.663333   22.765272 C.3        1 MOL1        -0.1407
      12    H8      21.115730   20.617294   23.090155 H          1 MOL1         0.0961
      13    H9      21.412841   18.884856   23.008698 H          1 MOL1         0.0961
      14    C5      19.362254   19.420206   23.548881 C.3        1 MOL1        -0.1472
      15    H10     18.607885   20.142672   23.209937 H          1 MOL1         0.0961
      16    H11     18.966319   18.421803   23.324100 H          1 MOL1         0.0961
      17    C6      19.539702   19.565233   25.075777 C.3        1 MOL1         0.1190
      18    H12     19.949588   20.559132   25.280370 H          1 MOL1         0.0923
      19    C7      18.181359   19.448211   25.785625 C.3        1 MOL1        -0.2463
      20    H13     17.726844   18.464434   25.613876 H          1 MOL1         0.0972
      21    H14     17.484724   20.214375   25.423106 H          1 MOL1         0.0972
      22    H15     18.295402   19.587839   26.867691 H          1 MOL1         0.0972
      23    N1      20.517251   18.569594   25.638261 N.4        1 MOL1        -0.5974
      24    H16     20.201900   17.608392   25.483761 H          1 MOL1         0.3625
      25    H17     21.439436   18.665323   25.204850 H          1 MOL1         0.3625
      26    H18     20.639069   18.693840   26.647287 H          1 MOL1         0.3625
@<TRIPOS>BOND
    1     1     2    1
    2     1     3    1
    3     1     4    1
    4     1     5    1
    5     5     6    1
    6     5     7    1
    7     5     8    1
    8     8     9    1
    9     8    10    1
   10     8    11    1
   11    11    12    1
   12    11    13    1
   13    11    14    1
   14    14    15    1
   15    14    16    1
   16    14    17    1
   17    17    18    1
   18    17    19    1
   19    19    20    1
   20    19    21    1
   21    19    22    1
   22    17    23    1
   23    23    24    1
   24    23    25    1
   25    23    26    1
@<TRIPOS>SUBSTRUCTURE
       1 MOL1            1 RESIDUE      1      MOL     
@<SCITEGIC>MOL_PROPERTY
VM2 Rank
SciTegic.value.IntegerValue
6

@<SCITEGIC>MOL_PROPERTY
Conf_Id
SciTegic.value.IntegerValue
470

@<SCITEGIC>MOL_PROPERTY
Probability
SciTegic.value.DoubleValue
5.28

@<SCITEGIC>MOL_PROPERTY
Sum Probability
SciTegic.value.DoubleValue
49.54

@<SCITEGIC>MOL_PROPERTY
Delta G
SciTegic.value.DoubleValue
0.696

@<SCITEGIC>MOL_PROPERTY
G
SciTegic.value.DoubleValue
24.406

@<SCITEGIC>MOL_PROPERTY
E
SciTegic.value.DoubleValue
-8.262

@<SCITEGIC>MOL_PROPERTY
-TS
SciTegic.value.DoubleValue
32.668

@<SCITEGIC>MOL_PROPERTY
U+W
SciTegic.value.DoubleValue
-29.724

@<SCITEGIC>MOL_PROPERTY
U
SciTegic.value.DoubleValue
24.276

@<SCITEGIC>MOL_PROPERTY
W
SciTegic.value.DoubleValue
-54.000

@<SCITEGIC>MOL_PROPERTY
W(PB)
SciTegic.value.DoubleValue
-56.312

@<SCITEGIC>MOL_PROPERTY
W(SA)
SciTegic.value.DoubleValue
2.312

@<SCITEGIC>MOL_PROPERTY
Valence
SciTegic.value.DoubleValue
3.269

@<SCITEGIC>MOL_PROPERTY
Coulomb
SciTegic.value.DoubleValue
20.007

@<SCITEGIC>MOL_PROPERTY
VdW
SciTegic.value.DoubleValue
1.000

@<SCITEGIC>MOL_PROPERTY
VdW6
SciTegic.value.DoubleValue
-7.483

@<SCITEGIC>MOL_PROPERTY
VdW12
SciTegic.value.DoubleValue
8.483

@<SCITEGIC>MOL_PROPERTY
Bond
SciTegic.value.DoubleValue
0.211

@<SCITEGIC>MOL_PROPERTY
Angle
SciTegic.value.DoubleValue
1.103

@<SCITEGIC>MOL_PROPERTY
Pdih
SciTegic.value.DoubleValue
1.955

@<SCITEGIC>MOL_PROPERTY
Idih
SciTegic.value.DoubleValue
0.000

@<SCITEGIC>MOL_PROPERTY
Tether
SciTegic.value.DoubleValue
0.000

@<TRIPOS>MOLECULE
guest-s13_vm2.mol2 : vm2 ligand conformer 7
          26          25           1
SMALL
USER_CHARGES
 
@<TRIPOS>ATOM
       1    C1      20.897221   19.564201   19.339833 C.3        1 MOL1        -0.2398
       2    H1      21.306253   19.076807   18.445304 H          1 MOL1         0.0972
       3    H2      20.061999   20.202637   19.023535 H          1 MOL1         0.0972
       4    H3      21.680241   20.208767   19.760122 H          1 MOL1         0.0972
       5    C2      20.432485   18.512253   20.369178 C.3        1 MOL1        -0.1383
       6    H4      21.280837   17.868477   20.640736 H          1 MOL1         0.0961
       7    H5      19.675624   17.861777   19.908774 H          1 MOL1         0.0961
       8    C3      19.850956   19.172463   21.638807 C.3        1 MOL1        -0.1407
       9    H6      20.612020   19.827446   22.083219 H          1 MOL1         0.0961
      10    H7      19.002319   19.812978   21.361369 H          1 MOL1         0.0961
      11    C4      19.386707   18.118552   22.672652 C.3        1 MOL1        -0.1407
      12    H8      20.236456   17.490111   22.970945 H          1 MOL1         0.0961
      13    H9      18.662961   17.442985   22.196019 H          1 MOL1         0.0961
      14    C5      18.722501   18.743568   23.926279 C.3        1 MOL1        -0.1472
      15    H10     17.818452   19.283449   23.614500 H          1 MOL1         0.0961
      16    H11     18.383968   17.937856   24.591187 H          1 MOL1         0.0961
      17    C6      19.636972   19.707197   24.715701 C.3        1 MOL1         0.1190
      18    H12     19.948734   20.513582   24.045373 H          1 MOL1         0.0923
      19    C7      18.867859   20.332321   25.890366 C.3        1 MOL1        -0.2463
      20    H13     17.983289   20.873923   25.532705 H          1 MOL1         0.0972
      21    H14     19.499625   21.047516   26.431405 H          1 MOL1         0.0972
      22    H15     18.534779   19.565079   26.600495 H          1 MOL1         0.0972
      23    N1      20.893300   19.037445   25.201184 N.4        1 MOL1        -0.5974
      24    H16     20.682071   18.268365   25.842395 H          1 MOL1         0.3625
      25    H17     21.433064   18.650738   24.422243 H          1 MOL1         0.3625
      26    H18     21.499975   19.694630   25.699595 H          1 MOL1         0.3625
@<TRIPOS>BOND
    1     1     2    1
    2     1     3    1
    3     1     4    1
    4     1     5    1
    5     5     6    1
    6     5     7    1
    7     5     8    1
    8     8     9    1
    9     8    10    1
   10     8    11    1
   11    11    12    1
   12    11    13    1
   13    11    14    1
   14    14    15    1
   15    14    16    1
   16    14    17    1
   17    17    18    1
   18    17    19    1
   19    19    20    1
   20    19    21    1
   21    19    22    1
   22    17    23    1
   23    23    24    1
   24    23    25    1
   25    23    26    1
@<TRIPOS>SUBSTRUCTURE
       1 MOL1            1 RESIDUE      1      MOL     
@<SCITEGIC>MOL_PROPERTY
VM2 Rank
SciTegic.value.IntegerValue
7

@<SCITEGIC>MOL_PROPERTY
Conf_Id
SciTegic.value.IntegerValue
999

@<SCITEGIC>MOL_PROPERTY
Probability
SciTegic.value.DoubleValue
5.27

@<SCITEGIC>MOL_PROPERTY
Sum Probability
SciTegic.value.DoubleValue
54.81

@<SCITEGIC>MOL_PROPERTY
Delta G
SciTegic.value.DoubleValue
0.697

@<SCITEGIC>MOL_PROPERTY
G
SciTegic.value.DoubleValue
24.407

@<SCITEGIC>MOL_PROPERTY
E
SciTegic.value.DoubleValue
-8.338

@<SCITEGIC>MOL_PROPERTY
-TS
SciTegic.value.DoubleValue
32.745

@<SCITEGIC>MOL_PROPERTY
U+W
SciTegic.value.DoubleValue
-29.800

@<SCITEGIC>MOL_PROPERTY
U
SciTegic.value.DoubleValue
24.149

@<SCITEGIC>MOL_PROPERTY
W
SciTegic.value.DoubleValue
-53.948

@<SCITEGIC>MOL_PROPERTY
W(PB)
SciTegic.value.DoubleValue
-56.254

@<SCITEGIC>MOL_PROPERTY
W(SA)
SciTegic.value.DoubleValue
2.306

@<SCITEGIC>MOL_PROPERTY
Valence
SciTegic.value.DoubleValue
3.038

@<SCITEGIC>MOL_PROPERTY
Coulomb
SciTegic.value.DoubleValue
20.324

@<SCITEGIC>MOL_PROPERTY
VdW
SciTegic.value.DoubleValue
0.787

@<SCITEGIC>MOL_PROPERTY
VdW6
SciTegic.value.DoubleValue
-7.686

@<SCITEGIC>MOL_PROPERTY
VdW12
SciTegic.value.DoubleValue
8.473

@<SCITEGIC>MOL_PROPERTY
Bond
SciTegic.value.DoubleValue
0.201

@<SCITEGIC>MOL_PROPERTY
Angle
SciTegic.value.DoubleValue
1.089

@<SCITEGIC>MOL_PROPERTY
Pdih
SciTegic.value.DoubleValue
1.748

@<SCITEGIC>MOL_PROPERTY
Idih
SciTegic.value.DoubleValue
0.000

@<SCITEGIC>MOL_PROPERTY
Tether
SciTegic.value.DoubleValue
0.000

@<TRIPOS>MOLECULE
guest-s13_vm2.mol2 : vm2 ligand conformer 8
          26          25           1
SMALL
USER_CHARGES
 
@<TRIPOS>ATOM
       1    C1      19.881667   18.933581   18.977679 C.3        1 MOL1        -0.2398
       2    H1      19.471723   19.709073   18.317678 H          1 MOL1         0.0972
       3    H2      20.878093   18.665112   18.603129 H          1 MOL1         0.0972
       4    H3      19.236832   18.048573   18.898965 H          1 MOL1         0.0972
       5    C2      19.953299   19.439541   20.434115 C.3        1 MOL1        -0.1383
       6    H4      18.946658   19.736359   20.756561 H          1 MOL1         0.0961
       7    H5      20.580713   20.340836   20.475714 H          1 MOL1         0.0961
       8    C3      20.524467   18.360562   21.384547 C.3        1 MOL1        -0.1407
       9    H6      19.865791   17.481109   21.385575 H          1 MOL1         0.0961
      10    H7      21.492702   18.019017   20.993027 H          1 MOL1         0.0961
      11    C4      20.731943   18.856280   22.837070 C.3        1 MOL1        -0.1407
      12    H8      21.392224   19.734639   22.834390 H          1 MOL1         0.0961
      13    H9      21.264268   18.071268   23.389961 H          1 MOL1         0.0961
      14    C5      19.408814   19.199153   23.569285 C.3        1 MOL1        -0.1472
      15    H10     18.891269   20.000179   23.027297 H          1 MOL1         0.0961
      16    H11     18.740554   18.327918   23.557002 H          1 MOL1         0.0961
      17    C6      19.629441   19.663056   25.025822 C.3        1 MOL1         0.1190
      18    H12     20.325362   20.507620   25.014912 H          1 MOL1         0.0923
      19    C7      18.303680   20.138784   25.641517 C.3        1 MOL1        -0.2463
      20    H13     17.875405   20.962658   25.057102 H          1 MOL1         0.0972
      21    H14     18.459150   20.502988   26.664535 H          1 MOL1         0.0972
      22    H15     17.567652   19.325777   25.676197 H          1 MOL1         0.0972
      23    N1      20.254688   18.597043   25.883965 N.4        1 MOL1        -0.5974
      24    H16     21.162109   18.302406   25.513742 H          1 MOL1         0.3625
      25    H17     20.408174   18.929033   26.840324 H          1 MOL1         0.3625
      26    H18     19.659812   17.766220   25.940019 H          1 MOL1         0.3625
@<TRIPOS>BOND
    1     1     2    1
    2     1     3    1
    3     1     4    1
    4     1     5    1
    5     5     6    1
    6     5     7    1
    7     5     8    1
    8     8     9    1
    9     8    10    1
   10     8    11    1
   11    11    12    1
   12    11    13    1
   13    11    14    1
   14    14    15    1
   15    14    16    1
   16    14    17    1
   17    17    18    1
   18    17    19    1
   19    19    20    1
   20    19    21    1
   21    19    22    1
   22    17    23    1
   23    23    24    1
   24    23    25    1
   25    23    26    1
@<TRIPOS>SUBSTRUCTURE
       1 MOL1            1 RESIDUE      1      MOL     
@<SCITEGIC>MOL_PROPERTY
VM2 Rank
SciTegic.value.IntegerValue
8

@<SCITEGIC>MOL_PROPERTY
Conf_Id
SciTegic.value.IntegerValue
1138

@<SCITEGIC>MOL_PROPERTY
Probability
SciTegic.value.DoubleValue
4.36

@<SCITEGIC>MOL_PROPERTY
Sum Probability
SciTegic.value.DoubleValue
59.17

@<SCITEGIC>MOL_PROPERTY
Delta G
SciTegic.value.DoubleValue
0.810

@<SCITEGIC>MOL_PROPERTY
G
SciTegic.value.DoubleValue
24.520

@<SCITEGIC>MOL_PROPERTY
E
SciTegic.value.DoubleValue
-8.102

@<SCITEGIC>MOL_PROPERTY
-TS
SciTegic.value.DoubleValue
32.622

@<SCITEGIC>MOL_PROPERTY
U+W
SciTegic.value.DoubleValue
-29.564

@<SCITEGIC>MOL_PROPERTY
U
SciTegic.value.DoubleValue
24.282

@<SCITEGIC>MOL_PROPERTY
W
SciTegic.value.DoubleValue
-53.846

@<SCITEGIC>MOL_PROPERTY
W(PB)
SciTegic.value.DoubleValue
-56.207

@<SCITEGIC>MOL_PROPERTY
W(SA)
SciTegic.value.DoubleValue
2.361

@<SCITEGIC>MOL_PROPERTY
Valence
SciTegic.value.DoubleValue
3.311

@<SCITEGIC>MOL_PROPERTY
Coulomb
SciTegic.value.DoubleValue
19.887

@<SCITEGIC>MOL_PROPERTY
VdW
SciTegic.value.DoubleValue
1.083

@<SCITEGIC>MOL_PROPERTY
VdW6
SciTegic.value.DoubleValue
-7.444

@<SCITEGIC>MOL_PROPERTY
VdW12
SciTegic.value.DoubleValue
8.527

@<SCITEGIC>MOL_PROPERTY
Bond
SciTegic.value.DoubleValue
0.219

@<SCITEGIC>MOL_PROPERTY
Angle
SciTegic.value.DoubleValue
1.167

@<SCITEGIC>MOL_PROPERTY
Pdih
SciTegic.value.DoubleValue
1.926

@<SCITEGIC>MOL_PROPERTY
Idih
SciTegic.value.DoubleValue
0.000

@<SCITEGIC>MOL_PROPERTY
Tether
SciTegic.value.DoubleValue
0.000

@<TRIPOS>MOLECULE
guest-s13_vm2.mol2 : vm2 ligand conformer 9
          26          25           1
SMALL
USER_CHARGES
 
@<TRIPOS>ATOM
       1    C1      20.963576   19.512824   19.355351 C.3        1 MOL1        -0.2398
       2    H1      20.661462   19.625980   18.306083 H          1 MOL1         0.0972
       3    H2      21.365243   20.476055   19.696052 H          1 MOL1         0.0972
       4    H3      21.772518   18.771692   19.395017 H          1 MOL1         0.0972
       5    C2      19.765286   19.073064   20.223007 C.3        1 MOL1        -0.1383
       6    H4      19.364151   18.125548   19.836715 H          1 MOL1         0.0961
       7    H5      18.960547   19.816640   20.136890 H          1 MOL1         0.0961
       8    C3      20.163862   18.905484   21.705915 C.3        1 MOL1        -0.1407
       9    H6      20.967048   18.160006   21.786745 H          1 MOL1         0.0961
      10    H7      20.571391   19.855204   22.077228 H          1 MOL1         0.0961
      11    C4      18.962248   18.468236   22.577537 C.3        1 MOL1        -0.1407
      12    H8      18.532725   17.546774   22.160741 H          1 MOL1         0.0961
      13    H9      18.166851   19.223173   22.521410 H          1 MOL1         0.0961
      14    C5      19.343785   18.205210   24.057337 C.3        1 MOL1        -0.1472
      15    H10     18.447809   17.885236   24.605625 H          1 MOL1         0.0961
      16    H11     20.039497   17.356371   24.089854 H          1 MOL1         0.0961
      17    C6      19.990358   19.403718   24.791576 C.3        1 MOL1         0.1190
      18    H12     20.883743   19.706884   24.237725 H          1 MOL1         0.0923
      19    C7      19.038894   20.610356   24.878984 C.3        1 MOL1        -0.2463
      20    H13     18.797922   20.999818   23.883018 H          1 MOL1         0.0972
      21    H14     19.502700   21.428308   25.443865 H          1 MOL1         0.0972
      22    H15     18.100570   20.340324   25.379229 H          1 MOL1         0.0972
      23    N1      20.459989   19.009108   26.164293 N.4        1 MOL1        -0.5974
      24    H16     19.679374   18.712928   26.756249 H          1 MOL1         0.3625
      25    H17     21.128279   18.234141   26.126370 H          1 MOL1         0.3625
      26    H18     20.924497   19.788192   26.639373 H          1 MOL1         0.3625
@<TRIPOS>BOND
    1     1     2    1
    2     1     3    1
    3     1     4    1
    4     1     5    1
    5     5     6    1
    6     5     7    1
    7     5     8    1
    8     8     9    1
    9     8    10    1
   10     8    11    1
   11    11    12    1
   12    11    13    1
   13    11    14    1
   14    14    15    1
   15    14    16    1
   16    14    17    1
   17    17    18    1
   18    17    19    1
   19    19    20    1
   20    19    21    1
   21    19    22    1
   22    17    23    1
   23    23    24    1
   24    23    25    1
   25    23    26    1
@<TRIPOS>SUBSTRUCTURE
       1 MOL1            1 RESIDUE      1      MOL     
@<SCITEGIC>MOL_PROPERTY
VM2 Rank
SciTegic.value.IntegerValue
9

@<SCITEGIC>MOL_PROPERTY
Conf_Id
SciTegic.value.IntegerValue
1085

@<SCITEGIC>MOL_PROPERTY
Probability
SciTegic.value.DoubleValue
3.73

@<SCITEGIC>MOL_PROPERTY
Sum Probability
SciTegic.value.DoubleValue
62.90

@<SCITEGIC>MOL_PROPERTY
Delta G
SciTegic.value.DoubleValue
0.903

@<SCITEGIC>MOL_PROPERTY
G
SciTegic.value.DoubleValue
24.613

@<SCITEGIC>MOL_PROPERTY
E
SciTegic.value.DoubleValue
-8.229

@<SCITEGIC>MOL_PROPERTY
-TS
SciTegic.value.DoubleValue
32.842

@<SCITEGIC>MOL_PROPERTY
U+W
SciTegic.value.DoubleValue
-29.691

@<SCITEGIC>MOL_PROPERTY
U
SciTegic.value.DoubleValue
24.335

@<SCITEGIC>MOL_PROPERTY
W
SciTegic.value.DoubleValue
-54.027

@<SCITEGIC>MOL_PROPERTY
W(PB)
SciTegic.value.DoubleValue
-56.341

@<SCITEGIC>MOL_PROPERTY
W(SA)
SciTegic.value.DoubleValue
2.315

@<SCITEGIC>MOL_PROPERTY
Valence
SciTegic.value.DoubleValue
3.530

@<SCITEGIC>MOL_PROPERTY
Coulomb
SciTegic.value.DoubleValue
19.945

@<SCITEGIC>MOL_PROPERTY
VdW
SciTegic.value.DoubleValue
0.861

@<SCITEGIC>MOL_PROPERTY
VdW6
SciTegic.value.DoubleValue
-7.915

@<SCITEGIC>MOL_PROPERTY
VdW12
SciTegic.value.DoubleValue
8.775

@<SCITEGIC>MOL_PROPERTY
Bond
SciTegic.value.DoubleValue
0.213

@<SCITEGIC>MOL_PROPERTY
Angle
SciTegic.value.DoubleValue
1.415

@<SCITEGIC>MOL_PROPERTY
Pdih
SciTegic.value.DoubleValue
1.902

@<SCITEGIC>MOL_PROPERTY
Idih
SciTegic.value.DoubleValue
0.000

@<SCITEGIC>MOL_PROPERTY
Tether
SciTegic.value.DoubleValue
0.000

@<TRIPOS>MOLECULE
guest-s13_vm2.mol2 : vm2 ligand conformer 10
          26          25           1
SMALL
USER_CHARGES
 
@<TRIPOS>ATOM
       1    C1      20.806226   19.743032   19.540214 C.3        1 MOL1        -0.2398
       2    H1      21.781313   19.245092   19.619493 H          1 MOL1         0.0972
       3    H2      20.685405   20.081118   18.502892 H          1 MOL1         0.0972
       4    H3      20.822545   20.635608   20.177781 H          1 MOL1         0.0972
       5    C2      19.659152   18.784804   19.933641 C.3        1 MOL1        -0.1383
       6    H4      19.607423   17.972511   19.195190 H          1 MOL1         0.0961
       7    H5      18.698282   19.314942   19.875005 H          1 MOL1         0.0961
       8    C3      19.830499   18.165448   21.341750 C.3        1 MOL1        -0.1407
       9    H6      19.036194   17.421722   21.494545 H          1 MOL1         0.0961
      10    H7      20.781060   17.616186   21.386874 H          1 MOL1         0.0961
      11    C4      19.773555   19.207412   22.484747 C.3        1 MOL1        -0.1407
      12    H8      18.847647   19.789650   22.391000 H          1 MOL1         0.0961
      13    H9      20.608974   19.913324   22.388475 H          1 MOL1         0.0961
      14    C5      19.838434   18.532811   23.877197 C.3        1 MOL1        -0.1472
      15    H10     18.967146   17.878371   24.013080 H          1 MOL1         0.0961
      16    H11     20.723380   17.883530   23.909451 H          1 MOL1         0.0961
      17    C6      19.924142   19.534548   25.051528 C.3        1 MOL1         0.1190
      18    H12     20.774775   20.199716   24.873581 H          1 MOL1         0.0923
      19    C7      18.652465   20.392953   25.176417 C.3        1 MOL1        -0.2463
      20    H13     17.759953   19.765610   25.292786 H          1 MOL1         0.0972
      21    H14     18.512855   21.029937   24.295439 H          1 MOL1         0.0972
      22    H15     18.718020   21.055877   26.047942 H          1 MOL1         0.0972
      23    N1      20.203528   18.826992   26.348505 N.4        1 MOL1        -0.5974
      24    H16     21.070241   18.283515   26.302909 H          1 MOL1         0.3625
      25    H17     20.300913   19.489785   27.122895 H          1 MOL1         0.3625
      26    H18     19.448200   18.181070   26.592983 H          1 MOL1         0.3625
@<TRIPOS>BOND
    1     1     2    1
    2     1     3    1
    3     1     4    1
    4     1     5    1
    5     5     6    1
    6     5     7    1
    7     5     8    1
    8     8     9    1
    9     8    10    1
   10     8    11    1
   11    11    12    1
   12    11    13    1
   13    11    14    1
   14    14    15    1
   15    14    16    1
   16    14    17    1
   17    17    18    1
   18    17    19    1
   19    19    20    1
   20    19    21    1
   21    19    22    1
   22    17    23    1
   23    23    24    1
   24    23    25    1
   25    23    26    1
@<TRIPOS>SUBSTRUCTURE
       1 MOL1            1 RESIDUE      1      MOL     
@<SCITEGIC>MOL_PROPERTY
VM2 Rank
SciTegic.value.IntegerValue
10

@<SCITEGIC>MOL_PROPERTY
Conf_Id
SciTegic.value.IntegerValue
242

@<SCITEGIC>MOL_PROPERTY
Probability
SciTegic.value.DoubleValue
2.96

@<SCITEGIC>MOL_PROPERTY
Sum Probability
SciTegic.value.DoubleValue
65.87

@<SCITEGIC>MOL_PROPERTY
Delta G
SciTegic.value.DoubleValue
1.041

@<SCITEGIC>MOL_PROPERTY
G
SciTegic.value.DoubleValue
24.751

@<SCITEGIC>MOL_PROPERTY
E
SciTegic.value.DoubleValue
-7.930

@<SCITEGIC>MOL_PROPERTY
-TS
SciTegic.value.DoubleValue
32.681

@<SCITEGIC>MOL_PROPERTY
U+W
SciTegic.value.DoubleValue
-29.392

@<SCITEGIC>MOL_PROPERTY
U
SciTegic.value.DoubleValue
24.442

@<SCITEGIC>MOL_PROPERTY
W
SciTegic.value.DoubleValue
-53.834

@<SCITEGIC>MOL_PROPERTY
W(PB)
SciTegic.value.DoubleValue
-56.129

@<SCITEGIC>MOL_PROPERTY
W(SA)
SciTegic.value.DoubleValue
2.295

@<SCITEGIC>MOL_PROPERTY
Valence
SciTegic.value.DoubleValue
3.781

@<SCITEGIC>MOL_PROPERTY
Coulomb
SciTegic.value.DoubleValue
19.492

@<SCITEGIC>MOL_PROPERTY
VdW
SciTegic.value.DoubleValue
1.170

@<SCITEGIC>MOL_PROPERTY
VdW6
SciTegic.value.DoubleValue
-7.583

@<SCITEGIC>MOL_PROPERTY
VdW12
SciTegic.value.DoubleValue
8.753

@<SCITEGIC>MOL_PROPERTY
Bond
SciTegic.value.DoubleValue
0.218

@<SCITEGIC>MOL_PROPERTY
Angle
SciTegic.value.DoubleValue
1.390

@<SCITEGIC>MOL_PROPERTY
Pdih
SciTegic.value.DoubleValue
2.173

@<SCITEGIC>MOL_PROPERTY
Idih
SciTegic.value.DoubleValue
0.000

@<SCITEGIC>MOL_PROPERTY
Tether
SciTegic.value.DoubleValue
0.000

@<TRIPOS>MOLECULE
guest-s13_vm2.mol2 : vm2 ligand conformer 11
          26          25           1
SMALL
USER_CHARGES
 
@<TRIPOS>ATOM
       1    C1      19.358939   19.542221   19.449234 C.3        1 MOL1        -0.2398
       2    H1      19.522874   19.914580   18.429716 H          1 MOL1         0.0972
       3    H2      18.554396   18.796499   19.408764 H          1 MOL1         0.0972
       4    H3      19.014455   20.387935   20.057092 H          1 MOL1         0.0972
       5    C2      20.658944   18.927291   20.015616 C.3        1 MOL1        -0.1383
       6    H4      21.437836   19.700248   20.075818 H          1 MOL1         0.0961
       7    H5      21.029900   18.171801   19.308908 H          1 MOL1         0.0961
       8    C3      20.473323   18.261933   21.400804 C.3        1 MOL1        -0.1407
       9    H6      19.708030   17.476600   21.330866 H          1 MOL1         0.0961
      10    H7      21.410600   17.756690   21.672018 H          1 MOL1         0.0961
      11    C4      20.094361   19.261878   22.519798 C.3        1 MOL1        -0.1407
      12    H8      19.127582   19.722698   22.283310 H          1 MOL1         0.0961
      13    H9      20.836914   20.070963   22.555134 H          1 MOL1         0.0961
      14    C5      20.017433   18.570494   23.903486 C.3        1 MOL1        -0.1472
      15    H10     19.232640   17.802480   23.890310 H          1 MOL1         0.0961
      16    H11     20.964158   18.044731   24.084978 H          1 MOL1         0.0961
      17    C6      19.769678   19.547436   25.075791 C.3        1 MOL1         0.1190
      18    H12     20.538199   20.325843   25.041886 H          1 MOL1         0.0923
      19    C7      18.388771   20.222131   24.988233 C.3        1 MOL1        -0.2463
      20    H13     17.584390   19.476881   24.952801 H          1 MOL1         0.0972
      21    H14     18.309934   20.856227   24.097717 H          1 MOL1         0.0972
      22    H15     18.217545   20.865892   25.859771 H          1 MOL1         0.0972
      23    N1      19.926551   18.854617   26.401037 N.4        1 MOL1        -0.5974
      24    H16     19.802831   19.506427   27.180970 H          1 MOL1         0.3625
      25    H17     19.237634   18.106562   26.516421 H          1 MOL1         0.3625
      26    H18     20.855478   18.435178   26.500056 H          1 MOL1         0.3625
@<TRIPOS>BOND
    1     1     2    1
    2     1     3    1
    3     1     4    1
    4     1     5    1
    5     5     6    1
    6     5     7    1
    7     5     8    1
    8     8     9    1
    9     8    10    1
   10     8    11    1
   11    11    12    1
   12    11    13    1
   13    11    14    1
   14    14    15    1
   15    14    16    1
   16    14    17    1
   17    17    18    1
   18    17    19    1
   19    19    20    1
   20    19    21    1
   21    19    22    1
   22    17    23    1
   23    23    24    1
   24    23    25    1
   25    23    26    1
@<TRIPOS>SUBSTRUCTURE
       1 MOL1            1 RESIDUE      1      MOL     
@<SCITEGIC>MOL_PROPERTY
VM2 Rank
SciTegic.value.IntegerValue
11

@<SCITEGIC>MOL_PROPERTY
Conf_Id
SciTegic.value.IntegerValue
1295

@<SCITEGIC>MOL_PROPERTY
Probability
SciTegic.value.DoubleValue
2.49

@<SCITEGIC>MOL_PROPERTY
Sum Probability
SciTegic.value.DoubleValue
68.36

@<SCITEGIC>MOL_PROPERTY
Delta G
SciTegic.value.DoubleValue
1.143

@<SCITEGIC>MOL_PROPERTY
G
SciTegic.value.DoubleValue
24.853

@<SCITEGIC>MOL_PROPERTY
E
SciTegic.value.DoubleValue
-7.821

@<SCITEGIC>MOL_PROPERTY
-TS
SciTegic.value.DoubleValue
32.674

@<SCITEGIC>MOL_PROPERTY
U+W
SciTegic.value.DoubleValue
-29.283

@<SCITEGIC>MOL_PROPERTY
U
SciTegic.value.DoubleValue
24.454

@<SCITEGIC>MOL_PROPERTY
W
SciTegic.value.DoubleValue
-53.737

@<SCITEGIC>MOL_PROPERTY
W(PB)
SciTegic.value.DoubleValue
-56.067

@<SCITEGIC>MOL_PROPERTY
W(SA)
SciTegic.value.DoubleValue
2.330

@<SCITEGIC>MOL_PROPERTY
Valence
SciTegic.value.DoubleValue
3.783

@<SCITEGIC>MOL_PROPERTY
Coulomb
SciTegic.value.DoubleValue
19.491

@<SCITEGIC>MOL_PROPERTY
VdW
SciTegic.value.DoubleValue
1.181

@<SCITEGIC>MOL_PROPERTY
VdW6
SciTegic.value.DoubleValue
-7.595

@<SCITEGIC>MOL_PROPERTY
VdW12
SciTegic.value.DoubleValue
8.775

@<SCITEGIC>MOL_PROPERTY
Bond
SciTegic.value.DoubleValue
0.221

@<SCITEGIC>MOL_PROPERTY
Angle
SciTegic.value.DoubleValue
1.392

@<SCITEGIC>MOL_PROPERTY
Pdih
SciTegic.value.DoubleValue
2.171

@<SCITEGIC>MOL_PROPERTY
Idih
SciTegic.value.DoubleValue
0.000

@<SCITEGIC>MOL_PROPERTY
Tether
SciTegic.value.DoubleValue
0.000

@<TRIPOS>MOLECULE
guest-s13_vm2.mol2 : vm2 ligand conformer 12
          26          25           1
SMALL
USER_CHARGES
 
@<TRIPOS>ATOM
       1    C1      20.593953   17.767169   19.935877 C.3        1 MOL1        -0.2398
       2    H1      20.350046   17.074367   20.750677 H          1 MOL1         0.0972
       3    H2      20.389757   17.248492   18.990251 H          1 MOL1         0.0972
       4    H3      21.669907   17.981073   19.975753 H          1 MOL1         0.0972
       5    C2      19.764737   19.068174   20.028772 C.3        1 MOL1        -0.1383
       6    H4      18.693074   18.824880   20.019194 H          1 MOL1         0.0961
       7    H5      19.950836   19.671379   19.129159 H          1 MOL1         0.0961
       8    C3      20.096775   19.922287   21.276201 C.3        1 MOL1        -0.1407
       9    H6      21.164279   20.182388   21.268478 H          1 MOL1         0.0961
      10    H7      19.547025   20.870998   21.205054 H          1 MOL1         0.0961
      11    C4      19.737520   19.228692   22.612221 C.3        1 MOL1        -0.1407
      12    H8      20.334932   18.315457   22.723590 H          1 MOL1         0.0961
      13    H9      18.683580   18.922755   22.583651 H          1 MOL1         0.0961
      14    C5      19.986031   20.163995   23.824360 C.3        1 MOL1        -0.1472
      15    H10     21.029489   20.505169   23.808138 H          1 MOL1         0.0961
      16    H11     19.371366   21.067632   23.717733 H          1 MOL1         0.0961
      17    C6      19.700523   19.530186   25.206554 C.3        1 MOL1         0.1190
      18    H12     19.940001   20.282617   25.964403 H          1 MOL1         0.0923
      19    C7      18.217851   19.155265   25.376258 C.3        1 MOL1        -0.2463
      20    H13     17.928362   18.333108   24.711090 H          1 MOL1         0.0972
      21    H14     17.571191   20.015266   25.162297 H          1 MOL1         0.0972
      22    H15     18.018307   18.837795   26.407067 H          1 MOL1         0.0972
      23    N1      20.590609   18.352231   25.493757 N.4        1 MOL1        -0.5974
      24    H16     20.432545   17.985094   26.436442 H          1 MOL1         0.3625
      25    H17     20.420950   17.588601   24.834748 H          1 MOL1         0.3625
      26    H18     21.580720   18.604382   25.426107 H          1 MOL1         0.3625
@<TRIPOS>BOND
    1     1     2    1
    2     1     3    1
    3     1     4    1
    4     1     5    1
    5     5     6    1
    6     5     7    1
    7     5     8    1
    8     8     9    1
    9     8    10    1
   10     8    11    1
   11    11    12    1
   12    11    13    1
   13    11    14    1
   14    14    15    1
   15    14    16    1
   16    14    17    1
   17    17    18    1
   18    17    19    1
   19    19    20    1
   20    19    21    1
   21    19    22    1
   22    17    23    1
   23    23    24    1
   24    23    25    1
   25    23    26    1
@<TRIPOS>SUBSTRUCTURE
       1 MOL1            1 RESIDUE      1      MOL     
@<SCITEGIC>MOL_PROPERTY
VM2 Rank
SciTegic.value.IntegerValue
12

@<SCITEGIC>MOL_PROPERTY
Conf_Id
SciTegic.value.IntegerValue
513

@<SCITEGIC>MOL_PROPERTY
Probability
SciTegic.value.DoubleValue
2.40

@<SCITEGIC>MOL_PROPERTY
Sum Probability
SciTegic.value.DoubleValue
70.76

@<SCITEGIC>MOL_PROPERTY
Delta G
SciTegic.value.DoubleValue
1.167

@<SCITEGIC>MOL_PROPERTY
G
SciTegic.value.DoubleValue
24.876

@<SCITEGIC>MOL_PROPERTY
E
SciTegic.value.DoubleValue
-7.931

@<SCITEGIC>MOL_PROPERTY
-TS
SciTegic.value.DoubleValue
32.807

@<SCITEGIC>MOL_PROPERTY
U+W
SciTegic.value.DoubleValue
-29.392

@<SCITEGIC>MOL_PROPERTY
U
SciTegic.value.DoubleValue
24.790

@<SCITEGIC>MOL_PROPERTY
W
SciTegic.value.DoubleValue
-54.183

@<SCITEGIC>MOL_PROPERTY
W(PB)
SciTegic.value.DoubleValue
-56.462

@<SCITEGIC>MOL_PROPERTY
W(SA)
SciTegic.value.DoubleValue
2.279

@<SCITEGIC>MOL_PROPERTY
Valence
SciTegic.value.DoubleValue
3.751

@<SCITEGIC>MOL_PROPERTY
Coulomb
SciTegic.value.DoubleValue
19.894

@<SCITEGIC>MOL_PROPERTY
VdW
SciTegic.value.DoubleValue
1.145

@<SCITEGIC>MOL_PROPERTY
VdW6
SciTegic.value.DoubleValue
-8.074

@<SCITEGIC>MOL_PROPERTY
VdW12
SciTegic.value.DoubleValue
9.219

@<SCITEGIC>MOL_PROPERTY
Bond
SciTegic.value.DoubleValue
0.243

@<SCITEGIC>MOL_PROPERTY
Angle
SciTegic.value.DoubleValue
1.440

@<SCITEGIC>MOL_PROPERTY
Pdih
SciTegic.value.DoubleValue
2.068

@<SCITEGIC>MOL_PROPERTY
Idih
SciTegic.value.DoubleValue
0.000

@<SCITEGIC>MOL_PROPERTY
Tether
SciTegic.value.DoubleValue
0.000

@<TRIPOS>MOLECULE
guest-s13_vm2.mol2 : vm2 ligand conformer 13
          26          25           1
SMALL
USER_CHARGES
 
@<TRIPOS>ATOM
       1    C1      20.261850   18.307009   19.127450 C.3        1 MOL1        -0.2398
       2    H1      19.838390   17.392677   18.691889 H          1 MOL1         0.0972
       3    H2      19.975022   19.149955   18.485269 H          1 MOL1         0.0972
       4    H3      21.355671   18.216155   19.104278 H          1 MOL1         0.0972
       5    C2      19.752848   18.509666   20.570382 C.3        1 MOL1        -0.1383
       6    H4      20.022871   17.630356   21.170176 H          1 MOL1         0.0961
       7    H5      18.655405   18.567149   20.564668 H          1 MOL1         0.0961
       8    C3      20.339963   19.791379   21.207257 C.3        1 MOL1        -0.1407
       9    H6      21.434694   19.711854   21.257488 H          1 MOL1         0.0961
      10    H7      20.123364   20.647120   20.552904 H          1 MOL1         0.0961
      11    C4      19.775383   20.095446   22.616733 C.3        1 MOL1        -0.1407
      12    H8      18.684802   20.203933   22.549600 H          1 MOL1         0.0961
      13    H9      20.165324   21.068591   22.945939 H          1 MOL1         0.0961
      14    C5      20.142906   19.020843   23.672423 C.3        1 MOL1        -0.1472
      15    H10     19.646367   18.071924   23.433239 H          1 MOL1         0.0961
      16    H11     21.223146   18.831947   23.618353 H          1 MOL1         0.0961
      17    C6      19.789088   19.430031   25.120406 C.3        1 MOL1         0.1190
      18    H12     20.263131   20.393897   25.329985 H          1 MOL1         0.0923
      19    C7      18.270754   19.579450   25.324937 C.3        1 MOL1        -0.2463
      20    H13     18.043856   19.822707   26.370238 H          1 MOL1         0.0972
      21    H14     17.742644   18.652453   25.069096 H          1 MOL1         0.0972
      22    H15     17.863184   20.388793   24.708213 H          1 MOL1         0.0972
      23    N1      20.355210   18.454177   26.114413 N.4        1 MOL1        -0.5974
      24    H16     19.958551   17.519083   25.989033 H          1 MOL1         0.3625
      25    H17     21.371989   18.371599   26.025107 H          1 MOL1         0.3625
      26    H18     20.157275   18.743130   27.076594 H          1 MOL1         0.3625
@<TRIPOS>BOND
    1     1     2    1
    2     1     3    1
    3     1     4    1
    4     1     5    1
    5     5     6    1
    6     5     7    1
    7     5     8    1
    8     8     9    1
    9     8    10    1
   10     8    11    1
   11    11    12    1
   12    11    13    1
   13    11    14    1
   14    14    15    1
   15    14    16    1
   16    14    17    1
   17    17    18    1
   18    17    19    1
   19    19    20    1
   20    19    21    1
   21    19    22    1
   22    17    23    1
   23    23    24    1
   24    23    25    1
   25    23    26    1
@<TRIPOS>SUBSTRUCTURE
       1 MOL1            1 RESIDUE      1      MOL     
@<SCITEGIC>MOL_PROPERTY
VM2 Rank
SciTegic.value.IntegerValue
13

@<SCITEGIC>MOL_PROPERTY
Conf_Id
SciTegic.value.IntegerValue
1352

@<SCITEGIC>MOL_PROPERTY
Probability
SciTegic.value.DoubleValue
2.40

@<SCITEGIC>MOL_PROPERTY
Sum Probability
SciTegic.value.DoubleValue
73.16

@<SCITEGIC>MOL_PROPERTY
Delta G
SciTegic.value.DoubleValue
1.167

@<SCITEGIC>MOL_PROPERTY
G
SciTegic.value.DoubleValue
24.877

@<SCITEGIC>MOL_PROPERTY
E
SciTegic.value.DoubleValue
-7.823

@<SCITEGIC>MOL_PROPERTY
-TS
SciTegic.value.DoubleValue
32.700

@<SCITEGIC>MOL_PROPERTY
U+W
SciTegic.value.DoubleValue
-29.285

@<SCITEGIC>MOL_PROPERTY
U
SciTegic.value.DoubleValue
24.614

@<SCITEGIC>MOL_PROPERTY
W
SciTegic.value.DoubleValue
-53.900

@<SCITEGIC>MOL_PROPERTY
W(PB)
SciTegic.value.DoubleValue
-56.207

@<SCITEGIC>MOL_PROPERTY
W(SA)
SciTegic.value.DoubleValue
2.307

@<SCITEGIC>MOL_PROPERTY
Valence
SciTegic.value.DoubleValue
3.779

@<SCITEGIC>MOL_PROPERTY
Coulomb
SciTegic.value.DoubleValue
19.717

@<SCITEGIC>MOL_PROPERTY
VdW
SciTegic.value.DoubleValue
1.118

@<SCITEGIC>MOL_PROPERTY
VdW6
SciTegic.value.DoubleValue
-7.653

@<SCITEGIC>MOL_PROPERTY
VdW12
SciTegic.value.DoubleValue
8.772

@<SCITEGIC>MOL_PROPERTY
Bond
SciTegic.value.DoubleValue
0.222

@<SCITEGIC>MOL_PROPERTY
Angle
SciTegic.value.DoubleValue
1.351

@<SCITEGIC>MOL_PROPERTY
Pdih
SciTegic.value.DoubleValue
2.206

@<SCITEGIC>MOL_PROPERTY
Idih
SciTegic.value.DoubleValue
0.000

@<SCITEGIC>MOL_PROPERTY
Tether
SciTegic.value.DoubleValue
0.000

@<TRIPOS>MOLECULE
guest-s13_vm2.mol2 : vm2 ligand conformer 14
          26          25           1
SMALL
USER_CHARGES
 
@<TRIPOS>ATOM
       1    C1      19.388644   18.123635   19.728017 C.3        1 MOL1        -0.2398
       2    H1      19.563685   17.495360   18.845088 H          1 MOL1         0.0972
       3    H2      18.971958   17.480081   20.512626 H          1 MOL1         0.0972
       4    H3      18.633734   18.874588   19.461183 H          1 MOL1         0.0972
       5    C2      20.704270   18.795270   20.182923 C.3        1 MOL1        -0.1383
       6    H4      21.145139   19.325365   19.327104 H          1 MOL1         0.0961
       7    H5      21.431278   18.024382   20.474346 H          1 MOL1         0.0961
       8    C3      20.513159   19.800680   21.344183 C.3        1 MOL1        -0.1407
       9    H6      21.470619   20.308111   21.526125 H          1 MOL1         0.0961
      10    H7      19.802583   20.581500   21.039750 H          1 MOL1         0.0961
      11    C4      20.032229   19.140709   22.658843 C.3        1 MOL1        -0.1407
      12    H8      20.718760   18.326348   22.924912 H          1 MOL1         0.0961
      13    H9      19.044794   18.690389   22.499784 H          1 MOL1         0.0961
      14    C5      19.954846   20.168958   23.817546 C.3        1 MOL1        -0.1472
      15    H10     20.935369   20.646941   23.942096 H          1 MOL1         0.0961
      16    H11     19.259760   20.973333   23.542561 H          1 MOL1         0.0961
      17    C6      19.521564   19.582454   25.182088 C.3        1 MOL1         0.1190
      18    H12     19.539977   20.401399   25.907917 H          1 MOL1         0.0923
      19    C7      18.086962   19.027157   25.144822 C.3        1 MOL1        -0.2463
      20    H13     18.012448   18.136853   24.509244 H          1 MOL1         0.0972
      21    H14     17.386628   19.781216   24.764718 H          1 MOL1         0.0972
      22    H15     17.758293   18.746768   26.153054 H          1 MOL1         0.0972
      23    N1      20.486326   18.549137   25.695579 N.4        1 MOL1        -0.5974
      24    H16     20.218948   18.217634   26.626718 H          1 MOL1         0.3625
      25    H17     20.521663   17.734312   25.078276 H          1 MOL1         0.3625
      26    H18     21.436372   18.924525   25.765996 H          1 MOL1         0.3625
@<TRIPOS>BOND
    1     1     2    1
    2     1     3    1
    3     1     4    1
    4     1     5    1
    5     5     6    1
    6     5     7    1
    7     5     8    1
    8     8     9    1
    9     8    10    1
   10     8    11    1
   11    11    12    1
   12    11    13    1
   13    11    14    1
   14    14    15    1
   15    14    16    1
   16    14    17    1
   17    17    18    1
   18    17    19    1
   19    19    20    1
   20    19    21    1
   21    19    22    1
   22    17    23    1
   23    23    24    1
   24    23    25    1
   25    23    26    1
@<TRIPOS>SUBSTRUCTURE
       1 MOL1            1 RESIDUE      1      MOL     
@<SCITEGIC>MOL_PROPERTY
VM2 Rank
SciTegic.value.IntegerValue
14

@<SCITEGIC>MOL_PROPERTY
Conf_Id
SciTegic.value.IntegerValue
235

@<SCITEGIC>MOL_PROPERTY
Probability
SciTegic.value.DoubleValue
2.38

@<SCITEGIC>MOL_PROPERTY
Sum Probability
SciTegic.value.DoubleValue
75.54

@<SCITEGIC>MOL_PROPERTY
Delta G
SciTegic.value.DoubleValue
1.170

@<SCITEGIC>MOL_PROPERTY
G
SciTegic.value.DoubleValue
24.880

@<SCITEGIC>MOL_PROPERTY
E
SciTegic.value.DoubleValue
-7.928

@<SCITEGIC>MOL_PROPERTY
-TS
SciTegic.value.DoubleValue
32.808

@<SCITEGIC>MOL_PROPERTY
U+W
SciTegic.value.DoubleValue
-29.390

@<SCITEGIC>MOL_PROPERTY
U
SciTegic.value.DoubleValue
24.690

@<SCITEGIC>MOL_PROPERTY
W
SciTegic.value.DoubleValue
-54.080

@<SCITEGIC>MOL_PROPERTY
W(PB)
SciTegic.value.DoubleValue
-56.374

@<SCITEGIC>MOL_PROPERTY
W(SA)
SciTegic.value.DoubleValue
2.294

@<SCITEGIC>MOL_PROPERTY
Valence
SciTegic.value.DoubleValue
3.755

@<SCITEGIC>MOL_PROPERTY
Coulomb
SciTegic.value.DoubleValue
19.785

@<SCITEGIC>MOL_PROPERTY
VdW
SciTegic.value.DoubleValue
1.150

@<SCITEGIC>MOL_PROPERTY
VdW6
SciTegic.value.DoubleValue
-8.077

@<SCITEGIC>MOL_PROPERTY
VdW12
SciTegic.value.DoubleValue
9.227

@<SCITEGIC>MOL_PROPERTY
Bond
SciTegic.value.DoubleValue
0.244

@<SCITEGIC>MOL_PROPERTY
Angle
SciTegic.value.DoubleValue
1.443

@<SCITEGIC>MOL_PROPERTY
Pdih
SciTegic.value.DoubleValue
2.068

@<SCITEGIC>MOL_PROPERTY
Idih
SciTegic.value.DoubleValue
0.000

@<SCITEGIC>MOL_PROPERTY
Tether
SciTegic.value.DoubleValue
0.000

@<TRIPOS>MOLECULE
guest-s13_vm2.mol2 : vm2 ligand conformer 15
          26          25           1
SMALL
USER_CHARGES
 
@<TRIPOS>ATOM
       1    C1      20.516666   18.410273   19.095849 C.3        1 MOL1        -0.2398
       2    H1      21.471029   18.032734   18.706366 H          1 MOL1         0.0972
       3    H2      19.770209   17.612193   18.990414 H          1 MOL1         0.0972
       4    H3      20.206334   19.254187   18.465981 H          1 MOL1         0.0972
       5    C2      20.662366   18.841743   20.570629 C.3        1 MOL1        -0.1383
       6    H4      21.435288   19.619168   20.647482 H          1 MOL1         0.0961
       7    H5      21.013713   17.983418   21.158059 H          1 MOL1         0.0961
       8    C3      19.326899   19.373742   21.142906 C.3        1 MOL1        -0.1407
       9    H6      18.953718   20.172660   20.487239 H          1 MOL1         0.0961
      10    H7      18.569628   18.577961   21.119170 H          1 MOL1         0.0961
      11    C4      19.444095   19.937433   22.580846 C.3        1 MOL1        -0.1407
      12    H8      18.490820   20.420836   22.829814 H          1 MOL1         0.0961
      13    H9      20.207588   20.727246   22.604930 H          1 MOL1         0.0961
      14    C5      19.773009   18.857977   23.645098 C.3        1 MOL1        -0.1472
      15    H10     19.003351   18.074983   23.629178 H          1 MOL1         0.0961
      16    H11     20.718874   18.370781   23.379694 H          1 MOL1         0.0961
      17    C6      19.913371   19.419485   25.078994 C.3        1 MOL1         0.1190
      18    H12     20.640377   20.237223   25.057667 H          1 MOL1         0.0923
      19    C7      18.581276   19.964994   25.625030 C.3        1 MOL1        -0.2463
      20    H13     17.798274   19.196856   25.601552 H          1 MOL1         0.0972
      21    H14     18.234375   20.827973   25.045462 H          1 MOL1         0.0972
      22    H15     18.697784   20.299488   26.663240 H          1 MOL1         0.0972
      23    N1      20.470317   18.382354   26.014648 N.4        1 MOL1        -0.5974
      24    H16     20.602092   18.760906   26.956883 H          1 MOL1         0.3625
      25    H17     19.845171   17.575928   26.094641 H          1 MOL1         0.3625
      26    H18     21.379991   18.036201   25.696420 H          1 MOL1         0.3625
@<TRIPOS>BOND
    1     1     2    1
    2     1     3    1
    3     1     4    1
    4     1     5    1
    5     5     6    1
    6     5     7    1
    7     5     8    1
    8     8     9    1
    9     8    10    1
   10     8    11    1
   11    11    12    1
   12    11    13    1
   13    11    14    1
   14    14    15    1
   15    14    16    1
   16    14    17    1
   17    17    18    1
   18    17    19    1
   19    19    20    1
   20    19    21    1
   21    19    22    1
   22    17    23    1
   23    23    24    1
   24    23    25    1
   25    23    26    1
@<TRIPOS>SUBSTRUCTURE
       1 MOL1            1 RESIDUE      1      MOL     
@<SCITEGIC>MOL_PROPERTY
VM2 Rank
SciTegic.value.IntegerValue
15

@<SCITEGIC>MOL_PROPERTY
Conf_Id
SciTegic.value.IntegerValue
1033

@<SCITEGIC>MOL_PROPERTY
Probability
SciTegic.value.DoubleValue
2.26

@<SCITEGIC>MOL_PROPERTY
Sum Probability
SciTegic.value.DoubleValue
77.80

@<SCITEGIC>MOL_PROPERTY
Delta G
SciTegic.value.DoubleValue
1.202

@<SCITEGIC>MOL_PROPERTY
G
SciTegic.value.DoubleValue
24.912

@<SCITEGIC>MOL_PROPERTY
E
SciTegic.value.DoubleValue
-7.677

@<SCITEGIC>MOL_PROPERTY
-TS
SciTegic.value.DoubleValue
32.589

@<SCITEGIC>MOL_PROPERTY
U+W
SciTegic.value.DoubleValue
-29.139

@<SCITEGIC>MOL_PROPERTY
U
SciTegic.value.DoubleValue
24.912

@<SCITEGIC>MOL_PROPERTY
W
SciTegic.value.DoubleValue
-54.051

@<SCITEGIC>MOL_PROPERTY
W(PB)
SciTegic.value.DoubleValue
-56.345

@<SCITEGIC>MOL_PROPERTY
W(SA)
SciTegic.value.DoubleValue
2.294

@<SCITEGIC>MOL_PROPERTY
Valence
SciTegic.value.DoubleValue
3.916

@<SCITEGIC>MOL_PROPERTY
Coulomb
SciTegic.value.DoubleValue
19.768

@<SCITEGIC>MOL_PROPERTY
VdW
SciTegic.value.DoubleValue
1.228

@<SCITEGIC>MOL_PROPERTY
VdW6
SciTegic.value.DoubleValue
-7.563

@<SCITEGIC>MOL_PROPERTY
VdW12
SciTegic.value.DoubleValue
8.791

@<SCITEGIC>MOL_PROPERTY
Bond
SciTegic.value.DoubleValue
0.234

@<SCITEGIC>MOL_PROPERTY
Angle
SciTegic.value.DoubleValue
1.481

@<SCITEGIC>MOL_PROPERTY
Pdih
SciTegic.value.DoubleValue
2.202

@<SCITEGIC>MOL_PROPERTY
Idih
SciTegic.value.DoubleValue
0.000

@<SCITEGIC>MOL_PROPERTY
Tether
SciTegic.value.DoubleValue
0.000

@<TRIPOS>MOLECULE
guest-s13_vm2.mol2 : vm2 ligand conformer 16
          26          25           1
SMALL
USER_CHARGES
 
@<TRIPOS>ATOM
       1    C1      20.288289   19.120714   19.036995 C.3        1 MOL1        -0.2398
       2    H1      19.936373   19.912505   18.363011 H          1 MOL1         0.0972
       3    H2      21.385228   19.105502   18.995399 H          1 MOL1         0.0972
       4    H3      19.918112   18.161627   18.651846 H          1 MOL1         0.0972
       5    C2      19.791563   19.370065   20.476904 C.3        1 MOL1        -0.1383
       6    H4      18.693314   19.409222   20.481461 H          1 MOL1         0.0961
       7    H5      20.147157   20.353923   20.810385 H          1 MOL1         0.0961
       8    C3      20.279345   18.268009   21.446906 C.3        1 MOL1        -0.1407
       9    H6      19.981721   17.287281   21.050704 H          1 MOL1         0.0961
      10    H7      21.377529   18.265023   21.482156 H          1 MOL1         0.0961
      11    C4      19.713461   18.409397   22.881412 C.3        1 MOL1        -0.1407
      12    H8      20.015469   17.524111   23.456031 H          1 MOL1         0.0961
      13    H9      18.616447   18.391373   22.837073 H          1 MOL1         0.0961
      14    C5      20.198478   19.692159   23.610669 C.3        1 MOL1        -0.1472
      15    H10     21.293197   19.749862   23.551343 H          1 MOL1         0.0961
      16    H11     19.818852   20.579695   23.089349 H          1 MOL1         0.0961
      17    C6      19.782732   19.790049   25.097649 C.3        1 MOL1         0.1190
      18    H12     20.192836   20.726457   25.488529 H          1 MOL1         0.0923
      19    C7      18.254405   19.844499   25.267480 C.3        1 MOL1        -0.2463
      20    H13     17.780737   18.898049   24.980785 H          1 MOL1         0.0972
      21    H14     17.822276   20.645173   24.654500 H          1 MOL1         0.0972
      22    H15     17.991582   20.047497   26.312891 H          1 MOL1         0.0972
      23    N1      20.379726   18.693108   25.935984 N.4        1 MOL1        -0.5974
      24    H16     20.147018   18.810306   26.926194 H          1 MOL1         0.3625
      25    H17     20.035355   17.774397   25.646951 H          1 MOL1         0.3625
      26    H18     21.400865   18.677199   25.861967 H          1 MOL1         0.3625
@<TRIPOS>BOND
    1     1     2    1
    2     1     3    1
    3     1     4    1
    4     1     5    1
    5     5     6    1
    6     5     7    1
    7     5     8    1
    8     8     9    1
    9     8    10    1
   10     8    11    1
   11    11    12    1
   12    11    13    1
   13    11    14    1
   14    14    15    1
   15    14    16    1
   16    14    17    1
   17    17    18    1
   18    17    19    1
   19    19    20    1
   20    19    21    1
   21    19    22    1
   22    17    23    1
   23    23    24    1
   24    23    25    1
   25    23    26    1
@<TRIPOS>SUBSTRUCTURE
       1 MOL1            1 RESIDUE      1      MOL     
@<SCITEGIC>MOL_PROPERTY
VM2 Rank
SciTegic.value.IntegerValue
16

@<SCITEGIC>MOL_PROPERTY
Conf_Id
SciTegic.value.IntegerValue
459

@<SCITEGIC>MOL_PROPERTY
Probability
SciTegic.value.DoubleValue
1.93

@<SCITEGIC>MOL_PROPERTY
Sum Probability
SciTegic.value.DoubleValue
79.73

@<SCITEGIC>MOL_PROPERTY
Delta G
SciTegic.value.DoubleValue
1.295

@<SCITEGIC>MOL_PROPERTY
G
SciTegic.value.DoubleValue
25.005

@<SCITEGIC>MOL_PROPERTY
E
SciTegic.value.DoubleValue
-7.804

@<SCITEGIC>MOL_PROPERTY
-TS
SciTegic.value.DoubleValue
32.809

@<SCITEGIC>MOL_PROPERTY
U+W
SciTegic.value.DoubleValue
-29.265

@<SCITEGIC>MOL_PROPERTY
U
SciTegic.value.DoubleValue
24.725

@<SCITEGIC>MOL_PROPERTY
W
SciTegic.value.DoubleValue
-53.991

@<SCITEGIC>MOL_PROPERTY
W(PB)
SciTegic.value.DoubleValue
-56.300

@<SCITEGIC>MOL_PROPERTY
W(SA)
SciTegic.value.DoubleValue
2.309

@<SCITEGIC>MOL_PROPERTY
Valence
SciTegic.value.DoubleValue
3.779

@<SCITEGIC>MOL_PROPERTY
Coulomb
SciTegic.value.DoubleValue
19.804

@<SCITEGIC>MOL_PROPERTY
VdW
SciTegic.value.DoubleValue
1.142

@<SCITEGIC>MOL_PROPERTY
VdW6
SciTegic.value.DoubleValue
-8.104

@<SCITEGIC>MOL_PROPERTY
VdW12
SciTegic.value.DoubleValue
9.246

@<SCITEGIC>MOL_PROPERTY
Bond
SciTegic.value.DoubleValue
0.254

@<SCITEGIC>MOL_PROPERTY
Angle
SciTegic.value.DoubleValue
1.437

@<SCITEGIC>MOL_PROPERTY
Pdih
SciTegic.value.DoubleValue
2.089

@<SCITEGIC>MOL_PROPERTY
Idih
SciTegic.value.DoubleValue
0.000

@<SCITEGIC>MOL_PROPERTY
Tether
SciTegic.value.DoubleValue
0.000

@<TRIPOS>MOLECULE
guest-s13_vm2.mol2 : vm2 ligand conformer 17
          26          25           1
SMALL
USER_CHARGES
 
@<TRIPOS>ATOM
       1    C1      20.193173   20.042706   19.906738 C.3        1 MOL1        -0.2398
       2    H1      20.207019   20.748676   20.746421 H          1 MOL1         0.0972
       3    H2      21.222191   19.915875   19.546192 H          1 MOL1         0.0972
       4    H3      19.608187   20.501453   19.099151 H          1 MOL1         0.0972
       5    C2      19.577659   18.686046   20.317718 C.3        1 MOL1        -0.1383
       6    H4      19.474452   18.058887   19.421218 H          1 MOL1         0.0961
       7    H5      18.557413   18.840127   20.693518 H          1 MOL1         0.0961
       8    C3      20.424477   17.915206   21.362600 C.3        1 MOL1        -0.1407
       9    H6      19.931156   16.958062   21.580990 H          1 MOL1         0.0961
      10    H7      21.392671   17.657437   20.911645 H          1 MOL1         0.0961
      11    C4      20.682796   18.664916   22.695426 C.3        1 MOL1        -0.1407
      12    H8      21.269156   19.573798   22.505614 H          1 MOL1         0.0961
      13    H9      21.313808   18.023966   23.324803 H          1 MOL1         0.0961
      14    C5      19.385702   19.029272   23.462483 C.3        1 MOL1        -0.1472
      15    H10     18.771093   19.690157   22.838671 H          1 MOL1         0.0961
      16    H11     18.792340   18.122873   23.641437 H          1 MOL1         0.0961
      17    C6      19.659800   19.744374   24.803502 C.3        1 MOL1         0.1190
      18    H12     20.282577   20.621696   24.603120 H          1 MOL1         0.0923
      19    C7      18.341462   20.222602   25.432959 C.3        1 MOL1        -0.2463
      20    H13     18.531289   20.762558   26.368792 H          1 MOL1         0.0972
      21    H14     17.677678   19.377463   25.654410 H          1 MOL1         0.0972
      22    H15     17.811478   20.905309   24.757117 H          1 MOL1         0.0972
      23    N1      20.422929   18.882879   25.772573 N.4        1 MOL1        -0.5974
      24    H16     21.325694   18.594249   25.386605 H          1 MOL1         0.3625
      25    H17     20.609648   19.379784   26.648124 H          1 MOL1         0.3625
      26    H18     19.902147   18.033796   26.007333 H          1 MOL1         0.3625
@<TRIPOS>BOND
    1     1     2    1
    2     1     3    1
    3     1     4    1
    4     1     5    1
    5     5     6    1
    6     5     7    1
    7     5     8    1
    8     8     9    1
    9     8    10    1
   10     8    11    1
   11    11    12    1
   12    11    13    1
   13    11    14    1
   14    14    15    1
   15    14    16    1
   16    14    17    1
   17    17    18    1
   18    17    19    1
   19    19    20    1
   20    19    21    1
   21    19    22    1
   22    17    23    1
   23    23    24    1
   24    23    25    1
   25    23    26    1
@<TRIPOS>SUBSTRUCTURE
       1 MOL1            1 RESIDUE      1      MOL     
@<SCITEGIC>MOL_PROPERTY
VM2 Rank
SciTegic.value.IntegerValue
17

@<SCITEGIC>MOL_PROPERTY
Conf_Id
SciTegic.value.IntegerValue
1065

@<SCITEGIC>MOL_PROPERTY
Probability
SciTegic.value.DoubleValue
1.90

@<SCITEGIC>MOL_PROPERTY
Sum Probability
SciTegic.value.DoubleValue
81.63

@<SCITEGIC>MOL_PROPERTY
Delta G
SciTegic.value.DoubleValue
1.305

@<SCITEGIC>MOL_PROPERTY
G
SciTegic.value.DoubleValue
25.015

@<SCITEGIC>MOL_PROPERTY
E
SciTegic.value.DoubleValue
-7.961

@<SCITEGIC>MOL_PROPERTY
-TS
SciTegic.value.DoubleValue
32.975

@<SCITEGIC>MOL_PROPERTY
U+W
SciTegic.value.DoubleValue
-29.422

@<SCITEGIC>MOL_PROPERTY
U
SciTegic.value.DoubleValue
24.692

@<SCITEGIC>MOL_PROPERTY
W
SciTegic.value.DoubleValue
-54.114

@<SCITEGIC>MOL_PROPERTY
W(PB)
SciTegic.value.DoubleValue
-56.398

@<SCITEGIC>MOL_PROPERTY
W(SA)
SciTegic.value.DoubleValue
2.284

@<SCITEGIC>MOL_PROPERTY
Valence
SciTegic.value.DoubleValue
3.727

@<SCITEGIC>MOL_PROPERTY
Coulomb
SciTegic.value.DoubleValue
19.918

@<SCITEGIC>MOL_PROPERTY
VdW
SciTegic.value.DoubleValue
1.047

@<SCITEGIC>MOL_PROPERTY
VdW6
SciTegic.value.DoubleValue
-8.393

@<SCITEGIC>MOL_PROPERTY
VdW12
SciTegic.value.DoubleValue
9.440

@<SCITEGIC>MOL_PROPERTY
Bond
SciTegic.value.DoubleValue
0.259

@<SCITEGIC>MOL_PROPERTY
Angle
SciTegic.value.DoubleValue
1.567

@<SCITEGIC>MOL_PROPERTY
Pdih
SciTegic.value.DoubleValue
1.900

@<SCITEGIC>MOL_PROPERTY
Idih
SciTegic.value.DoubleValue
0.000

@<SCITEGIC>MOL_PROPERTY
Tether
SciTegic.value.DoubleValue
0.000

@<TRIPOS>MOLECULE
guest-s13_vm2.mol2 : vm2 ligand conformer 18
          26          25           1
SMALL
USER_CHARGES
 
@<TRIPOS>ATOM
       1    C1      20.667213   19.850128   19.671769 C.3        1 MOL1        -0.2398
       2    H1      20.112775   20.513195   18.995040 H          1 MOL1         0.0972
       3    H2      21.490686   20.428542   20.110575 H          1 MOL1         0.0972
       4    H3      21.100522   19.040756   19.069795 H          1 MOL1         0.0972
       5    C2      19.737158   19.289764   20.768523 C.3        1 MOL1        -0.1383
       6    H4      18.907946   18.742511   20.298816 H          1 MOL1         0.0961
       7    H5      19.293146   20.128392   21.321236 H          1 MOL1         0.0961
       8    C3      20.497701   18.354078   21.737360 C.3        1 MOL1        -0.1407
       9    H6      20.991619   17.563706   21.155349 H          1 MOL1         0.0961
      10    H7      21.303327   18.911856   22.232953 H          1 MOL1         0.0961
      11    C4      19.583998   17.682798   22.795329 C.3        1 MOL1        -0.1407
      12    H8      20.190192   17.001254   23.407052 H          1 MOL1         0.0961
      13    H9      18.851078   17.045520   22.281604 H          1 MOL1         0.0961
      14    C5      18.823607   18.668511   23.722381 C.3        1 MOL1        -0.1472
      15    H10     18.080324   19.218427   23.131016 H          1 MOL1         0.0961
      16    H11     18.251253   18.092779   24.461784 H          1 MOL1         0.0961
      17    C6      19.735828   19.677098   24.455218 C.3        1 MOL1         0.1190
      18    H12     20.295659   20.242778   23.704404 H          1 MOL1         0.0923
      19    C7      18.891465   20.668663   25.271093 C.3        1 MOL1        -0.2463
      20    H13     18.309439   20.152258   26.044685 H          1 MOL1         0.0972
      21    H14     18.192331   21.210917   24.622346 H          1 MOL1         0.0972
      22    H15     19.532030   21.410636   25.763530 H          1 MOL1         0.0972
      23    N1      20.751030   18.996959   25.332327 N.4        1 MOL1        -0.5974
      24    H16     20.299507   18.450575   26.070432 H          1 MOL1         0.3625
      25    H17     21.339987   18.357752   24.791916 H          1 MOL1         0.3625
      26    H18     21.368712   19.675295   25.786908 H          1 MOL1         0.3625
@<TRIPOS>BOND
    1     1     2    1
    2     1     3    1
    3     1     4    1
    4     1     5    1
    5     5     6    1
    6     5     7    1
    7     5     8    1
    8     8     9    1
    9     8    10    1
   10     8    11    1
   11    11    12    1
   12    11    13    1
   13    11    14    1
   14    14    15    1
   15    14    16    1
   16    14    17    1
   17    17    18    1
   18    17    19    1
   19    19    20    1
   20    19    21    1
   21    19    22    1
   22    17    23    1
   23    23    24    1
   24    23    25    1
   25    23    26    1
@<TRIPOS>SUBSTRUCTURE
       1 MOL1            1 RESIDUE      1      MOL     
@<SCITEGIC>MOL_PROPERTY
VM2 Rank
SciTegic.value.IntegerValue
18

@<SCITEGIC>MOL_PROPERTY
Conf_Id
SciTegic.value.IntegerValue
1014

@<SCITEGIC>MOL_PROPERTY
Probability
SciTegic.value.DoubleValue
1.86

@<SCITEGIC>MOL_PROPERTY
Sum Probability
SciTegic.value.DoubleValue
83.49

@<SCITEGIC>MOL_PROPERTY
Delta G
SciTegic.value.DoubleValue
1.319

@<SCITEGIC>MOL_PROPERTY
G
SciTegic.value.DoubleValue
25.029

@<SCITEGIC>MOL_PROPERTY
E
SciTegic.value.DoubleValue
-7.991

@<SCITEGIC>MOL_PROPERTY
-TS
SciTegic.value.DoubleValue
33.020

@<SCITEGIC>MOL_PROPERTY
U+W
SciTegic.value.DoubleValue
-29.453

@<SCITEGIC>MOL_PROPERTY
U
SciTegic.value.DoubleValue
24.584

@<SCITEGIC>MOL_PROPERTY
W
SciTegic.value.DoubleValue
-54.037

@<SCITEGIC>MOL_PROPERTY
W(PB)
SciTegic.value.DoubleValue
-56.325

@<SCITEGIC>MOL_PROPERTY
W(SA)
SciTegic.value.DoubleValue
2.288

@<SCITEGIC>MOL_PROPERTY
Valence
SciTegic.value.DoubleValue
3.508

@<SCITEGIC>MOL_PROPERTY
Coulomb
SciTegic.value.DoubleValue
20.402

@<SCITEGIC>MOL_PROPERTY
VdW
SciTegic.value.DoubleValue
0.674

@<SCITEGIC>MOL_PROPERTY
VdW6
SciTegic.value.DoubleValue
-8.750

@<SCITEGIC>MOL_PROPERTY
VdW12
SciTegic.value.DoubleValue
9.424

@<SCITEGIC>MOL_PROPERTY
Bond
SciTegic.value.DoubleValue
0.246

@<SCITEGIC>MOL_PROPERTY
Angle
SciTegic.value.DoubleValue
1.409

@<SCITEGIC>MOL_PROPERTY
Pdih
SciTegic.value.DoubleValue
1.854

@<SCITEGIC>MOL_PROPERTY
Idih
SciTegic.value.DoubleValue
0.000

@<SCITEGIC>MOL_PROPERTY
Tether
SciTegic.value.DoubleValue
0.000

@<TRIPOS>MOLECULE
guest-s13_vm2.mol2 : vm2 ligand conformer 19
          26          25           1
SMALL
USER_CHARGES
 
@<TRIPOS>ATOM
       1    C1      20.582698   18.953760   19.088259 C.3        1 MOL1        -0.2398
       2    H1      21.578882   19.069685   18.641927 H          1 MOL1         0.0972
       3    H2      20.145010   18.025598   18.698180 H          1 MOL1         0.0972
       4    H3      19.961795   19.793410   18.749575 H          1 MOL1         0.0972
       5    C2      20.676269   18.919436   20.628511 C.3        1 MOL1        -0.1383
       6    H4      21.155742   19.844055   20.975768 H          1 MOL1         0.0961
       7    H5      21.326314   18.088091   20.935082 H          1 MOL1         0.0961
       8    C3      19.282193   18.760988   21.280494 C.3        1 MOL1        -0.1407
       9    H6      18.650244   19.620743   21.018347 H          1 MOL1         0.0961
      10    H7      18.789293   17.876057   20.854646 H          1 MOL1         0.0961
      11    C4      19.329829   18.600831   22.820132 C.3        1 MOL1        -0.1407
      12    H8      19.957366   17.736170   23.073529 H          1 MOL1         0.0961
      13    H9      18.316018   18.360313   23.165014 H          1 MOL1         0.0961
      14    C5      19.842397   19.869082   23.556305 C.3        1 MOL1        -0.1472
      15    H10     20.867226   20.091937   23.235685 H          1 MOL1         0.0961
      16    H11     19.235946   20.733847   23.256354 H          1 MOL1         0.0961
      17    C6      19.839527   19.770882   25.100429 C.3        1 MOL1         0.1190
      18    H12     20.272162   20.699821   25.484791 H          1 MOL1         0.0923
      19    C7      18.416080   19.652159   25.672987 C.3        1 MOL1        -0.2463
      20    H13     18.435951   19.729290   26.766984 H          1 MOL1         0.0972
      21    H14     17.951971   18.693156   25.414537 H          1 MOL1         0.0972
      22    H15     17.774954   20.458123   25.294941 H          1 MOL1         0.0972
      23    N1      20.719006   18.660862   25.606883 N.4        1 MOL1        -0.5974
      24    H16     20.375974   17.746775   25.301797 H          1 MOL1         0.3625
      25    H17     21.680208   18.758792   25.267931 H          1 MOL1         0.3625
      26    H18     20.755244   18.649401   26.630089 H          1 MOL1         0.3625
@<TRIPOS>BOND
    1     1     2    1
    2     1     3    1
    3     1     4    1
    4     1     5    1
    5     5     6    1
    6     5     7    1
    7     5     8    1
    8     8     9    1
    9     8    10    1
   10     8    11    1
   11    11    12    1
   12    11    13    1
   13    11    14    1
   14    14    15    1
   15    14    16    1
   16    14    17    1
   17    17    18    1
   18    17    19    1
   19    19    20    1
   20    19    21    1
   21    19    22    1
   22    17    23    1
   23    23    24    1
   24    23    25    1
   25    23    26    1
@<TRIPOS>SUBSTRUCTURE
       1 MOL1            1 RESIDUE      1      MOL     
@<SCITEGIC>MOL_PROPERTY
VM2 Rank
SciTegic.value.IntegerValue
19

@<SCITEGIC>MOL_PROPERTY
Conf_Id
SciTegic.value.IntegerValue
225

@<SCITEGIC>MOL_PROPERTY
Probability
SciTegic.value.DoubleValue
1.85

@<SCITEGIC>MOL_PROPERTY
Sum Probability
SciTegic.value.DoubleValue
85.34

@<SCITEGIC>MOL_PROPERTY
Delta G
SciTegic.value.DoubleValue
1.321

@<SCITEGIC>MOL_PROPERTY
G
SciTegic.value.DoubleValue
25.031

@<SCITEGIC>MOL_PROPERTY
E
SciTegic.value.DoubleValue
-7.727

@<SCITEGIC>MOL_PROPERTY
-TS
SciTegic.value.DoubleValue
32.758

@<SCITEGIC>MOL_PROPERTY
U+W
SciTegic.value.DoubleValue
-29.189

@<SCITEGIC>MOL_PROPERTY
U
SciTegic.value.DoubleValue
24.990

@<SCITEGIC>MOL_PROPERTY
W
SciTegic.value.DoubleValue
-54.179

@<SCITEGIC>MOL_PROPERTY
W(PB)
SciTegic.value.DoubleValue
-56.459

@<SCITEGIC>MOL_PROPERTY
W(SA)
SciTegic.value.DoubleValue
2.279

@<SCITEGIC>MOL_PROPERTY
Valence
SciTegic.value.DoubleValue
3.862

@<SCITEGIC>MOL_PROPERTY
Coulomb
SciTegic.value.DoubleValue
19.956

@<SCITEGIC>MOL_PROPERTY
VdW
SciTegic.value.DoubleValue
1.172

@<SCITEGIC>MOL_PROPERTY
VdW6
SciTegic.value.DoubleValue
-8.054

@<SCITEGIC>MOL_PROPERTY
VdW12
SciTegic.value.DoubleValue
9.226

@<SCITEGIC>MOL_PROPERTY
Bond
SciTegic.value.DoubleValue
0.258

@<SCITEGIC>MOL_PROPERTY
Angle
SciTegic.value.DoubleValue
1.498

@<SCITEGIC>MOL_PROPERTY
Pdih
SciTegic.value.DoubleValue
2.106

@<SCITEGIC>MOL_PROPERTY
Idih
SciTegic.value.DoubleValue
0.000

@<SCITEGIC>MOL_PROPERTY
Tether
SciTegic.value.DoubleValue
0.000

@<TRIPOS>MOLECULE
guest-s13_vm2.mol2 : vm2 ligand conformer 20
          26          25           1
SMALL
USER_CHARGES
 
@<TRIPOS>ATOM
       1    C1      20.294608   17.642529   20.325052 C.3        1 MOL1        -0.2398
       2    H1      19.745813   16.942044   19.682412 H          1 MOL1         0.0972
       3    H2      21.320365   17.717484   19.941452 H          1 MOL1         0.0972
       4    H3      20.334067   17.206112   21.330773 H          1 MOL1         0.0972
       5    C2      19.602768   19.024427   20.334031 C.3        1 MOL1        -0.1383
       6    H4      18.587202   18.927784   20.740705 H          1 MOL1         0.0961
       7    H5      19.479341   19.364753   19.296429 H          1 MOL1         0.0961
       8    C3      20.392814   20.104506   21.116228 C.3        1 MOL1        -0.1407
       9    H6      21.357843   20.269401   20.617518 H          1 MOL1         0.0961
      10    H7      19.852037   21.058366   21.046326 H          1 MOL1         0.0961
      11    C4      20.653628   19.780439   22.609857 C.3        1 MOL1        -0.1407
      12    H8      21.226596   20.609252   23.048277 H          1 MOL1         0.0961
      13    H9      21.295578   18.893647   22.685979 H          1 MOL1         0.0961
      14    C5      19.355262   19.575634   23.431248 C.3        1 MOL1        -0.1472
      15    H10     18.690272   20.433251   23.263624 H          1 MOL1         0.0961
      16    H11     18.819452   18.686592   23.075076 H          1 MOL1         0.0961
      17    C6      19.619874   19.438100   24.946043 C.3        1 MOL1         0.1190
      18    H12     20.169932   20.323402   25.279748 H          1 MOL1         0.0923
      19    C7      18.291774   19.376124   25.717343 C.3        1 MOL1        -0.2463
      20    H13     17.690197   20.274417   25.530536 H          1 MOL1         0.0972
      21    H14     18.472555   19.315786   26.797638 H          1 MOL1         0.0972
      22    H15     17.700356   18.501003   25.420214 H          1 MOL1         0.0972
      23    N1      20.477273   18.246241   25.274197 N.4        1 MOL1        -0.5974
      24    H16     20.026944   17.372678   24.989155 H          1 MOL1         0.3625
      25    H17     21.383164   18.295895   24.800627 H          1 MOL1         0.3625
      26    H18     20.660597   18.182928   26.279580 H          1 MOL1         0.3625
@<TRIPOS>BOND
    1     1     2    1
    2     1     3    1
    3     1     4    1
    4     1     5    1
    5     5     6    1
    6     5     7    1
    7     5     8    1
    8     8     9    1
    9     8    10    1
   10     8    11    1
   11    11    12    1
   12    11    13    1
   13    11    14    1
   14    14    15    1
   15    14    16    1
   16    14    17    1
   17    17    18    1
   18    17    19    1
   19    19    20    1
   20    19    21    1
   21    19    22    1
   22    17    23    1
   23    23    24    1
   24    23    25    1
   25    23    26    1
@<TRIPOS>SUBSTRUCTURE
       1 MOL1            1 RESIDUE      1      MOL     
@<SCITEGIC>MOL_PROPERTY
VM2 Rank
SciTegic.value.IntegerValue
20

@<SCITEGIC>MOL_PROPERTY
Conf_Id
SciTegic.value.IntegerValue
567

@<SCITEGIC>MOL_PROPERTY
Probability
SciTegic.value.DoubleValue
1.63

@<SCITEGIC>MOL_PROPERTY
Sum Probability
SciTegic.value.DoubleValue
86.97

@<SCITEGIC>MOL_PROPERTY
Delta G
SciTegic.value.DoubleValue
1.397

@<SCITEGIC>MOL_PROPERTY
G
SciTegic.value.DoubleValue
25.107

@<SCITEGIC>MOL_PROPERTY
E
SciTegic.value.DoubleValue
-7.889

@<SCITEGIC>MOL_PROPERTY
-TS
SciTegic.value.DoubleValue
32.995

@<SCITEGIC>MOL_PROPERTY
U+W
SciTegic.value.DoubleValue
-29.350

@<SCITEGIC>MOL_PROPERTY
U
SciTegic.value.DoubleValue
24.852

@<SCITEGIC>MOL_PROPERTY
W
SciTegic.value.DoubleValue
-54.202

@<SCITEGIC>MOL_PROPERTY
W(PB)
SciTegic.value.DoubleValue
-56.475

@<SCITEGIC>MOL_PROPERTY
W(SA)
SciTegic.value.DoubleValue
2.273

@<SCITEGIC>MOL_PROPERTY
Valence
SciTegic.value.DoubleValue
3.679

@<SCITEGIC>MOL_PROPERTY
Coulomb
SciTegic.value.DoubleValue
20.236

@<SCITEGIC>MOL_PROPERTY
VdW
SciTegic.value.DoubleValue
0.936

@<SCITEGIC>MOL_PROPERTY
VdW6
SciTegic.value.DoubleValue
-8.465

@<SCITEGIC>MOL_PROPERTY
VdW12
SciTegic.value.DoubleValue
9.401

@<SCITEGIC>MOL_PROPERTY
Bond
SciTegic.value.DoubleValue
0.251

@<SCITEGIC>MOL_PROPERTY
Angle
SciTegic.value.DoubleValue
1.470

@<SCITEGIC>MOL_PROPERTY
Pdih
SciTegic.value.DoubleValue
1.958

@<SCITEGIC>MOL_PROPERTY
Idih
SciTegic.value.DoubleValue
0.000

@<SCITEGIC>MOL_PROPERTY
Tether
SciTegic.value.DoubleValue
0.000

@<TRIPOS>MOLECULE
guest-s13_vm2.mol2 : vm2 ligand conformer 21
          26          25           1
SMALL
USER_CHARGES
 
@<TRIPOS>ATOM
       1    C1      19.466448   19.736363   19.671742 C.3        1 MOL1        -0.2398
       2    H1      19.518799   19.763742   18.575642 H          1 MOL1         0.0972
       3    H2      18.507073   19.279557   19.944449 H          1 MOL1         0.0972
       4    H3      19.469898   20.772630   20.033876 H          1 MOL1         0.0972
       5    C2      20.658920   18.941293   20.250259 C.3        1 MOL1        -0.1383
       6    H4      21.592457   19.363851   19.853086 H          1 MOL1         0.0961
       7    H5      20.617065   17.901756   19.896200 H          1 MOL1         0.0961
       8    C3      20.720446   18.966487   21.796357 C.3        1 MOL1        -0.1407
       9    H6      21.649795   18.475806   22.117003 H          1 MOL1         0.0961
      10    H7      20.786230   20.008739   22.136002 H          1 MOL1         0.0961
      11    C4      19.516920   18.260311   22.470062 C.3        1 MOL1        -0.1407
      12    H8      19.410803   17.251033   22.049201 H          1 MOL1         0.0961
      13    H9      18.584871   18.787344   22.230681 H          1 MOL1         0.0961
      14    C5      19.667202   18.138235   24.008450 C.3        1 MOL1        -0.1472
      15    H10     18.787234   17.621275   24.413619 H          1 MOL1         0.0961
      16    H11     20.526572   17.489194   24.222457 H          1 MOL1         0.0961
      17    C6      19.860892   19.479206   24.755311 C.3        1 MOL1         0.1190
      18    H12     20.743307   19.978599   24.344451 H          1 MOL1         0.0923
      19    C7      18.650299   20.414938   24.588157 C.3        1 MOL1        -0.2463
      20    H13     17.726903   19.934939   24.935341 H          1 MOL1         0.0972
      21    H14     18.513801   20.705362   23.539913 H          1 MOL1         0.0972
      22    H15     18.792101   21.337321   25.164646 H          1 MOL1         0.0972
      23    N1      20.146874   19.251167   26.213662 N.4        1 MOL1        -0.5974
      24    H16     20.975534   18.664896   26.348645 H          1 MOL1         0.3625
      25    H17     20.315580   20.133782   26.704532 H          1 MOL1         0.3625
      26    H18     19.363095   18.787509   26.680769 H          1 MOL1         0.3625
@<TRIPOS>BOND
    1     1     2    1
    2     1     3    1
    3     1     4    1
    4     1     5    1
    5     5     6    1
    6     5     7    1
    7     5     8    1
    8     8     9    1
    9     8    10    1
   10     8    11    1
   11    11    12    1
   12    11    13    1
   13    11    14    1
   14    14    15    1
   15    14    16    1
   16    14    17    1
   17    17    18    1
   18    17    19    1
   19    19    20    1
   20    19    21    1
   21    19    22    1
   22    17    23    1
   23    23    24    1
   24    23    25    1
   25    23    26    1
@<TRIPOS>SUBSTRUCTURE
       1 MOL1            1 RESIDUE      1      MOL     
@<SCITEGIC>MOL_PROPERTY
VM2 Rank
SciTegic.value.IntegerValue
21

@<SCITEGIC>MOL_PROPERTY
Conf_Id
SciTegic.value.IntegerValue
442

@<SCITEGIC>MOL_PROPERTY
Probability
SciTegic.value.DoubleValue
1.60

@<SCITEGIC>MOL_PROPERTY
Sum Probability
SciTegic.value.DoubleValue
88.57

@<SCITEGIC>MOL_PROPERTY
Delta G
SciTegic.value.DoubleValue
1.409

@<SCITEGIC>MOL_PROPERTY
G
SciTegic.value.DoubleValue
25.119

@<SCITEGIC>MOL_PROPERTY
E
SciTegic.value.DoubleValue
-7.848

@<SCITEGIC>MOL_PROPERTY
-TS
SciTegic.value.DoubleValue
32.967

@<SCITEGIC>MOL_PROPERTY
U+W
SciTegic.value.DoubleValue
-29.310

@<SCITEGIC>MOL_PROPERTY
U
SciTegic.value.DoubleValue
24.864

@<SCITEGIC>MOL_PROPERTY
W
SciTegic.value.DoubleValue
-54.173

@<SCITEGIC>MOL_PROPERTY
W(PB)
SciTegic.value.DoubleValue
-56.446

@<SCITEGIC>MOL_PROPERTY
W(SA)
SciTegic.value.DoubleValue
2.272

@<SCITEGIC>MOL_PROPERTY
Valence
SciTegic.value.DoubleValue
4.004

@<SCITEGIC>MOL_PROPERTY
Coulomb
SciTegic.value.DoubleValue
19.922

@<SCITEGIC>MOL_PROPERTY
VdW
SciTegic.value.DoubleValue
0.938

@<SCITEGIC>MOL_PROPERTY
VdW6
SciTegic.value.DoubleValue
-8.619

@<SCITEGIC>MOL_PROPERTY
VdW12
SciTegic.value.DoubleValue
9.557

@<SCITEGIC>MOL_PROPERTY
Bond
SciTegic.value.DoubleValue
0.248

@<SCITEGIC>MOL_PROPERTY
Angle
SciTegic.value.DoubleValue
1.606

@<SCITEGIC>MOL_PROPERTY
Pdih
SciTegic.value.DoubleValue
2.151

@<SCITEGIC>MOL_PROPERTY
Idih
SciTegic.value.DoubleValue
0.000

@<SCITEGIC>MOL_PROPERTY
Tether
SciTegic.value.DoubleValue
0.000

@<TRIPOS>MOLECULE
guest-s13_vm2.mol2 : vm2 ligand conformer 22
          26          25           1
SMALL
USER_CHARGES
 
@<TRIPOS>ATOM
       1    C1      20.115511   18.573926   19.346074 C.3        1 MOL1        -0.2398
       2    H1      20.712410   18.341611   18.454628 H          1 MOL1         0.0972
       3    H2      19.613934   17.648948   19.656065 H          1 MOL1         0.0972
       4    H3      19.347124   19.301798   19.054869 H          1 MOL1         0.0972
       5    C2      21.017158   19.136252   20.468492 C.3        1 MOL1        -0.1383
       6    H4      21.591808   19.983136   20.067992 H          1 MOL1         0.0961
       7    H5      21.754892   18.377706   20.765242 H          1 MOL1         0.0961
       8    C3      20.229386   19.616072   21.711533 C.3        1 MOL1        -0.1407
       9    H6      20.935207   20.112572   22.390097 H          1 MOL1         0.0961
      10    H7      19.500383   20.380814   21.409977 H          1 MOL1         0.0961
      11    C4      19.503988   18.469921   22.461507 C.3        1 MOL1        -0.1407
      12    H8      20.226177   17.690606   22.738538 H          1 MOL1         0.0961
      13    H9      18.783184   17.990023   21.786972 H          1 MOL1         0.0961
      14    C5      18.734445   18.952683   23.718089 C.3        1 MOL1        -0.1472
      15    H10     17.958462   19.663844   23.404935 H          1 MOL1         0.0961
      16    H11     18.205662   18.098950   24.162398 H          1 MOL1         0.0961
      17    C6      19.622212   19.617762   24.794144 C.3        1 MOL1         0.1190
      18    H12     20.121922   20.480762   24.344575 H          1 MOL1         0.0923
      19    C7      18.759639   20.120764   25.962537 C.3        1 MOL1        -0.2463
      20    H13     18.006953   20.837334   25.610809 H          1 MOL1         0.0972
      21    H14     19.378997   20.629545   26.711463 H          1 MOL1         0.0972
      22    H15     18.237611   19.291840   26.456757 H          1 MOL1         0.0972
      23    N1      20.705660   18.700621   25.291625 N.4        1 MOL1        -0.5974
      24    H16     21.310112   18.390314   24.526124 H          1 MOL1         0.3625
      25    H17     21.300166   19.163860   25.984674 H          1 MOL1         0.3625
      26    H18     20.313317   17.865098   25.733437 H          1 MOL1         0.3625
@<TRIPOS>BOND
    1     1     2    1
    2     1     3    1
    3     1     4    1
    4     1     5    1
    5     5     6    1
    6     5     7    1
    7     5     8    1
    8     8     9    1
    9     8    10    1
   10     8    11    1
   11    11    12    1
   12    11    13    1
   13    11    14    1
   14    14    15    1
   15    14    16    1
   16    14    17    1
   17    17    18    1
   18    17    19    1
   19    19    20    1
   20    19    21    1
   21    19    22    1
   22    17    23    1
   23    23    24    1
   24    23    25    1
   25    23    26    1
@<TRIPOS>SUBSTRUCTURE
       1 MOL1            1 RESIDUE      1      MOL     
@<SCITEGIC>MOL_PROPERTY
VM2 Rank
SciTegic.value.IntegerValue
22

@<SCITEGIC>MOL_PROPERTY
Conf_Id
SciTegic.value.IntegerValue
672

@<SCITEGIC>MOL_PROPERTY
Probability
SciTegic.value.DoubleValue
1.58

@<SCITEGIC>MOL_PROPERTY
Sum Probability
SciTegic.value.DoubleValue
90.15

@<SCITEGIC>MOL_PROPERTY
Delta G
SciTegic.value.DoubleValue
1.416

@<SCITEGIC>MOL_PROPERTY
G
SciTegic.value.DoubleValue
25.126

@<SCITEGIC>MOL_PROPERTY
E
SciTegic.value.DoubleValue
-7.705

@<SCITEGIC>MOL_PROPERTY
-TS
SciTegic.value.DoubleValue
32.830

@<SCITEGIC>MOL_PROPERTY
U+W
SciTegic.value.DoubleValue
-29.166

@<SCITEGIC>MOL_PROPERTY
U
SciTegic.value.DoubleValue
24.833

@<SCITEGIC>MOL_PROPERTY
W
SciTegic.value.DoubleValue
-53.999

@<SCITEGIC>MOL_PROPERTY
W(PB)
SciTegic.value.DoubleValue
-56.293

@<SCITEGIC>MOL_PROPERTY
W(SA)
SciTegic.value.DoubleValue
2.294

@<SCITEGIC>MOL_PROPERTY
Valence
SciTegic.value.DoubleValue
3.589

@<SCITEGIC>MOL_PROPERTY
Coulomb
SciTegic.value.DoubleValue
20.270

@<SCITEGIC>MOL_PROPERTY
VdW
SciTegic.value.DoubleValue
0.974

@<SCITEGIC>MOL_PROPERTY
VdW6
SciTegic.value.DoubleValue
-8.255

@<SCITEGIC>MOL_PROPERTY
VdW12
SciTegic.value.DoubleValue
9.228

@<SCITEGIC>MOL_PROPERTY
Bond
SciTegic.value.DoubleValue
0.244

@<SCITEGIC>MOL_PROPERTY
Angle
SciTegic.value.DoubleValue
1.377

@<SCITEGIC>MOL_PROPERTY
Pdih
SciTegic.value.DoubleValue
1.967

@<SCITEGIC>MOL_PROPERTY
Idih
SciTegic.value.DoubleValue
0.000

@<SCITEGIC>MOL_PROPERTY
Tether
SciTegic.value.DoubleValue
0.000

@<TRIPOS>MOLECULE
guest-s13_vm2.mol2 : vm2 ligand conformer 23
          26          25           1
SMALL
USER_CHARGES
 
@<TRIPOS>ATOM
       1    C1      21.241008   18.195301   20.074075 C.3        1 MOL1        -0.2398
       2    H1      21.533309   18.016887   19.031163 H          1 MOL1         0.0972
       3    H2      22.152469   18.415945   20.644599 H          1 MOL1         0.0972
       4    H3      20.810315   17.262823   20.459315 H          1 MOL1         0.0972
       5    C2      20.234004   19.364625   20.160370 C.3        1 MOL1        -0.1383
       6    H4      19.321246   19.108510   19.604457 H          1 MOL1         0.0961
       7    H5      20.664946   20.241015   19.656351 H          1 MOL1         0.0961
       8    C3      19.870751   19.755702   21.612909 C.3        1 MOL1        -0.1407
       9    H6      20.787613   20.032537   22.150025 H          1 MOL1         0.0961
      10    H7      19.243596   20.657477   21.584907 H          1 MOL1         0.0961
      11    C4      19.116446   18.639279   22.378398 C.3        1 MOL1        -0.1407
      12    H8      19.757346   17.755517   22.488828 H          1 MOL1         0.0961
      13    H9      18.252164   18.315977   21.782074 H          1 MOL1         0.0961
      14    C5      18.610937   19.092919   23.771873 C.3        1 MOL1        -0.1472
      15    H10     17.885011   19.905824   23.637102 H          1 MOL1         0.0961
      16    H11     18.061010   18.265748   24.240091 H          1 MOL1         0.0961
      17    C6      19.728800   19.569534   24.726406 C.3        1 MOL1         0.1190
      18    H12     20.251126   20.406813   24.254168 H          1 MOL1         0.0923
      19    C7      19.126245   20.066659   26.049991 C.3        1 MOL1        -0.2463
      20    H13     18.592874   19.261644   26.570898 H          1 MOL1         0.0972
      21    H14     18.418767   20.886213   25.872450 H          1 MOL1         0.0972
      22    H15     19.911546   20.443584   26.716758 H          1 MOL1         0.0972
      23    N1      20.759810   18.503982   24.979979 N.4        1 MOL1        -0.5974
      24    H16     20.345041   17.683156   25.428841 H          1 MOL1         0.3625
      25    H17     21.194026   18.192661   24.106897 H          1 MOL1         0.3625
      26    H18     21.507250   18.843576   25.591855 H          1 MOL1         0.3625
@<TRIPOS>BOND
    1     1     2    1
    2     1     3    1
    3     1     4    1
    4     1     5    1
    5     5     6    1
    6     5     7    1
    7     5     8    1
    8     8     9    1
    9     8    10    1
   10     8    11    1
   11    11    12    1
   12    11    13    1
   13    11    14    1
   14    14    15    1
   15    14    16    1
   16    14    17    1
   17    17    18    1
   18    17    19    1
   19    19    20    1
   20    19    21    1
   21    19    22    1
   22    17    23    1
   23    23    24    1
   24    23    25    1
   25    23    26    1
@<TRIPOS>SUBSTRUCTURE
       1 MOL1            1 RESIDUE      1      MOL     
@<SCITEGIC>MOL_PROPERTY
VM2 Rank
SciTegic.value.IntegerValue
23

@<SCITEGIC>MOL_PROPERTY
Conf_Id
SciTegic.value.IntegerValue
523

@<SCITEGIC>MOL_PROPERTY
Probability
SciTegic.value.DoubleValue
1.45

@<SCITEGIC>MOL_PROPERTY
Sum Probability
SciTegic.value.DoubleValue
91.60

@<SCITEGIC>MOL_PROPERTY
Delta G
SciTegic.value.DoubleValue
1.465

@<SCITEGIC>MOL_PROPERTY
G
SciTegic.value.DoubleValue
25.175

@<SCITEGIC>MOL_PROPERTY
E
SciTegic.value.DoubleValue
-7.697

@<SCITEGIC>MOL_PROPERTY
-TS
SciTegic.value.DoubleValue
32.873

@<SCITEGIC>MOL_PROPERTY
U+W
SciTegic.value.DoubleValue
-29.159

@<SCITEGIC>MOL_PROPERTY
U
SciTegic.value.DoubleValue
24.809

@<SCITEGIC>MOL_PROPERTY
W
SciTegic.value.DoubleValue
-53.969

@<SCITEGIC>MOL_PROPERTY
W(PB)
SciTegic.value.DoubleValue
-56.250

@<SCITEGIC>MOL_PROPERTY
W(SA)
SciTegic.value.DoubleValue
2.282

@<SCITEGIC>MOL_PROPERTY
Valence
SciTegic.value.DoubleValue
3.513

@<SCITEGIC>MOL_PROPERTY
Coulomb
SciTegic.value.DoubleValue
20.422

@<SCITEGIC>MOL_PROPERTY
VdW
SciTegic.value.DoubleValue
0.874

@<SCITEGIC>MOL_PROPERTY
VdW6
SciTegic.value.DoubleValue
-8.372

@<SCITEGIC>MOL_PROPERTY
VdW12
SciTegic.value.DoubleValue
9.246

@<SCITEGIC>MOL_PROPERTY
Bond
SciTegic.value.DoubleValue
0.236

@<SCITEGIC>MOL_PROPERTY
Angle
SciTegic.value.DoubleValue
1.287

@<SCITEGIC>MOL_PROPERTY
Pdih
SciTegic.value.DoubleValue
1.990

@<SCITEGIC>MOL_PROPERTY
Idih
SciTegic.value.DoubleValue
0.000

@<SCITEGIC>MOL_PROPERTY
Tether
SciTegic.value.DoubleValue
0.000

@<TRIPOS>MOLECULE
guest-s13_vm2.mol2 : vm2 ligand conformer 24
          26          25           1
SMALL
USER_CHARGES
 
@<TRIPOS>ATOM
       1    C1      19.082109   18.286878   20.098690 C.3        1 MOL1        -0.2398
       2    H1      18.441422   18.198666   20.984937 H          1 MOL1         0.0972
       3    H2      18.694023   19.100753   19.472638 H          1 MOL1         0.0972
       4    H3      18.990080   17.352410   19.530234 H          1 MOL1         0.0972
       5    C2      20.555983   18.540527   20.488346 C.3        1 MOL1        -0.1383
       6    H4      21.173573   18.501985   19.580177 H          1 MOL1         0.0961
       7    H5      20.915063   17.724922   21.130212 H          1 MOL1         0.0961
       8    C3      20.783849   19.907906   21.181879 C.3        1 MOL1        -0.1407
       9    H6      21.855643   20.022470   21.394735 H          1 MOL1         0.0961
      10    H7      20.530522   20.710917   20.476064 H          1 MOL1         0.0961
      11    C4      19.982783   20.125268   22.491524 C.3        1 MOL1        -0.1407
      12    H8      18.909313   20.133318   22.264678 H          1 MOL1         0.0961
      13    H9      20.219317   21.125222   22.880612 H          1 MOL1         0.0961
      14    C5      20.294316   19.071531   23.585246 C.3        1 MOL1        -0.1472
      15    H10     19.949551   18.081004   23.262151 H          1 MOL1         0.0961
      16    H11     21.383685   19.001514   23.702723 H          1 MOL1         0.0961
      17    C6      19.672224   19.404307   24.960419 C.3        1 MOL1         0.1190
      18    H12     19.993232   20.410272   25.247907 H          1 MOL1         0.0923
      19    C7      18.133625   19.376221   24.921242 C.3        1 MOL1        -0.2463
      20    H13     17.718282   19.565913   25.918642 H          1 MOL1         0.0972
      21    H14     17.763028   18.402281   24.578051 H          1 MOL1         0.0972
      22    H15     17.737528   20.149632   24.253143 H          1 MOL1         0.0972
      23    N1      20.183110   18.475362   26.026654 N.4        1 MOL1        -0.5974
      24    H16     19.803996   18.717332   26.946525 H          1 MOL1         0.3625
      25    H17     19.921591   17.504732   25.834538 H          1 MOL1         0.3625
      26    H18     21.203900   18.510296   26.099975 H          1 MOL1         0.3625
@<TRIPOS>BOND
    1     1     2    1
    2     1     3    1
    3     1     4    1
    4     1     5    1
    5     5     6    1
    6     5     7    1
    7     5     8    1
    8     8     9    1
    9     8    10    1
   10     8    11    1
   11    11    12    1
   12    11    13    1
   13    11    14    1
   14    14    15    1
   15    14    16    1
   16    14    17    1
   17    17    18    1
   18    17    19    1
   19    19    20    1
   20    19    21    1
   21    19    22    1
   22    17    23    1
   23    23    24    1
   24    23    25    1
   25    23    26    1
@<TRIPOS>SUBSTRUCTURE
       1 MOL1            1 RESIDUE      1      MOL     
@<SCITEGIC>MOL_PROPERTY
VM2 Rank
SciTegic.value.IntegerValue
24

@<SCITEGIC>MOL_PROPERTY
Conf_Id
SciTegic.value.IntegerValue
275

@<SCITEGIC>MOL_PROPERTY
Probability
SciTegic.value.DoubleValue
1.18

@<SCITEGIC>MOL_PROPERTY
Sum Probability
SciTegic.value.DoubleValue
92.79

@<SCITEGIC>MOL_PROPERTY
Delta G
SciTegic.value.DoubleValue
1.587

@<SCITEGIC>MOL_PROPERTY
G
SciTegic.value.DoubleValue
25.297

@<SCITEGIC>MOL_PROPERTY
E
SciTegic.value.DoubleValue
-7.726

@<SCITEGIC>MOL_PROPERTY
-TS
SciTegic.value.DoubleValue
33.023

@<SCITEGIC>MOL_PROPERTY
U+W
SciTegic.value.DoubleValue
-29.188

@<SCITEGIC>MOL_PROPERTY
U
SciTegic.value.DoubleValue
25.014

@<SCITEGIC>MOL_PROPERTY
W
SciTegic.value.DoubleValue
-54.202

@<SCITEGIC>MOL_PROPERTY
W(PB)
SciTegic.value.DoubleValue
-56.465

@<SCITEGIC>MOL_PROPERTY
W(SA)
SciTegic.value.DoubleValue
2.263

@<SCITEGIC>MOL_PROPERTY
Valence
SciTegic.value.DoubleValue
4.188

@<SCITEGIC>MOL_PROPERTY
Coulomb
SciTegic.value.DoubleValue
19.774

@<SCITEGIC>MOL_PROPERTY
VdW
SciTegic.value.DoubleValue
1.052

@<SCITEGIC>MOL_PROPERTY
VdW6
SciTegic.value.DoubleValue
-8.654

@<SCITEGIC>MOL_PROPERTY
VdW12
SciTegic.value.DoubleValue
9.707

@<SCITEGIC>MOL_PROPERTY
Bond
SciTegic.value.DoubleValue
0.263

@<SCITEGIC>MOL_PROPERTY
Angle
SciTegic.value.DoubleValue
1.714

@<SCITEGIC>MOL_PROPERTY
Pdih
SciTegic.value.DoubleValue
2.211

@<SCITEGIC>MOL_PROPERTY
Idih
SciTegic.value.DoubleValue
0.000

@<SCITEGIC>MOL_PROPERTY
Tether
SciTegic.value.DoubleValue
0.000

@<TRIPOS>MOLECULE
guest-s13_vm2.mol2 : vm2 ligand conformer 25
          26          25           1
SMALL
USER_CHARGES
 
@<TRIPOS>ATOM
       1    C1      20.060914   18.616783   19.331006 C.3        1 MOL1        -0.2398
       2    H1      20.051155   18.996229   18.301025 H          1 MOL1         0.0972
       3    H2      20.809598   17.815889   19.386291 H          1 MOL1         0.0972
       4    H3      19.074382   18.180410   19.529923 H          1 MOL1         0.0972
       5    C2      20.390384   19.755325   20.323065 C.3        1 MOL1        -0.1383
       6    H4      19.609541   20.527047   20.273300 H          1 MOL1         0.0961
       7    H5      21.323184   20.241419   20.004604 H          1 MOL1         0.0961
       8    C3      20.557417   19.272511   21.784191 C.3        1 MOL1        -0.1407
       9    H6      21.344633   18.507391   21.829558 H          1 MOL1         0.0961
      10    H7      20.914520   20.120514   22.383098 H          1 MOL1         0.0961
      11    C4      19.249987   18.715224   22.402326 C.3        1 MOL1        -0.1407
      12    H8      18.901984   17.857959   21.811802 H          1 MOL1         0.0961
      13    H9      18.455279   19.469842   22.336239 H          1 MOL1         0.0961
      14    C5      19.419279   18.245891   23.870826 C.3        1 MOL1        -0.1472
      15    H10     18.463103   17.840333   24.227229 H          1 MOL1         0.0961
      16    H11     20.129315   17.408526   23.886805 H          1 MOL1         0.0961
      17    C6      19.910763   19.330994   24.858211 C.3        1 MOL1         0.1190
      18    H12     20.868840   19.717501   24.498627 H          1 MOL1         0.0923
      19    C7      18.921964   20.505420   24.967052 C.3        1 MOL1        -0.2463
      20    H13     18.825776   21.034058   24.011552 H          1 MOL1         0.0972
      21    H14     19.269028   21.235643   25.708384 H          1 MOL1         0.0972
      22    H15     17.926255   20.158964   25.270603 H          1 MOL1         0.0972
      23    N1      20.177293   18.745851   26.217322 N.4        1 MOL1        -0.5974
      24    H16     20.540937   19.451574   26.863967 H          1 MOL1         0.3625
      25    H17     19.324704   18.361717   26.633270 H          1 MOL1         0.3625
      26    H18     20.866080   17.989331   26.174097 H          1 MOL1         0.3625
@<TRIPOS>BOND
    1     1     2    1
    2     1     3    1
    3     1     4    1
    4     1     5    1
    5     5     6    1
    6     5     7    1
    7     5     8    1
    8     8     9    1
    9     8    10    1
   10     8    11    1
   11    11    12    1
   12    11    13    1
   13    11    14    1
   14    14    15    1
   15    14    16    1
   16    14    17    1
   17    17    18    1
   18    17    19    1
   19    19    20    1
   20    19    21    1
   21    19    22    1
   22    17    23    1
   23    23    24    1
   24    23    25    1
   25    23    26    1
@<TRIPOS>SUBSTRUCTURE
       1 MOL1            1 RESIDUE      1      MOL     
@<SCITEGIC>MOL_PROPERTY
VM2 Rank
SciTegic.value.IntegerValue
25

@<SCITEGIC>MOL_PROPERTY
Conf_Id
SciTegic.value.IntegerValue
852

@<SCITEGIC>MOL_PROPERTY
Probability
SciTegic.value.DoubleValue
1.15

@<SCITEGIC>MOL_PROPERTY
Sum Probability
SciTegic.value.DoubleValue
93.94

@<SCITEGIC>MOL_PROPERTY
Delta G
SciTegic.value.DoubleValue
1.604

@<SCITEGIC>MOL_PROPERTY
G
SciTegic.value.DoubleValue
25.314

@<SCITEGIC>MOL_PROPERTY
E
SciTegic.value.DoubleValue
-7.609

@<SCITEGIC>MOL_PROPERTY
-TS
SciTegic.value.DoubleValue
32.923

@<SCITEGIC>MOL_PROPERTY
U+W
SciTegic.value.DoubleValue
-29.071

@<SCITEGIC>MOL_PROPERTY
U
SciTegic.value.DoubleValue
25.023

@<SCITEGIC>MOL_PROPERTY
W
SciTegic.value.DoubleValue
-54.094

@<SCITEGIC>MOL_PROPERTY
W(PB)
SciTegic.value.DoubleValue
-56.391

@<SCITEGIC>MOL_PROPERTY
W(SA)
SciTegic.value.DoubleValue
2.297

@<SCITEGIC>MOL_PROPERTY
Valence
SciTegic.value.DoubleValue
4.083

@<SCITEGIC>MOL_PROPERTY
Coulomb
SciTegic.value.DoubleValue
19.893

@<SCITEGIC>MOL_PROPERTY
VdW
SciTegic.value.DoubleValue
1.047

@<SCITEGIC>MOL_PROPERTY
VdW6
SciTegic.value.DoubleValue
-8.479

@<SCITEGIC>MOL_PROPERTY
VdW12
SciTegic.value.DoubleValue
9.526

@<SCITEGIC>MOL_PROPERTY
Bond
SciTegic.value.DoubleValue
0.256

@<SCITEGIC>MOL_PROPERTY
Angle
SciTegic.value.DoubleValue
1.715

@<SCITEGIC>MOL_PROPERTY
Pdih
SciTegic.value.DoubleValue
2.112

@<SCITEGIC>MOL_PROPERTY
Idih
SciTegic.value.DoubleValue
0.000

@<SCITEGIC>MOL_PROPERTY
Tether
SciTegic.value.DoubleValue
0.000

@<TRIPOS>MOLECULE
guest-s13_vm2.mol2 : vm2 ligand conformer 26
          26          25           1
SMALL
USER_CHARGES
 
@<TRIPOS>ATOM
       1    C1      21.168064   19.399915   19.780647 C.3        1 MOL1        -0.2398
       2    H1      20.481321   19.601519   18.948210 H          1 MOL1         0.0972
       3    H2      21.565343   20.359518   20.136383 H          1 MOL1         0.0972
       4    H3      22.008132   18.811707   19.389093 H          1 MOL1         0.0972
       5    C2      20.453891   18.639587   20.918060 C.3        1 MOL1        -0.1383
       6    H4      21.180719   18.421608   21.711817 H          1 MOL1         0.0961
       7    H5      20.094401   17.672190   20.540431 H          1 MOL1         0.0961
       8    C3      19.266824   19.450907   21.488299 C.3        1 MOL1        -0.1407
       9    H6      19.631368   20.402860   21.896796 H          1 MOL1         0.0961
      10    H7      18.587839   19.715617   20.665980 H          1 MOL1         0.0961
      11    C4      18.454685   18.686601   22.565561 C.3        1 MOL1        -0.1407
      12    H8      18.011134   17.790601   22.109951 H          1 MOL1         0.0961
      13    H9      17.605125   19.308309   22.878197 H          1 MOL1         0.0961
      14    C5      19.269077   18.258164   23.815952 C.3        1 MOL1        -0.1472
      15    H10     18.589622   17.788077   24.539171 H          1 MOL1         0.0961
      16    H11     19.980000   17.475047   23.523360 H          1 MOL1         0.0961
      17    C6      20.043358   19.401785   24.512160 C.3        1 MOL1         0.1190
      18    H12     20.703856   19.868555   23.775299 H          1 MOL1         0.0923
      19    C7      19.098157   20.479687   25.072081 C.3        1 MOL1        -0.2463
      20    H13     18.384228   20.049296   25.785291 H          1 MOL1         0.0972
      21    H14     18.530795   20.966775   24.270519 H          1 MOL1         0.0972
      22    H15     19.667098   21.261671   25.589801 H          1 MOL1         0.0972
      23    N1      20.933943   18.871354   25.601239 N.4        1 MOL1        -0.5974
      24    H16     21.477149   19.621017   26.038686 H          1 MOL1         0.3625
      25    H17     20.390966   18.417311   26.340504 H          1 MOL1         0.3625
      26    H18     21.600703   18.182242   25.242034 H          1 MOL1         0.3625
@<TRIPOS>BOND
    1     1     2    1
    2     1     3    1
    3     1     4    1
    4     1     5    1
    5     5     6    1
    6     5     7    1
    7     5     8    1
    8     8     9    1
    9     8    10    1
   10     8    11    1
   11    11    12    1
   12    11    13    1
   13    11    14    1
   14    14    15    1
   15    14    16    1
   16    14    17    1
   17    17    18    1
   18    17    19    1
   19    19    20    1
   20    19    21    1
   21    19    22    1
   22    17    23    1
   23    23    24    1
   24    23    25    1
   25    23    26    1
@<TRIPOS>SUBSTRUCTURE
       1 MOL1            1 RESIDUE      1      MOL     
@<SCITEGIC>MOL_PROPERTY
VM2 Rank
SciTegic.value.IntegerValue
26

@<SCITEGIC>MOL_PROPERTY
Conf_Id
SciTegic.value.IntegerValue
538

@<SCITEGIC>MOL_PROPERTY
Probability
SciTegic.value.DoubleValue
1.06

@<SCITEGIC>MOL_PROPERTY
Sum Probability
SciTegic.value.DoubleValue
94.99

@<SCITEGIC>MOL_PROPERTY
Delta G
SciTegic.value.DoubleValue
1.656

@<SCITEGIC>MOL_PROPERTY
G
SciTegic.value.DoubleValue
25.366

@<SCITEGIC>MOL_PROPERTY
E
SciTegic.value.DoubleValue
-7.774

@<SCITEGIC>MOL_PROPERTY
-TS
SciTegic.value.DoubleValue
33.140

@<SCITEGIC>MOL_PROPERTY
U+W
SciTegic.value.DoubleValue
-29.236

@<SCITEGIC>MOL_PROPERTY
U
SciTegic.value.DoubleValue
25.091

@<SCITEGIC>MOL_PROPERTY
W
SciTegic.value.DoubleValue
-54.328

@<SCITEGIC>MOL_PROPERTY
W(PB)
SciTegic.value.DoubleValue
-56.623

@<SCITEGIC>MOL_PROPERTY
W(SA)
SciTegic.value.DoubleValue
2.295

@<SCITEGIC>MOL_PROPERTY
Valence
SciTegic.value.DoubleValue
3.981

@<SCITEGIC>MOL_PROPERTY
Coulomb
SciTegic.value.DoubleValue
20.360

@<SCITEGIC>MOL_PROPERTY
VdW
SciTegic.value.DoubleValue
0.750

@<SCITEGIC>MOL_PROPERTY
VdW6
SciTegic.value.DoubleValue
-8.971

@<SCITEGIC>MOL_PROPERTY
VdW12
SciTegic.value.DoubleValue
9.721

@<SCITEGIC>MOL_PROPERTY
Bond
SciTegic.value.DoubleValue
0.256

@<SCITEGIC>MOL_PROPERTY
Angle
SciTegic.value.DoubleValue
1.693

@<SCITEGIC>MOL_PROPERTY
Pdih
SciTegic.value.DoubleValue
2.032

@<SCITEGIC>MOL_PROPERTY
Idih
SciTegic.value.DoubleValue
0.000

@<SCITEGIC>MOL_PROPERTY
Tether
SciTegic.value.DoubleValue
0.000

@<TRIPOS>MOLECULE
guest-s13_vm2.mol2 : vm2 ligand conformer 27
          26          25           1
SMALL
USER_CHARGES
 
@<TRIPOS>ATOM
       1    C1      19.030462   19.323826   19.974949 C.3        1 MOL1        -0.2398
       2    H1      18.864383   20.035705   19.156118 H          1 MOL1         0.0972
       3    H2      18.710324   18.332576   19.628725 H          1 MOL1         0.0972
       4    H3      18.383269   19.622961   20.808828 H          1 MOL1         0.0972
       5    C2      20.519321   19.313100   20.389290 C.3        1 MOL1        -0.1383
       6    H4      20.810491   20.308204   20.751198 H          1 MOL1         0.0961
       7    H5      21.133293   19.127341   19.496991 H          1 MOL1         0.0961
       8    C3      20.856371   18.236112   21.452024 C.3        1 MOL1        -0.1407
       9    H6      20.676724   17.242552   21.018739 H          1 MOL1         0.0961
      10    H7      21.932465   18.278344   21.669719 H          1 MOL1         0.0961
      11    C4      20.067482   18.347701   22.782294 C.3        1 MOL1        -0.1407
      12    H8      20.381331   17.521158   23.432909 H          1 MOL1         0.0961
      13    H9      18.999173   18.191351   22.586784 H          1 MOL1         0.0961
      14    C5      20.287584   19.698432   23.516420 C.3        1 MOL1        -0.1472
      15    H10     21.364975   19.879464   23.624167 H          1 MOL1         0.0961
      16    H11     19.901538   20.520052   22.900174 H          1 MOL1         0.0961
      17    C6      19.631505   19.792527   24.914181 C.3        1 MOL1         0.1190
      18    H12     19.874495   20.779012   25.321145 H          1 MOL1         0.0923
      19    C7      18.098339   19.684449   24.840466 C.3        1 MOL1        -0.2463
      20    H13     17.776882   18.683698   24.528351 H          1 MOL1         0.0972
      21    H14     17.689720   20.414177   24.130470 H          1 MOL1         0.0972
      22    H15     17.651854   19.888902   25.821283 H          1 MOL1         0.0972
      23    N1      20.196937   18.791853   25.884376 N.4        1 MOL1        -0.5974
      24    H16     19.797757   18.910814   26.819720 H          1 MOL1         0.3625
      25    H17     20.000438   17.833209   25.586832 H          1 MOL1         0.3625
      26    H18     21.212821   18.885848   25.971398 H          1 MOL1         0.3625
@<TRIPOS>BOND
    1     1     2    1
    2     1     3    1
    3     1     4    1
    4     1     5    1
    5     5     6    1
    6     5     7    1
    7     5     8    1
    8     8     9    1
    9     8    10    1
   10     8    11    1
   11    11    12    1
   12    11    13    1
   13    11    14    1
   14    14    15    1
   15    14    16    1
   16    14    17    1
   17    17    18    1
   18    17    19    1
   19    19    20    1
   20    19    21    1
   21    19    22    1
   22    17    23    1
   23    23    24    1
   24    23    25    1
   25    23    26    1
@<TRIPOS>SUBSTRUCTURE
       1 MOL1            1 RESIDUE      1      MOL     
@<SCITEGIC>MOL_PROPERTY
VM2 Rank
SciTegic.value.IntegerValue
27

@<SCITEGIC>MOL_PROPERTY
Conf_Id
SciTegic.value.IntegerValue
1040

@<SCITEGIC>MOL_PROPERTY
Probability
SciTegic.value.DoubleValue
0.84

@<SCITEGIC>MOL_PROPERTY
Sum Probability
SciTegic.value.DoubleValue
95.83

@<SCITEGIC>MOL_PROPERTY
Delta G
SciTegic.value.DoubleValue
1.792

@<SCITEGIC>MOL_PROPERTY
G
SciTegic.value.DoubleValue
25.502

@<SCITEGIC>MOL_PROPERTY
E
SciTegic.value.DoubleValue
-7.649

@<SCITEGIC>MOL_PROPERTY
-TS
SciTegic.value.DoubleValue
33.151

@<SCITEGIC>MOL_PROPERTY
U+W
SciTegic.value.DoubleValue
-29.110

@<SCITEGIC>MOL_PROPERTY
U
SciTegic.value.DoubleValue
25.100

@<SCITEGIC>MOL_PROPERTY
W
SciTegic.value.DoubleValue
-54.211

@<SCITEGIC>MOL_PROPERTY
W(PB)
SciTegic.value.DoubleValue
-56.440

@<SCITEGIC>MOL_PROPERTY
W(SA)
SciTegic.value.DoubleValue
2.229

@<SCITEGIC>MOL_PROPERTY
Valence
SciTegic.value.DoubleValue
4.185

@<SCITEGIC>MOL_PROPERTY
Coulomb
SciTegic.value.DoubleValue
19.843

@<SCITEGIC>MOL_PROPERTY
VdW
SciTegic.value.DoubleValue
1.072

@<SCITEGIC>MOL_PROPERTY
VdW6
SciTegic.value.DoubleValue
-9.125

@<SCITEGIC>MOL_PROPERTY
VdW12
SciTegic.value.DoubleValue
10.197

@<SCITEGIC>MOL_PROPERTY
Bond
SciTegic.value.DoubleValue
0.294

@<SCITEGIC>MOL_PROPERTY
Angle
SciTegic.value.DoubleValue
1.814

@<SCITEGIC>MOL_PROPERTY
Pdih
SciTegic.value.DoubleValue
2.077

@<SCITEGIC>MOL_PROPERTY
Idih
SciTegic.value.DoubleValue
0.000

@<SCITEGIC>MOL_PROPERTY
Tether
SciTegic.value.DoubleValue
0.000

@<TRIPOS>MOLECULE
guest-s13_vm2.mol2 : vm2 ligand conformer 28
          26          25           1
SMALL
USER_CHARGES
 
@<TRIPOS>ATOM
       1    C1      21.308670   19.240116   20.127635 C.3        1 MOL1        -0.2398
       2    H1      22.091687   18.701784   19.578151 H          1 MOL1         0.0972
       3    H2      21.004345   20.102560   19.520567 H          1 MOL1         0.0972
       4    H3      21.755356   19.613768   21.057430 H          1 MOL1         0.0972
       5    C2      20.108206   18.308943   20.410591 C.3        1 MOL1        -0.1383
       6    H4      20.431678   17.466018   21.035575 H          1 MOL1         0.0961
       7    H5      19.773530   17.866082   19.462140 H          1 MOL1         0.0961
       8    C3      18.905074   19.034177   21.066208 C.3        1 MOL1        -0.1407
       9    H6      18.514971   19.779185   20.359106 H          1 MOL1         0.0961
      10    H7      18.093322   18.308948   21.215485 H          1 MOL1         0.0961
      11    C4      19.204005   19.741079   22.414115 C.3        1 MOL1        -0.1407
      12    H8      18.282018   20.239150   22.739775 H          1 MOL1         0.0961
      13    H9      19.942276   20.539620   22.262527 H          1 MOL1         0.0961
      14    C5      19.694995   18.776705   23.525059 C.3        1 MOL1        -0.1472
      15    H10     18.949516   17.987003   23.687005 H          1 MOL1         0.0961
      16    H11     20.609923   18.277568   23.183527 H          1 MOL1         0.0961
      17    C6      20.009096   19.479489   24.865965 C.3        1 MOL1         0.1190
      18    H12     20.706024   20.299814   24.668394 H          1 MOL1         0.0923
      19    C7      18.747296   20.060259   25.529809 C.3        1 MOL1        -0.2463
      20    H13     18.305020   20.856775   24.920784 H          1 MOL1         0.0972
      21    H14     18.991245   20.497978   26.505626 H          1 MOL1         0.0972
      22    H15     17.987903   19.283997   25.686044 H          1 MOL1         0.0972
      23    N1      20.710658   18.547233   25.814619 N.4        1 MOL1        -0.5974
      24    H16     20.956052   19.019041   26.689622 H          1 MOL1         0.3625
      25    H17     20.121946   17.745325   26.055192 H          1 MOL1         0.3625
      26    H18     21.578705   18.182149   25.412408 H          1 MOL1         0.3625
@<TRIPOS>BOND
    1     1     2    1
    2     1     3    1
    3     1     4    1
    4     1     5    1
    5     5     6    1
    6     5     7    1
    7     5     8    1
    8     8     9    1
    9     8    10    1
   10     8    11    1
   11    11    12    1
   12    11    13    1
   13    11    14    1
   14    14    15    1
   15    14    16    1
   16    14    17    1
   17    17    18    1
   18    17    19    1
   19    19    20    1
   20    19    21    1
   21    19    22    1
   22    17    23    1
   23    23    24    1
   24    23    25    1
   25    23    26    1
@<TRIPOS>SUBSTRUCTURE
       1 MOL1            1 RESIDUE      1      MOL     
@<SCITEGIC>MOL_PROPERTY
VM2 Rank
SciTegic.value.IntegerValue
28

@<SCITEGIC>MOL_PROPERTY
Conf_Id
SciTegic.value.IntegerValue
1291

@<SCITEGIC>MOL_PROPERTY
Probability
SciTegic.value.DoubleValue
0.77

@<SCITEGIC>MOL_PROPERTY
Sum Probability
SciTegic.value.DoubleValue
96.60

@<SCITEGIC>MOL_PROPERTY
Delta G
SciTegic.value.DoubleValue
1.843

@<SCITEGIC>MOL_PROPERTY
G
SciTegic.value.DoubleValue
25.553

@<SCITEGIC>MOL_PROPERTY
E
SciTegic.value.DoubleValue
-7.398

@<SCITEGIC>MOL_PROPERTY
-TS
SciTegic.value.DoubleValue
32.950

@<SCITEGIC>MOL_PROPERTY
U+W
SciTegic.value.DoubleValue
-28.860

@<SCITEGIC>MOL_PROPERTY
U
SciTegic.value.DoubleValue
25.366

@<SCITEGIC>MOL_PROPERTY
W
SciTegic.value.DoubleValue
-54.226

@<SCITEGIC>MOL_PROPERTY
W(PB)
SciTegic.value.DoubleValue
-56.495

@<SCITEGIC>MOL_PROPERTY
W(SA)
SciTegic.value.DoubleValue
2.270

@<SCITEGIC>MOL_PROPERTY
Valence
SciTegic.value.DoubleValue
4.329

@<SCITEGIC>MOL_PROPERTY
Coulomb
SciTegic.value.DoubleValue
19.841

@<SCITEGIC>MOL_PROPERTY
VdW
SciTegic.value.DoubleValue
1.196

@<SCITEGIC>MOL_PROPERTY
VdW6
SciTegic.value.DoubleValue
-8.514

@<SCITEGIC>MOL_PROPERTY
VdW12
SciTegic.value.DoubleValue
9.710

@<SCITEGIC>MOL_PROPERTY
Bond
SciTegic.value.DoubleValue
0.275

@<SCITEGIC>MOL_PROPERTY
Angle
SciTegic.value.DoubleValue
1.895

@<SCITEGIC>MOL_PROPERTY
Pdih
SciTegic.value.DoubleValue
2.159

@<SCITEGIC>MOL_PROPERTY
Idih
SciTegic.value.DoubleValue
0.000

@<SCITEGIC>MOL_PROPERTY
Tether
SciTegic.value.DoubleValue
0.000

@<TRIPOS>MOLECULE
guest-s13_vm2.mol2 : vm2 ligand conformer 29
          26          25           1
SMALL
USER_CHARGES
 
@<TRIPOS>ATOM
       1    C1      19.526231   19.232633   19.786281 C.3        1 MOL1        -0.2398
       2    H1      19.246571   20.043032   19.100805 H          1 MOL1         0.0972
       3    H2      20.017053   18.447826   19.196270 H          1 MOL1         0.0972
       4    H3      18.600229   18.819400   20.204950 H          1 MOL1         0.0972
       5    C2      20.463502   19.760945   20.895573 C.3        1 MOL1        -0.1383
       6    H4      19.947285   20.534769   21.479324 H          1 MOL1         0.0961
       7    H5      21.321194   20.261297   20.424759 H          1 MOL1         0.0961
       8    C3      20.995300   18.646843   21.832517 C.3        1 MOL1        -0.1407
       9    H6      21.591215   17.939805   21.239083 H          1 MOL1         0.0961
      10    H7      21.696321   19.092607   22.550651 H          1 MOL1         0.0961
      11    C4      19.902987   17.852940   22.598767 C.3        1 MOL1        -0.1407
      12    H8      20.392128   17.104304   23.236115 H          1 MOL1         0.0961
      13    H9      19.302855   17.275462   21.883062 H          1 MOL1         0.0961
      14    C5      18.952328   18.722921   23.463553 C.3        1 MOL1        -0.1472
      15    H10     18.339384   19.349986   22.803469 H          1 MOL1         0.0961
      16    H11     18.248935   18.066043   23.992145 H          1 MOL1         0.0961
      17    C6      19.678992   19.623328   24.486957 C.3        1 MOL1         0.1190
      18    H12     20.375664   20.268465   23.943377 H          1 MOL1         0.0923
      19    C7      18.670571   20.519302   25.223225 C.3        1 MOL1        -0.2463
      20    H13     17.946844   19.920293   25.790034 H          1 MOL1         0.0972
      21    H14     18.115005   21.145160   24.513750 H          1 MOL1         0.0972
      22    H15     19.184901   21.187749   25.924636 H          1 MOL1         0.0972
      23    N1      20.498089   18.829088   25.467126 N.4        1 MOL1        -0.5974
      24    H16     21.195130   18.253087   24.987737 H          1 MOL1         0.3625
      25    H17     20.998470   19.439391   26.119380 H          1 MOL1         0.3625
      26    H18     19.909982   18.202651   26.022896 H          1 MOL1         0.3625
@<TRIPOS>BOND
    1     1     2    1
    2     1     3    1
    3     1     4    1
    4     1     5    1
    5     5     6    1
    6     5     7    1
    7     5     8    1
    8     8     9    1
    9     8    10    1
   10     8    11    1
   11    11    12    1
   12    11    13    1
   13    11    14    1
   14    14    15    1
   15    14    16    1
   16    14    17    1
   17    17    18    1
   18    17    19    1
   19    19    20    1
   20    19    21    1
   21    19    22    1
   22    17    23    1
   23    23    24    1
   24    23    25    1
   25    23    26    1
@<TRIPOS>SUBSTRUCTURE
       1 MOL1            1 RESIDUE      1      MOL     
@<SCITEGIC>MOL_PROPERTY
VM2 Rank
SciTegic.value.IntegerValue
29

@<SCITEGIC>MOL_PROPERTY
Conf_Id
SciTegic.value.IntegerValue
1210

@<SCITEGIC>MOL_PROPERTY
Probability
SciTegic.value.DoubleValue
0.72

@<SCITEGIC>MOL_PROPERTY
Sum Probability
SciTegic.value.DoubleValue
97.32

@<SCITEGIC>MOL_PROPERTY
Delta G
SciTegic.value.DoubleValue
1.884

@<SCITEGIC>MOL_PROPERTY
G
SciTegic.value.DoubleValue
25.594

@<SCITEGIC>MOL_PROPERTY
E
SciTegic.value.DoubleValue
-7.749

@<SCITEGIC>MOL_PROPERTY
-TS
SciTegic.value.DoubleValue
33.343

@<SCITEGIC>MOL_PROPERTY
U+W
SciTegic.value.DoubleValue
-29.211

@<SCITEGIC>MOL_PROPERTY
U
SciTegic.value.DoubleValue
24.974

@<SCITEGIC>MOL_PROPERTY
W
SciTegic.value.DoubleValue
-54.185

@<SCITEGIC>MOL_PROPERTY
W(PB)
SciTegic.value.DoubleValue
-56.450

@<SCITEGIC>MOL_PROPERTY
W(SA)
SciTegic.value.DoubleValue
2.265

@<SCITEGIC>MOL_PROPERTY
Valence
SciTegic.value.DoubleValue
3.932

@<SCITEGIC>MOL_PROPERTY
Coulomb
SciTegic.value.DoubleValue
20.395

@<SCITEGIC>MOL_PROPERTY
VdW
SciTegic.value.DoubleValue
0.646

@<SCITEGIC>MOL_PROPERTY
VdW6
SciTegic.value.DoubleValue
-9.633

@<SCITEGIC>MOL_PROPERTY
VdW12
SciTegic.value.DoubleValue
10.279

@<SCITEGIC>MOL_PROPERTY
Bond
SciTegic.value.DoubleValue
0.286

@<SCITEGIC>MOL_PROPERTY
Angle
SciTegic.value.DoubleValue
1.718

@<SCITEGIC>MOL_PROPERTY
Pdih
SciTegic.value.DoubleValue
1.928

@<SCITEGIC>MOL_PROPERTY
Idih
SciTegic.value.DoubleValue
0.000

@<SCITEGIC>MOL_PROPERTY
Tether
SciTegic.value.DoubleValue
0.000

@<TRIPOS>MOLECULE
guest-s13_vm2.mol2 : vm2 ligand conformer 30
          26          25           1
SMALL
USER_CHARGES
 
@<TRIPOS>ATOM
       1    C1      21.197030   18.189349   20.363544 C.3        1 MOL1        -0.2398
       2    H1      21.560809   17.970126   21.374999 H          1 MOL1         0.0972
       3    H2      20.667305   17.304164   19.988337 H          1 MOL1         0.0972
       4    H3      22.074890   18.351551   19.724882 H          1 MOL1         0.0972
       5    C2      20.279813   19.433064   20.348856 C.3        1 MOL1        -0.1383
       6    H4      20.041636   19.684080   19.305816 H          1 MOL1         0.0961
       7    H5      20.823539   20.299591   20.748021 H          1 MOL1         0.0961
       8    C3      18.951446   19.229784   21.121614 C.3        1 MOL1        -0.1407
       9    H6      18.352162   20.147278   21.042778 H          1 MOL1         0.0961
      10    H7      18.367276   18.446138   20.619789 H          1 MOL1         0.0961
      11    C4      19.102866   18.853057   22.618309 C.3        1 MOL1        -0.1407
      12    H8      19.605748   17.881583   22.703536 H          1 MOL1         0.0961
      13    H9      18.095778   18.710869   23.030638 H          1 MOL1         0.0961
      14    C5      19.859060   19.924624   23.450390 C.3        1 MOL1        -0.1472
      15    H10     20.874567   20.046965   23.054343 H          1 MOL1         0.0961
      16    H11     19.365112   20.897169   23.325338 H          1 MOL1         0.0961
      17    C6      19.973459   19.614011   24.961677 C.3        1 MOL1         0.1190
      18    H12     20.567548   20.414843   25.412835 H          1 MOL1         0.0923
      19    C7      18.601850   19.606411   25.659266 C.3        1 MOL1        -0.2463
      20    H13     18.054559   20.534756   25.453892 H          1 MOL1         0.0972
      21    H14     18.725721   19.527558   26.746279 H          1 MOL1         0.0972
      22    H15     17.983357   18.762530   25.331814 H          1 MOL1         0.0972
      23    N1      20.722475   18.337700   25.230345 N.4        1 MOL1        -0.5974
      24    H16     21.655658   18.354298   24.809412 H          1 MOL1         0.3625
      25    H17     20.842691   18.179063   26.234729 H          1 MOL1         0.3625
      26    H18     20.225884   17.528767   24.849178 H          1 MOL1         0.3625
@<TRIPOS>BOND
    1     1     2    1
    2     1     3    1
    3     1     4    1
    4     1     5    1
    5     5     6    1
    6     5     7    1
    7     5     8    1
    8     8     9    1
    9     8    10    1
   10     8    11    1
   11    11    12    1
   12    11    13    1
   13    11    14    1
   14    14    15    1
   15    14    16    1
   16    14    17    1
   17    17    18    1
   18    17    19    1
   19    19    20    1
   20    19    21    1
   21    19    22    1
   22    17    23    1
   23    23    24    1
   24    23    25    1
   25    23    26    1
@<TRIPOS>SUBSTRUCTURE
       1 MOL1            1 RESIDUE      1      MOL     
@<SCITEGIC>MOL_PROPERTY
VM2 Rank
SciTegic.value.IntegerValue
30

@<SCITEGIC>MOL_PROPERTY
Conf_Id
SciTegic.value.IntegerValue
170

@<SCITEGIC>MOL_PROPERTY
Probability
SciTegic.value.DoubleValue
0.49

@<SCITEGIC>MOL_PROPERTY
Sum Probability
SciTegic.value.DoubleValue
97.82

@<SCITEGIC>MOL_PROPERTY
Delta G
SciTegic.value.DoubleValue
2.110

@<SCITEGIC>MOL_PROPERTY
G
SciTegic.value.DoubleValue
25.820

@<SCITEGIC>MOL_PROPERTY
E
SciTegic.value.DoubleValue
-7.289

@<SCITEGIC>MOL_PROPERTY
-TS
SciTegic.value.DoubleValue
33.110

@<SCITEGIC>MOL_PROPERTY
U+W
SciTegic.value.DoubleValue
-28.751

@<SCITEGIC>MOL_PROPERTY
U
SciTegic.value.DoubleValue
25.589

@<SCITEGIC>MOL_PROPERTY
W
SciTegic.value.DoubleValue
-54.340

@<SCITEGIC>MOL_PROPERTY
W(PB)
SciTegic.value.DoubleValue
-56.600

@<SCITEGIC>MOL_PROPERTY
W(SA)
SciTegic.value.DoubleValue
2.260

@<SCITEGIC>MOL_PROPERTY
Valence
SciTegic.value.DoubleValue
4.269

@<SCITEGIC>MOL_PROPERTY
Coulomb
SciTegic.value.DoubleValue
20.216

@<SCITEGIC>MOL_PROPERTY
VdW
SciTegic.value.DoubleValue
1.104

@<SCITEGIC>MOL_PROPERTY
VdW6
SciTegic.value.DoubleValue
-9.052

@<SCITEGIC>MOL_PROPERTY
VdW12
SciTegic.value.DoubleValue
10.157

@<SCITEGIC>MOL_PROPERTY
Bond
SciTegic.value.DoubleValue
0.298

@<SCITEGIC>MOL_PROPERTY
Angle
SciTegic.value.DoubleValue
1.891

@<SCITEGIC>MOL_PROPERTY
Pdih
SciTegic.value.DoubleValue
2.079

@<SCITEGIC>MOL_PROPERTY
Idih
SciTegic.value.DoubleValue
0.000

@<SCITEGIC>MOL_PROPERTY
Tether
SciTegic.value.DoubleValue
0.000

@<TRIPOS>MOLECULE
guest-s13_vm2.mol2 : vm2 ligand conformer 31
          26          25           1
SMALL
USER_CHARGES
 
@<TRIPOS>ATOM
       1    C1      20.536925   18.209310   19.994950 C.3        1 MOL1        -0.2398
       2    H1      21.455960   17.792720   19.562912 H          1 MOL1         0.0972
       3    H2      20.002367   17.388609   20.489127 H          1 MOL1         0.0972
       4    H3      19.914250   18.577336   19.169257 H          1 MOL1         0.0972
       5    C2      20.871766   19.346055   20.986803 C.3        1 MOL1        -0.1383
       6    H4      21.498783   20.088891   20.474272 H          1 MOL1         0.0961
       7    H5      21.483728   18.951806   21.808992 H          1 MOL1         0.0961
       8    C3      19.616457   20.061779   21.546993 C.3        1 MOL1        -0.1407
       9    H6      19.938149   20.890461   22.191864 H          1 MOL1         0.0961
      10    H7      19.074167   20.529906   20.713994 H          1 MOL1         0.0961
      11    C4      18.632510   19.150818   22.329330 C.3        1 MOL1        -0.1407
      12    H8      18.187046   18.420016   21.641391 H          1 MOL1         0.0961
      13    H9      17.791551   19.761121   22.684341 H          1 MOL1         0.0961
      14    C5      19.262047   18.391954   23.528213 C.3        1 MOL1        -0.1472
      15    H10     18.475879   17.824558   24.043553 H          1 MOL1         0.0961
      16    H11     19.965390   17.643661   23.141360 H          1 MOL1         0.0961
      17    C6      19.998596   19.288632   24.550624 C.3        1 MOL1         0.1190
      18    H12     20.763852   19.860922   24.017845 H          1 MOL1         0.0923
      19    C7      19.043856   20.277674   25.242743 C.3        1 MOL1        -0.2463
      20    H13     18.229110   19.750273   25.754239 H          1 MOL1         0.0972
      21    H14     18.601746   20.974859   24.521587 H          1 MOL1         0.0972
      22    H15     19.581619   20.877272   25.987400 H          1 MOL1         0.0972
      23    N1      20.725841   18.461778   25.574346 N.4        1 MOL1        -0.5974
      24    H16     21.246586   19.051168   26.229979 H          1 MOL1         0.3625
      25    H17     20.077137   17.893062   26.124999 H          1 MOL1         0.3625
      26    H18     21.398187   17.825092   25.137272 H          1 MOL1         0.3625
@<TRIPOS>BOND
    1     1     2    1
    2     1     3    1
    3     1     4    1
    4     1     5    1
    5     5     6    1
    6     5     7    1
    7     5     8    1
    8     8     9    1
    9     8    10    1
   10     8    11    1
   11    11    12    1
   12    11    13    1
   13    11    14    1
   14    14    15    1
   15    14    16    1
   16    14    17    1
   17    17    18    1
   18    17    19    1
   19    19    20    1
   20    19    21    1
   21    19    22    1
   22    17    23    1
   23    23    24    1
   24    23    25    1
   25    23    26    1
@<TRIPOS>SUBSTRUCTURE
       1 MOL1            1 RESIDUE      1      MOL     
@<SCITEGIC>MOL_PROPERTY
VM2 Rank
SciTegic.value.IntegerValue
31

@<SCITEGIC>MOL_PROPERTY
Conf_Id
SciTegic.value.IntegerValue
218

@<SCITEGIC>MOL_PROPERTY
Probability
SciTegic.value.DoubleValue
0.40

@<SCITEGIC>MOL_PROPERTY
Sum Probability
SciTegic.value.DoubleValue
98.22

@<SCITEGIC>MOL_PROPERTY
Delta G
SciTegic.value.DoubleValue
2.235

@<SCITEGIC>MOL_PROPERTY
G
SciTegic.value.DoubleValue
25.944

@<SCITEGIC>MOL_PROPERTY
E
SciTegic.value.DoubleValue
-7.506

@<SCITEGIC>MOL_PROPERTY
-TS
SciTegic.value.DoubleValue
33.451

@<SCITEGIC>MOL_PROPERTY
U+W
SciTegic.value.DoubleValue
-28.968

@<SCITEGIC>MOL_PROPERTY
U
SciTegic.value.DoubleValue
25.506

@<SCITEGIC>MOL_PROPERTY
W
SciTegic.value.DoubleValue
-54.474

@<SCITEGIC>MOL_PROPERTY
W(PB)
SciTegic.value.DoubleValue
-56.693

@<SCITEGIC>MOL_PROPERTY
W(SA)
SciTegic.value.DoubleValue
2.218

@<SCITEGIC>MOL_PROPERTY
Valence
SciTegic.value.DoubleValue
4.414

@<SCITEGIC>MOL_PROPERTY
Coulomb
SciTegic.value.DoubleValue
20.363

@<SCITEGIC>MOL_PROPERTY
VdW
SciTegic.value.DoubleValue
0.729

@<SCITEGIC>MOL_PROPERTY
VdW6
SciTegic.value.DoubleValue
-9.839

@<SCITEGIC>MOL_PROPERTY
VdW12
SciTegic.value.DoubleValue
10.568

@<SCITEGIC>MOL_PROPERTY
Bond
SciTegic.value.DoubleValue
0.296

@<SCITEGIC>MOL_PROPERTY
Angle
SciTegic.value.DoubleValue
2.006

@<SCITEGIC>MOL_PROPERTY
Pdih
SciTegic.value.DoubleValue
2.112

@<SCITEGIC>MOL_PROPERTY
Idih
SciTegic.value.DoubleValue
0.000

@<SCITEGIC>MOL_PROPERTY
Tether
SciTegic.value.DoubleValue
0.000

@<TRIPOS>MOLECULE
guest-s13_vm2.mol2 : vm2 ligand conformer 32
          26          25           1
SMALL
USER_CHARGES
 
@<TRIPOS>ATOM
       1    C1      20.714688   17.885335   19.438136 C.3        1 MOL1        -0.2398
       2    H1      21.254773   18.101497   18.507208 H          1 MOL1         0.0972
       3    H2      21.263010   17.097100   19.970330 H          1 MOL1         0.0972
       4    H3      19.725262   17.492374   19.170059 H          1 MOL1         0.0972
       5    C2      20.590601   19.157120   20.303835 C.3        1 MOL1        -0.1383
       6    H4      20.069980   19.937668   19.731428 H          1 MOL1         0.0961
       7    H5      21.594325   19.544812   20.527843 H          1 MOL1         0.0961
       8    C3      19.831865   18.881153   21.620832 C.3        1 MOL1        -0.1407
       9    H6      18.829011   18.497277   21.387666 H          1 MOL1         0.0961
      10    H7      20.351983   18.088946   22.170153 H          1 MOL1         0.0961
      11    C4      19.705638   20.159066   22.486811 C.3        1 MOL1        -0.1407
      12    H8      19.201454   20.928189   21.885255 H          1 MOL1         0.0961
      13    H9      20.700345   20.562703   22.721703 H          1 MOL1         0.0961
      14    C5      18.892604   19.960168   23.793411 C.3        1 MOL1        -0.1472
      15    H10     18.440275   20.926711   24.052883 H          1 MOL1         0.0961
      16    H11     18.053804   19.272985   23.620408 H          1 MOL1         0.0961
      17    C6      19.730412   19.493599   25.007275 C.3        1 MOL1         0.1190
      18    H12     20.556756   20.198456   25.141287 H          1 MOL1         0.0923
      19    C7      18.872401   19.514135   26.282787 C.3        1 MOL1        -0.2463
      20    H13     19.468568   19.224482   27.156908 H          1 MOL1         0.0972
      21    H14     18.025050   18.821717   26.202285 H          1 MOL1         0.0972
      22    H15     18.475339   20.519529   26.470511 H          1 MOL1         0.0972
      23    N1      20.349791   18.137424   24.820912 N.4        1 MOL1        -0.5974
      24    H16     20.975259   18.125678   24.011288 H          1 MOL1         0.3625
      25    H17     20.901181   17.862791   25.638832 H          1 MOL1         0.3625
      26    H18     19.636262   17.418528   24.675180 H          1 MOL1         0.3625
@<TRIPOS>BOND
    1     1     2    1
    2     1     3    1
    3     1     4    1
    4     1     5    1
    5     5     6    1
    6     5     7    1
    7     5     8    1
    8     8     9    1
    9     8    10    1
   10     8    11    1
   11    11    12    1
   12    11    13    1
   13    11    14    1
   14    14    15    1
   15    14    16    1
   16    14    17    1
   17    17    18    1
   18    17    19    1
   19    19    20    1
   20    19    21    1
   21    19    22    1
   22    17    23    1
   23    23    24    1
   24    23    25    1
   25    23    26    1
@<TRIPOS>SUBSTRUCTURE
       1 MOL1            1 RESIDUE      1      MOL     
@<SCITEGIC>MOL_PROPERTY
VM2 Rank
SciTegic.value.IntegerValue
32

@<SCITEGIC>MOL_PROPERTY
Conf_Id
SciTegic.value.IntegerValue
1020

@<SCITEGIC>MOL_PROPERTY
Probability
SciTegic.value.DoubleValue
0.19

@<SCITEGIC>MOL_PROPERTY
Sum Probability
SciTegic.value.DoubleValue
98.40

@<SCITEGIC>MOL_PROPERTY
Delta G
SciTegic.value.DoubleValue
2.694

@<SCITEGIC>MOL_PROPERTY
G
SciTegic.value.DoubleValue
26.404

@<SCITEGIC>MOL_PROPERTY
E
SciTegic.value.DoubleValue
-5.958

@<SCITEGIC>MOL_PROPERTY
-TS
SciTegic.value.DoubleValue
32.362

@<SCITEGIC>MOL_PROPERTY
U+W
SciTegic.value.DoubleValue
-27.420

@<SCITEGIC>MOL_PROPERTY
U
SciTegic.value.DoubleValue
26.493

@<SCITEGIC>MOL_PROPERTY
W
SciTegic.value.DoubleValue
-53.913

@<SCITEGIC>MOL_PROPERTY
W(PB)
SciTegic.value.DoubleValue
-56.220

@<SCITEGIC>MOL_PROPERTY
W(SA)
SciTegic.value.DoubleValue
2.307

@<SCITEGIC>MOL_PROPERTY
Valence
SciTegic.value.DoubleValue
4.730

@<SCITEGIC>MOL_PROPERTY
Coulomb
SciTegic.value.DoubleValue
20.826

@<SCITEGIC>MOL_PROPERTY
VdW
SciTegic.value.DoubleValue
0.936

@<SCITEGIC>MOL_PROPERTY
VdW6
SciTegic.value.DoubleValue
-7.662

@<SCITEGIC>MOL_PROPERTY
VdW12
SciTegic.value.DoubleValue
8.598

@<SCITEGIC>MOL_PROPERTY
Bond
SciTegic.value.DoubleValue
0.241

@<SCITEGIC>MOL_PROPERTY
Angle
SciTegic.value.DoubleValue
1.433

@<SCITEGIC>MOL_PROPERTY
Pdih
SciTegic.value.DoubleValue
3.056

@<SCITEGIC>MOL_PROPERTY
Idih
SciTegic.value.DoubleValue
0.000

@<SCITEGIC>MOL_PROPERTY
Tether
SciTegic.value.DoubleValue
0.000

@<TRIPOS>MOLECULE
guest-s13_vm2.mol2 : vm2 ligand conformer 33
          26          25           1
SMALL
USER_CHARGES
 
@<TRIPOS>ATOM
       1    C1      21.360905   19.248448   19.928418 C.3        1 MOL1        -0.2398
       2    H1      22.221970   18.915958   20.522503 H          1 MOL1         0.0972
       3    H2      21.641601   19.189252   18.868874 H          1 MOL1         0.0972
       4    H3      21.169563   20.303531   20.160101 H          1 MOL1         0.0972
       5    C2      20.119549   18.371324   20.208506 C.3        1 MOL1        -0.1383
       6    H4      20.319616   17.350546   19.853779 H          1 MOL1         0.0961
       7    H5      19.266843   18.738868   19.620644 H          1 MOL1         0.0961
       8    C3      19.736991   18.311092   21.706900 C.3        1 MOL1        -0.1407
       9    H6      18.918789   17.587535   21.826171 H          1 MOL1         0.0961
      10    H7      20.587200   17.912125   22.270491 H          1 MOL1         0.0961
      11    C4      19.288498   19.681659   22.277830 C.3        1 MOL1        -0.1407
      12    H8      18.513448   20.088796   21.613848 H          1 MOL1         0.0961
      13    H9      20.117290   20.401591   22.254921 H          1 MOL1         0.0961
      14    C5      18.701029   19.611814   23.712531 C.3        1 MOL1        -0.1472
      15    H10     18.032686   20.474376   23.836697 H          1 MOL1         0.0961
      16    H11     18.066237   18.722749   23.822934 H          1 MOL1         0.0961
      17    C6      19.753090   19.666188   24.845429 C.3        1 MOL1         0.1190
      18    H12     20.383523   20.545933   24.683534 H          1 MOL1         0.0923
      19    C7      19.056876   19.820504   26.207504 C.3        1 MOL1        -0.2463
      20    H13     18.441623   20.728582   26.231410 H          1 MOL1         0.0972
      21    H14     19.795425   19.899241   27.014814 H          1 MOL1         0.0972
      22    H15     18.407524   18.962137   26.420781 H          1 MOL1         0.0972
      23    N1      20.671061   18.476971   24.866883 N.4        1 MOL1        -0.5974
      24    H16     21.352299   18.544555   25.628286 H          1 MOL1         0.3625
      25    H17     20.149946   17.605866   24.996375 H          1 MOL1         0.3625
      26    H18     21.195665   18.400225   23.992168 H          1 MOL1         0.3625
@<TRIPOS>BOND
    1     1     2    1
    2     1     3    1
    3     1     4    1
    4     1     5    1
    5     5     6    1
    6     5     7    1
    7     5     8    1
    8     8     9    1
    9     8    10    1
   10     8    11    1
   11    11    12    1
   12    11    13    1
   13    11    14    1
   14    14    15    1
   15    14    16    1
   16    14    17    1
   17    17    18    1
   18    17    19    1
   19    19    20    1
   20    19    21    1
   21    19    22    1
   22    17    23    1
   23    23    24    1
   24    23    25    1
   25    23    26    1
@<TRIPOS>SUBSTRUCTURE
       1 MOL1            1 RESIDUE      1      MOL     
@<SCITEGIC>MOL_PROPERTY
VM2 Rank
SciTegic.value.IntegerValue
33

@<SCITEGIC>MOL_PROPERTY
Conf_Id
SciTegic.value.IntegerValue
248

@<SCITEGIC>MOL_PROPERTY
Probability
SciTegic.value.DoubleValue
0.12

@<SCITEGIC>MOL_PROPERTY
Sum Probability
SciTegic.value.DoubleValue
98.52

@<SCITEGIC>MOL_PROPERTY
Delta G
SciTegic.value.DoubleValue
2.968

@<SCITEGIC>MOL_PROPERTY
G
SciTegic.value.DoubleValue
26.678

@<SCITEGIC>MOL_PROPERTY
E
SciTegic.value.DoubleValue
-5.396

@<SCITEGIC>MOL_PROPERTY
-TS
SciTegic.value.DoubleValue
32.074

@<SCITEGIC>MOL_PROPERTY
U+W
SciTegic.value.DoubleValue
-26.858

@<SCITEGIC>MOL_PROPERTY
U
SciTegic.value.DoubleValue
27.054

@<SCITEGIC>MOL_PROPERTY
W
SciTegic.value.DoubleValue
-53.912

@<SCITEGIC>MOL_PROPERTY
W(PB)
SciTegic.value.DoubleValue
-56.203

@<SCITEGIC>MOL_PROPERTY
W(SA)
SciTegic.value.DoubleValue
2.291

@<SCITEGIC>MOL_PROPERTY
Valence
SciTegic.value.DoubleValue
5.136

@<SCITEGIC>MOL_PROPERTY
Coulomb
SciTegic.value.DoubleValue
20.887

@<SCITEGIC>MOL_PROPERTY
VdW
SciTegic.value.DoubleValue
1.030

@<SCITEGIC>MOL_PROPERTY
VdW6
SciTegic.value.DoubleValue
-8.326

@<SCITEGIC>MOL_PROPERTY
VdW12
SciTegic.value.DoubleValue
9.357

@<SCITEGIC>MOL_PROPERTY
Bond
SciTegic.value.DoubleValue
0.283

@<SCITEGIC>MOL_PROPERTY
Angle
SciTegic.value.DoubleValue
1.712

@<SCITEGIC>MOL_PROPERTY
Pdih
SciTegic.value.DoubleValue
3.141

@<SCITEGIC>MOL_PROPERTY
Idih
SciTegic.value.DoubleValue
0.000

@<SCITEGIC>MOL_PROPERTY
Tether
SciTegic.value.DoubleValue
0.000

@<TRIPOS>MOLECULE
guest-s13_vm2.mol2 : vm2 ligand conformer 34
          26          25           1
SMALL
USER_CHARGES
 
@<TRIPOS>ATOM
       1    C1      21.153061   18.070541   19.580579 C.3        1 MOL1        -0.2398
       2    H1      20.652119   17.095112   19.633946 H          1 MOL1         0.0972
       3    H2      21.334598   18.298398   18.522194 H          1 MOL1         0.0972
       4    H3      22.127782   17.982268   20.077904 H          1 MOL1         0.0972
       5    C2      20.293164   19.172505   20.235200 C.3        1 MOL1        -0.1383
       6    H4      19.341238   19.260919   19.693010 H          1 MOL1         0.0961
       7    H5      20.804637   20.140456   20.137771 H          1 MOL1         0.0961
       8    C3      20.020172   18.874570   21.726183 C.3        1 MOL1        -0.1407
       9    H6      19.501274   17.910064   21.815391 H          1 MOL1         0.0961
      10    H7      20.982506   18.781750   22.244021 H          1 MOL1         0.0961
      11    C4      19.172037   19.987568   22.386626 C.3        1 MOL1        -0.1407
      12    H8      18.298517   20.189158   21.751165 H          1 MOL1         0.0961
      13    H9      19.750432   20.921501   22.413466 H          1 MOL1         0.0961
      14    C5      18.657443   19.657311   23.812683 C.3        1 MOL1        -0.1472
      15    H10     17.987632   20.475209   24.110216 H          1 MOL1         0.0961
      16    H11     18.034033   18.753699   23.790713 H          1 MOL1         0.0961
      17    C6      19.762947   19.509942   24.885176 C.3        1 MOL1         0.1190
      18    H12     20.527353   20.270861   24.700004 H          1 MOL1         0.0923
      19    C7      19.181253   19.744339   26.289256 C.3        1 MOL1        -0.2463
      20    H13     18.749538   20.749688   26.370906 H          1 MOL1         0.0972
      21    H14     19.963395   19.657562   27.053575 H          1 MOL1         0.0972
      22    H15     18.394945   19.014600   26.519926 H          1 MOL1         0.0972
      23    N1      20.447924   18.171224   24.838297 N.4        1 MOL1        -0.5974
      24    H16     20.854591   17.990357   23.917896 H          1 MOL1         0.3625
      25    H17     21.203696   18.113794   25.526833 H          1 MOL1         0.3625
      26    H18     19.792650   17.411466   25.040114 H          1 MOL1         0.3625
@<TRIPOS>BOND
    1     1     2    1
    2     1     3    1
    3     1     4    1
    4     1     5    1
    5     5     6    1
    6     5     7    1
    7     5     8    1
    8     8     9    1
    9     8    10    1
   10     8    11    1
   11    11    12    1
   12    11    13    1
   13    11    14    1
   14    14    15    1
   15    14    16    1
   16    14    17    1
   17    17    18    1
   18    17    19    1
   19    19    20    1
   20    19    21    1
   21    19    22    1
   22    17    23    1
   23    23    24    1
   24    23    25    1
   25    23    26    1
@<TRIPOS>SUBSTRUCTURE
       1 MOL1            1 RESIDUE      1      MOL     
@<SCITEGIC>MOL_PROPERTY
VM2 Rank
SciTegic.value.IntegerValue
34

@<SCITEGIC>MOL_PROPERTY
Conf_Id
SciTegic.value.IntegerValue
807

@<SCITEGIC>MOL_PROPERTY
Probability
SciTegic.value.DoubleValue
0.11

@<SCITEGIC>MOL_PROPERTY
Sum Probability
SciTegic.value.DoubleValue
98.63

@<SCITEGIC>MOL_PROPERTY
Delta G
SciTegic.value.DoubleValue
3.003

@<SCITEGIC>MOL_PROPERTY
G
SciTegic.value.DoubleValue
26.713

@<SCITEGIC>MOL_PROPERTY
E
SciTegic.value.DoubleValue
-5.843

@<SCITEGIC>MOL_PROPERTY
-TS
SciTegic.value.DoubleValue
32.556

@<SCITEGIC>MOL_PROPERTY
U+W
SciTegic.value.DoubleValue
-27.304

@<SCITEGIC>MOL_PROPERTY
U
SciTegic.value.DoubleValue
26.574

@<SCITEGIC>MOL_PROPERTY
W
SciTegic.value.DoubleValue
-53.878

@<SCITEGIC>MOL_PROPERTY
W(PB)
SciTegic.value.DoubleValue
-56.194

@<SCITEGIC>MOL_PROPERTY
W(SA)
SciTegic.value.DoubleValue
2.316

@<SCITEGIC>MOL_PROPERTY
Valence
SciTegic.value.DoubleValue
4.532

@<SCITEGIC>MOL_PROPERTY
Coulomb
SciTegic.value.DoubleValue
21.136

@<SCITEGIC>MOL_PROPERTY
VdW
SciTegic.value.DoubleValue
0.906

@<SCITEGIC>MOL_PROPERTY
VdW6
SciTegic.value.DoubleValue
-7.877

@<SCITEGIC>MOL_PROPERTY
VdW12
SciTegic.value.DoubleValue
8.783

@<SCITEGIC>MOL_PROPERTY
Bond
SciTegic.value.DoubleValue
0.227

@<SCITEGIC>MOL_PROPERTY
Angle
SciTegic.value.DoubleValue
1.591

@<SCITEGIC>MOL_PROPERTY
Pdih
SciTegic.value.DoubleValue
2.714

@<SCITEGIC>MOL_PROPERTY
Idih
SciTegic.value.DoubleValue
0.000

@<SCITEGIC>MOL_PROPERTY
Tether
SciTegic.value.DoubleValue
0.000

@<TRIPOS>MOLECULE
guest-s13_vm2.mol2 : vm2 ligand conformer 35
          26          25           1
SMALL
USER_CHARGES
 
@<TRIPOS>ATOM
       1    C1      19.866851   19.804931   19.235614 C.3        1 MOL1        -0.2398
       2    H1      20.335046   19.639682   18.256567 H          1 MOL1         0.0972
       3    H2      18.784186   19.665207   19.119210 H          1 MOL1         0.0972
       4    H3      20.047963   20.848670   19.523769 H          1 MOL1         0.0972
       5    C2      20.442139   18.831291   20.285966 C.3        1 MOL1        -0.1383
       6    H4      21.529966   18.971568   20.356061 H          1 MOL1         0.0961
       7    H5      20.276613   17.797083   19.952894 H          1 MOL1         0.0961
       8    C3      19.798495   19.042522   21.674196 C.3        1 MOL1        -0.1407
       9    H6      19.965736   20.080773   21.989661 H          1 MOL1         0.0961
      10    H7      18.712012   18.897173   21.598858 H          1 MOL1         0.0961
      11    C4      20.379616   18.073348   22.730191 C.3        1 MOL1        -0.1407
      12    H8      21.454006   18.268409   22.853425 H          1 MOL1         0.0961
      13    H9      20.295665   17.043656   22.355898 H          1 MOL1         0.0961
      14    C5      19.682910   18.148807   24.112745 C.3        1 MOL1        -0.1472
      15    H10     18.625025   17.869464   24.018038 H          1 MOL1         0.0961
      16    H11     20.135834   17.377466   24.749642 H          1 MOL1         0.0961
      17    C6      19.818924   19.525248   24.808386 C.3        1 MOL1         0.1190
      18    H12     20.661050   20.056000   24.353699 H          1 MOL1         0.0923
      19    C7      18.547342   20.376761   24.638230 C.3        1 MOL1        -0.2463
      20    H13     18.297612   20.522148   23.581579 H          1 MOL1         0.0972
      21    H14     18.684671   21.369101   25.085076 H          1 MOL1         0.0972
      22    H15     17.686374   19.902229   25.125455 H          1 MOL1         0.0972
      23    N1      20.151723   19.385092   26.268672 N.4        1 MOL1        -0.5974
      24    H16     21.021363   18.862614   26.408485 H          1 MOL1         0.3625
      25    H17     20.271310   20.299133   26.714498 H          1 MOL1         0.3625
      26    H18     19.411505   18.892701   26.775916 H          1 MOL1         0.3625
@<TRIPOS>BOND
    1     1     2    1
    2     1     3    1
    3     1     4    1
    4     1     5    1
    5     5     6    1
    6     5     7    1
    7     5     8    1
    8     8     9    1
    9     8    10    1
   10     8    11    1
   11    11    12    1
   12    11    13    1
   13    11    14    1
   14    14    15    1
   15    14    16    1
   16    14    17    1
   17    17    18    1
   18    17    19    1
   19    19    20    1
   20    19    21    1
   21    19    22    1
   22    17    23    1
   23    23    24    1
   24    23    25    1
   25    23    26    1
@<TRIPOS>SUBSTRUCTURE
       1 MOL1            1 RESIDUE      1      MOL     
@<SCITEGIC>MOL_PROPERTY
VM2 Rank
SciTegic.value.IntegerValue
35

@<SCITEGIC>MOL_PROPERTY
Conf_Id
SciTegic.value.IntegerValue
188

@<SCITEGIC>MOL_PROPERTY
Probability
SciTegic.value.DoubleValue
0.08

@<SCITEGIC>MOL_PROPERTY
Sum Probability
SciTegic.value.DoubleValue
98.71

@<SCITEGIC>MOL_PROPERTY
Delta G
SciTegic.value.DoubleValue
3.209

@<SCITEGIC>MOL_PROPERTY
G
SciTegic.value.DoubleValue
26.919

@<SCITEGIC>MOL_PROPERTY
E
SciTegic.value.DoubleValue
-5.788

@<SCITEGIC>MOL_PROPERTY
-TS
SciTegic.value.DoubleValue
32.706

@<SCITEGIC>MOL_PROPERTY
U+W
SciTegic.value.DoubleValue
-27.249

@<SCITEGIC>MOL_PROPERTY
U
SciTegic.value.DoubleValue
26.735

@<SCITEGIC>MOL_PROPERTY
W
SciTegic.value.DoubleValue
-53.984

@<SCITEGIC>MOL_PROPERTY
W(PB)
SciTegic.value.DoubleValue
-56.284

@<SCITEGIC>MOL_PROPERTY
W(SA)
SciTegic.value.DoubleValue
2.300

@<SCITEGIC>MOL_PROPERTY
Valence
SciTegic.value.DoubleValue
5.861

@<SCITEGIC>MOL_PROPERTY
Coulomb
SciTegic.value.DoubleValue
19.879

@<SCITEGIC>MOL_PROPERTY
VdW
SciTegic.value.DoubleValue
0.994

@<SCITEGIC>MOL_PROPERTY
VdW6
SciTegic.value.DoubleValue
-7.880

@<SCITEGIC>MOL_PROPERTY
VdW12
SciTegic.value.DoubleValue
8.874

@<SCITEGIC>MOL_PROPERTY
Bond
SciTegic.value.DoubleValue
0.209

@<SCITEGIC>MOL_PROPERTY
Angle
SciTegic.value.DoubleValue
1.378

@<SCITEGIC>MOL_PROPERTY
Pdih
SciTegic.value.DoubleValue
4.275

@<SCITEGIC>MOL_PROPERTY
Idih
SciTegic.value.DoubleValue
0.000

@<SCITEGIC>MOL_PROPERTY
Tether
SciTegic.value.DoubleValue
0.000

@<TRIPOS>MOLECULE
guest-s13_vm2.mol2 : vm2 ligand conformer 36
          26          25           1
SMALL
USER_CHARGES
 
@<TRIPOS>ATOM
       1    C1      20.741549   19.788969   19.693127 C.3        1 MOL1        -0.2398
       2    H1      21.407550   20.657162   19.605265 H          1 MOL1         0.0972
       3    H2      21.215223   18.947532   19.170783 H          1 MOL1         0.0972
       4    H3      19.804139   20.029361   19.174721 H          1 MOL1         0.0972
       5    C2      20.483335   19.448261   21.176167 C.3        1 MOL1        -0.1383
       6    H4      20.047177   20.328365   21.665964 H          1 MOL1         0.0961
       7    H5      21.440348   19.237012   21.673180 H          1 MOL1         0.0961
       8    C3      19.533299   18.237840   21.325296 C.3        1 MOL1        -0.1407
       9    H6      18.540596   18.504492   20.937086 H          1 MOL1         0.0961
      10    H7      19.898155   17.419295   20.689441 H          1 MOL1         0.0961
      11    C4      19.394624   17.697201   22.772198 C.3        1 MOL1        -0.1407
      12    H8      20.362259   17.317372   23.124068 H          1 MOL1         0.0961
      13    H9      18.734399   16.819787   22.731675 H          1 MOL1         0.0961
      14    C5      18.790329   18.701032   23.791712 C.3        1 MOL1        -0.1472
      15    H10     17.997177   19.279284   23.299351 H          1 MOL1         0.0961
      16    H11     18.296092   18.134882   24.592435 H          1 MOL1         0.0961
      17    C6      19.815344   19.661273   24.439263 C.3        1 MOL1         0.1190
      18    H12     20.365605   20.178310   23.650245 H          1 MOL1         0.0923
      19    C7      19.091321   20.719230   25.287021 C.3        1 MOL1        -0.2463
      20    H13     18.525079   20.254484   26.103909 H          1 MOL1         0.0972
      21    H14     18.391144   21.298625   24.672372 H          1 MOL1         0.0972
      22    H15     19.809093   21.423185   25.725918 H          1 MOL1         0.0972
      23    N1      20.838199   18.934194   25.269217 N.4        1 MOL1        -0.5974
      24    H16     21.360481   18.254776   24.710008 H          1 MOL1         0.3625
      25    H17     21.517945   19.581864   25.677688 H          1 MOL1         0.3625
      26    H18     20.398992   18.425266   26.040840 H          1 MOL1         0.3625
@<TRIPOS>BOND
    1     1     2    1
    2     1     3    1
    3     1     4    1
    4     1     5    1
    5     5     6    1
    6     5     7    1
    7     5     8    1
    8     8     9    1
    9     8    10    1
   10     8    11    1
   11    11    12    1
   12    11    13    1
   13    11    14    1
   14    14    15    1
   15    14    16    1
   16    14    17    1
   17    17    18    1
   18    17    19    1
   19    19    20    1
   20    19    21    1
   21    19    22    1
   22    17    23    1
   23    23    24    1
   24    23    25    1
   25    23    26    1
@<TRIPOS>SUBSTRUCTURE
       1 MOL1            1 RESIDUE      1      MOL     
@<SCITEGIC>MOL_PROPERTY
VM2 Rank
SciTegic.value.IntegerValue
36

@<SCITEGIC>MOL_PROPERTY
Conf_Id
SciTegic.value.IntegerValue
1219

@<SCITEGIC>MOL_PROPERTY
Probability
SciTegic.value.DoubleValue
0.07

@<SCITEGIC>MOL_PROPERTY
Sum Probability
SciTegic.value.DoubleValue
98.78

@<SCITEGIC>MOL_PROPERTY
Delta G
SciTegic.value.DoubleValue
3.252

@<SCITEGIC>MOL_PROPERTY
G
SciTegic.value.DoubleValue
26.962

@<SCITEGIC>MOL_PROPERTY
E
SciTegic.value.DoubleValue
-5.911

@<SCITEGIC>MOL_PROPERTY
-TS
SciTegic.value.DoubleValue
32.873

@<SCITEGIC>MOL_PROPERTY
U+W
SciTegic.value.DoubleValue
-27.373

@<SCITEGIC>MOL_PROPERTY
U
SciTegic.value.DoubleValue
26.753

@<SCITEGIC>MOL_PROPERTY
W
SciTegic.value.DoubleValue
-54.126

@<SCITEGIC>MOL_PROPERTY
W(PB)
SciTegic.value.DoubleValue
-56.392

@<SCITEGIC>MOL_PROPERTY
W(SA)
SciTegic.value.DoubleValue
2.267

@<SCITEGIC>MOL_PROPERTY
Valence
SciTegic.value.DoubleValue
5.252

@<SCITEGIC>MOL_PROPERTY
Coulomb
SciTegic.value.DoubleValue
20.764

@<SCITEGIC>MOL_PROPERTY
VdW
SciTegic.value.DoubleValue
0.737

@<SCITEGIC>MOL_PROPERTY
VdW6
SciTegic.value.DoubleValue
-8.684

@<SCITEGIC>MOL_PROPERTY
VdW12
SciTegic.value.DoubleValue
9.421

@<SCITEGIC>MOL_PROPERTY
Bond
SciTegic.value.DoubleValue
0.256

@<SCITEGIC>MOL_PROPERTY
Angle
SciTegic.value.DoubleValue
1.803

@<SCITEGIC>MOL_PROPERTY
Pdih
SciTegic.value.DoubleValue
3.193

@<SCITEGIC>MOL_PROPERTY
Idih
SciTegic.value.DoubleValue
0.000

@<SCITEGIC>MOL_PROPERTY
Tether
SciTegic.value.DoubleValue
0.000

@<TRIPOS>MOLECULE
guest-s13_vm2.mol2 : vm2 ligand conformer 37
          26          25           1
SMALL
USER_CHARGES
 
@<TRIPOS>ATOM
       1    C1      20.316307   17.794014   19.662807 C.3        1 MOL1        -0.2398
       2    H1      20.096608   17.861368   18.589385 H          1 MOL1         0.0972
       3    H2      21.392032   17.605822   19.775237 H          1 MOL1         0.0972
       4    H3      19.773696   16.928016   20.063812 H          1 MOL1         0.0972
       5    C2      19.901725   19.092909   20.386116 C.3        1 MOL1        -0.1383
       6    H4      18.828665   19.271324   20.228979 H          1 MOL1         0.0961
       7    H5      20.433599   19.944172   19.938470 H          1 MOL1         0.0961
       8    C3      20.203101   19.025449   21.899575 C.3        1 MOL1        -0.1407
       9    H6      19.671499   18.165047   22.323363 H          1 MOL1         0.0961
      10    H7      21.278207   18.855443   22.049783 H          1 MOL1         0.0961
      11    C4      19.773455   20.321243   22.627782 C.3        1 MOL1        -0.1407
      12    H8      18.683608   20.438947   22.560809 H          1 MOL1         0.0961
      13    H9      20.197643   21.181490   22.091754 H          1 MOL1         0.0961
      14    C5      20.230370   20.416001   24.111014 C.3        1 MOL1        -0.1472
      15    H10     21.327415   20.422825   24.152653 H          1 MOL1         0.0961
      16    H11     19.919253   21.397075   24.493430 H          1 MOL1         0.0961
      17    C6      19.696750   19.341967   25.093271 C.3        1 MOL1         0.1190
      18    H12     19.934396   19.692404   26.102475 H          1 MOL1         0.0923
      19    C7      18.168852   19.178728   25.013378 C.3        1 MOL1        -0.2463
      20    H13     17.857548   18.740602   24.057594 H          1 MOL1         0.0972
      21    H14     17.668101   20.148166   25.127263 H          1 MOL1         0.0972
      22    H15     17.810189   18.522588   25.815823 H          1 MOL1         0.0972
      23    N1      20.397440   18.017689   24.960057 N.4        1 MOL1        -0.5974
      24    H16     20.065256   17.347635   25.659516 H          1 MOL1         0.3625
      25    H17     20.241135   17.604792   24.038460 H          1 MOL1         0.3625
      26    H18     21.408793   18.114883   25.087410 H          1 MOL1         0.3625
@<TRIPOS>BOND
    1     1     2    1
    2     1     3    1
    3     1     4    1
    4     1     5    1
    5     5     6    1
    6     5     7    1
    7     5     8    1
    8     8     9    1
    9     8    10    1
   10     8    11    1
   11    11    12    1
   12    11    13    1
   13    11    14    1
   14    14    15    1
   15    14    16    1
   16    14    17    1
   17    17    18    1
   18    17    19    1
   19    19    20    1
   20    19    21    1
   21    19    22    1
   22    17    23    1
   23    23    24    1
   24    23    25    1
   25    23    26    1
@<TRIPOS>SUBSTRUCTURE
       1 MOL1            1 RESIDUE      1      MOL     
@<SCITEGIC>MOL_PROPERTY
VM2 Rank
SciTegic.value.IntegerValue
37

@<SCITEGIC>MOL_PROPERTY
Conf_Id
SciTegic.value.IntegerValue
238

@<SCITEGIC>MOL_PROPERTY
Probability
SciTegic.value.DoubleValue
0.07

@<SCITEGIC>MOL_PROPERTY
Sum Probability
SciTegic.value.DoubleValue
98.85

@<SCITEGIC>MOL_PROPERTY
Delta G
SciTegic.value.DoubleValue
3.303

@<SCITEGIC>MOL_PROPERTY
G
SciTegic.value.DoubleValue
27.013

@<SCITEGIC>MOL_PROPERTY
E
SciTegic.value.DoubleValue
-6.121

@<SCITEGIC>MOL_PROPERTY
-TS
SciTegic.value.DoubleValue
33.134

@<SCITEGIC>MOL_PROPERTY
U+W
SciTegic.value.DoubleValue
-27.583

@<SCITEGIC>MOL_PROPERTY
U
SciTegic.value.DoubleValue
26.681

@<SCITEGIC>MOL_PROPERTY
W
SciTegic.value.DoubleValue
-54.264

@<SCITEGIC>MOL_PROPERTY
W(PB)
SciTegic.value.DoubleValue
-56.533

@<SCITEGIC>MOL_PROPERTY
W(SA)
SciTegic.value.DoubleValue
2.269

@<SCITEGIC>MOL_PROPERTY
Valence
SciTegic.value.DoubleValue
4.633

@<SCITEGIC>MOL_PROPERTY
Coulomb
SciTegic.value.DoubleValue
21.285

@<SCITEGIC>MOL_PROPERTY
VdW
SciTegic.value.DoubleValue
0.763

@<SCITEGIC>MOL_PROPERTY
VdW6
SciTegic.value.DoubleValue
-8.907

@<SCITEGIC>MOL_PROPERTY
VdW12
SciTegic.value.DoubleValue
9.670

@<SCITEGIC>MOL_PROPERTY
Bond
SciTegic.value.DoubleValue
0.277

@<SCITEGIC>MOL_PROPERTY
Angle
SciTegic.value.DoubleValue
2.161

@<SCITEGIC>MOL_PROPERTY
Pdih
SciTegic.value.DoubleValue
2.195

@<SCITEGIC>MOL_PROPERTY
Idih
SciTegic.value.DoubleValue
0.000

@<SCITEGIC>MOL_PROPERTY
Tether
SciTegic.value.DoubleValue
0.000

@<TRIPOS>MOLECULE
guest-s13_vm2.mol2 : vm2 ligand conformer 38
          26          25           1
SMALL
USER_CHARGES
 
@<TRIPOS>ATOM
       1    C1      19.369955   18.954791   19.119767 C.3        1 MOL1        -0.2398
       2    H1      19.674288   19.406283   18.166575 H          1 MOL1         0.0972
       3    H2      19.360927   17.864858   18.988628 H          1 MOL1         0.0972
       4    H3      18.344360   19.281837   19.335229 H          1 MOL1         0.0972
       5    C2      20.334019   19.369462   20.251487 C.3        1 MOL1        -0.1383
       6    H4      20.346583   20.465175   20.336050 H          1 MOL1         0.0961
       7    H5      21.355999   19.059801   19.991502 H          1 MOL1         0.0961
       8    C3      19.928285   18.746739   21.605602 C.3        1 MOL1        -0.1407
       9    H6      18.902794   19.049203   21.849269 H          1 MOL1         0.0961
      10    H7      19.917198   17.651892   21.513169 H          1 MOL1         0.0961
      11    C4      20.899705   19.155968   22.740083 C.3        1 MOL1        -0.1407
      12    H8      20.976523   20.250195   22.805149 H          1 MOL1         0.0961
      13    H9      21.904166   18.797793   22.474837 H          1 MOL1         0.0961
      14    C5      20.516935   18.565431   24.123255 C.3        1 MOL1        -0.1472
      15    H10     19.966031   17.624006   23.996691 H          1 MOL1         0.0961
      16    H11     21.447231   18.299250   24.642329 H          1 MOL1         0.0961
      17    C6      19.728769   19.526339   25.045978 C.3        1 MOL1         0.1190
      18    H12     20.329556   20.429900   25.188382 H          1 MOL1         0.0923
      19    C7      18.370767   19.942447   24.455907 C.3        1 MOL1        -0.2463
      20    H13     17.760936   19.065990   24.203954 H          1 MOL1         0.0972
      21    H14     18.503825   20.547483   23.551686 H          1 MOL1         0.0972
      22    H15     17.808604   20.554012   25.172308 H          1 MOL1         0.0972
      23    N1      19.539566   18.926823   26.411921 N.4        1 MOL1        -0.5974
      24    H16     20.435258   18.686110   26.845983 H          1 MOL1         0.3625
      25    H17     19.061095   19.576303   27.042517 H          1 MOL1         0.3625
      26    H18     18.978162   18.072063   26.371008 H          1 MOL1         0.3625
@<TRIPOS>BOND
    1     1     2    1
    2     1     3    1
    3     1     4    1
    4     1     5    1
    5     5     6    1
    6     5     7    1
    7     5     8    1
    8     8     9    1
    9     8    10    1
   10     8    11    1
   11    11    12    1
   12    11    13    1
   13    11    14    1
   14    14    15    1
   15    14    16    1
   16    14    17    1
   17    17    18    1
   18    17    19    1
   19    19    20    1
   20    19    21    1
   21    19    22    1
   22    17    23    1
   23    23    24    1
   24    23    25    1
   25    23    26    1
@<TRIPOS>SUBSTRUCTURE
       1 MOL1            1 RESIDUE      1      MOL     
@<SCITEGIC>MOL_PROPERTY
VM2 Rank
SciTegic.value.IntegerValue
38

@<SCITEGIC>MOL_PROPERTY
Conf_Id
SciTegic.value.IntegerValue
172

@<SCITEGIC>MOL_PROPERTY
Probability
SciTegic.value.DoubleValue
0.06

@<SCITEGIC>MOL_PROPERTY
Sum Probability
SciTegic.value.DoubleValue
98.91

@<SCITEGIC>MOL_PROPERTY
Delta G
SciTegic.value.DoubleValue
3.325

@<SCITEGIC>MOL_PROPERTY
G
SciTegic.value.DoubleValue
27.035

@<SCITEGIC>MOL_PROPERTY
E
SciTegic.value.DoubleValue
-5.808

@<SCITEGIC>MOL_PROPERTY
-TS
SciTegic.value.DoubleValue
32.843

@<SCITEGIC>MOL_PROPERTY
U+W
SciTegic.value.DoubleValue
-27.270

@<SCITEGIC>MOL_PROPERTY
U
SciTegic.value.DoubleValue
26.589

@<SCITEGIC>MOL_PROPERTY
W
SciTegic.value.DoubleValue
-53.859

@<SCITEGIC>MOL_PROPERTY
W(PB)
SciTegic.value.DoubleValue
-56.174

@<SCITEGIC>MOL_PROPERTY
W(SA)
SciTegic.value.DoubleValue
2.315

@<SCITEGIC>MOL_PROPERTY
Valence
SciTegic.value.DoubleValue
5.830

@<SCITEGIC>MOL_PROPERTY
Coulomb
SciTegic.value.DoubleValue
19.752

@<SCITEGIC>MOL_PROPERTY
VdW
SciTegic.value.DoubleValue
1.008

@<SCITEGIC>MOL_PROPERTY
VdW6
SciTegic.value.DoubleValue
-7.925

@<SCITEGIC>MOL_PROPERTY
VdW12
SciTegic.value.DoubleValue
8.933

@<SCITEGIC>MOL_PROPERTY
Bond
SciTegic.value.DoubleValue
0.235

@<SCITEGIC>MOL_PROPERTY
Angle
SciTegic.value.DoubleValue
1.652

@<SCITEGIC>MOL_PROPERTY
Pdih
SciTegic.value.DoubleValue
3.942

@<SCITEGIC>MOL_PROPERTY
Idih
SciTegic.value.DoubleValue
0.000

@<SCITEGIC>MOL_PROPERTY
Tether
SciTegic.value.DoubleValue
0.000

@<TRIPOS>MOLECULE
guest-s13_vm2.mol2 : vm2 ligand conformer 39
          26          25           1
SMALL
USER_CHARGES
 
@<TRIPOS>ATOM
       1    C1      19.527941   18.452316   19.249279 C.3        1 MOL1        -0.2398
       2    H1      18.562971   17.997577   19.508645 H          1 MOL1         0.0972
       3    H2      19.335229   19.450375   18.834585 H          1 MOL1         0.0972
       4    H3      19.986536   17.842407   18.460143 H          1 MOL1         0.0972
       5    C2      20.452738   18.532984   20.482331 C.3        1 MOL1        -0.1383
       6    H4      21.420947   18.959284   20.184415 H          1 MOL1         0.0961
       7    H5      20.653844   17.518354   20.853754 H          1 MOL1         0.0961
       8    C3      19.830627   19.386970   21.609222 C.3        1 MOL1        -0.1407
       9    H6      19.631746   20.398932   21.230192 H          1 MOL1         0.0961
      10    H7      18.859666   18.961282   21.888409 H          1 MOL1         0.0961
      11    C4      20.761158   19.473971   22.843950 C.3        1 MOL1        -0.1407
      12    H8      21.709547   19.926517   22.522671 H          1 MOL1         0.0961
      13    H9      21.014315   18.466985   23.199918 H          1 MOL1         0.0961
      14    C5      20.179000   20.334144   24.000450 C.3        1 MOL1        -0.1472
      15    H10     21.007588   20.870815   24.481028 H          1 MOL1         0.0961
      16    H11     19.526818   21.117367   23.592094 H          1 MOL1         0.0961
      17    C6      19.422199   19.561857   25.109711 C.3        1 MOL1         0.1190
      18    H12     19.070073   20.303514   25.833417 H          1 MOL1         0.0923
      19    C7      18.188945   18.810851   24.582377 C.3        1 MOL1        -0.2463
      20    H13     17.598148   18.412338   25.416188 H          1 MOL1         0.0972
      21    H14     18.475151   17.966927   23.943605 H          1 MOL1         0.0972
      22    H15     17.539973   19.481693   24.006008 H          1 MOL1         0.0972
      23    N1      20.325392   18.634908   25.876681 N.4        1 MOL1        -0.5974
      24    H16     19.827630   18.181418   26.648023 H          1 MOL1         0.3625
      25    H17     20.698277   17.896004   25.275831 H          1 MOL1         0.3625
      26    H18     21.122344   19.135456   26.280128 H          1 MOL1         0.3625
@<TRIPOS>BOND
    1     1     2    1
    2     1     3    1
    3     1     4    1
    4     1     5    1
    5     5     6    1
    6     5     7    1
    7     5     8    1
    8     8     9    1
    9     8    10    1
   10     8    11    1
   11    11    12    1
   12    11    13    1
   13    11    14    1
   14    14    15    1
   15    14    16    1
   16    14    17    1
   17    17    18    1
   18    17    19    1
   19    19    20    1
   20    19    21    1
   21    19    22    1
   22    17    23    1
   23    23    24    1
   24    23    25    1
   25    23    26    1
@<TRIPOS>SUBSTRUCTURE
       1 MOL1            1 RESIDUE      1      MOL     
@<SCITEGIC>MOL_PROPERTY
VM2 Rank
SciTegic.value.IntegerValue
39

@<SCITEGIC>MOL_PROPERTY
Conf_Id
SciTegic.value.IntegerValue
1063

@<SCITEGIC>MOL_PROPERTY
Probability
SciTegic.value.DoubleValue
0.06

@<SCITEGIC>MOL_PROPERTY
Sum Probability
SciTegic.value.DoubleValue
98.97

@<SCITEGIC>MOL_PROPERTY
Delta G
SciTegic.value.DoubleValue
3.338

@<SCITEGIC>MOL_PROPERTY
G
SciTegic.value.DoubleValue
27.048

@<SCITEGIC>MOL_PROPERTY
E
SciTegic.value.DoubleValue
-5.860

@<SCITEGIC>MOL_PROPERTY
-TS
SciTegic.value.DoubleValue
32.907

@<SCITEGIC>MOL_PROPERTY
U+W
SciTegic.value.DoubleValue
-27.322

@<SCITEGIC>MOL_PROPERTY
U
SciTegic.value.DoubleValue
26.848

@<SCITEGIC>MOL_PROPERTY
W
SciTegic.value.DoubleValue
-54.170

@<SCITEGIC>MOL_PROPERTY
W(PB)
SciTegic.value.DoubleValue
-56.426

@<SCITEGIC>MOL_PROPERTY
W(SA)
SciTegic.value.DoubleValue
2.257

@<SCITEGIC>MOL_PROPERTY
Valence
SciTegic.value.DoubleValue
5.824

@<SCITEGIC>MOL_PROPERTY
Coulomb
SciTegic.value.DoubleValue
20.057

@<SCITEGIC>MOL_PROPERTY
VdW
SciTegic.value.DoubleValue
0.968

@<SCITEGIC>MOL_PROPERTY
VdW6
SciTegic.value.DoubleValue
-8.367

@<SCITEGIC>MOL_PROPERTY
VdW12
SciTegic.value.DoubleValue
9.335

@<SCITEGIC>MOL_PROPERTY
Bond
SciTegic.value.DoubleValue
0.267

@<SCITEGIC>MOL_PROPERTY
Angle
SciTegic.value.DoubleValue
1.799

@<SCITEGIC>MOL_PROPERTY
Pdih
SciTegic.value.DoubleValue
3.758

@<SCITEGIC>MOL_PROPERTY
Idih
SciTegic.value.DoubleValue
0.000

@<SCITEGIC>MOL_PROPERTY
Tether
SciTegic.value.DoubleValue
0.000

@<TRIPOS>MOLECULE
guest-s13_vm2.mol2 : vm2 ligand conformer 40
          26          25           1
SMALL
USER_CHARGES
 
@<TRIPOS>ATOM
       1    C1      18.994418   18.449027   20.074526 C.3        1 MOL1        -0.2398
       2    H1      18.756352   17.529868   19.523732 H          1 MOL1         0.0972
       3    H2      18.339903   18.487814   20.951953 H          1 MOL1         0.0972
       4    H3      18.742713   19.299108   19.427195 H          1 MOL1         0.0972
       5    C2      20.491623   18.474347   20.461414 C.3        1 MOL1        -0.1383
       6    H4      21.080446   18.397405   19.536599 H          1 MOL1         0.0961
       7    H5      20.747440   17.586857   21.056791 H          1 MOL1         0.0961
       8    C3      20.915010   19.765348   21.208578 C.3        1 MOL1        -0.1407
       9    H6      21.942416   20.012341   20.907108 H          1 MOL1         0.0961
      10    H7      20.299148   20.613992   20.880415 H          1 MOL1         0.0961
      11    C4      20.897204   19.658225   22.755343 C.3        1 MOL1        -0.1407
      12    H8      21.285653   20.599246   23.169091 H          1 MOL1         0.0961
      13    H9      21.597642   18.872120   23.067577 H          1 MOL1         0.0961
      14    C5      19.497257   19.384886   23.358305 C.3        1 MOL1        -0.1472
      15    H10     18.777343   20.090389   22.922687 H          1 MOL1         0.0961
      16    H11     19.164255   18.375885   23.085023 H          1 MOL1         0.0961
      17    C6      19.468376   19.528173   24.895242 C.3        1 MOL1         0.1190
      18    H12     19.819206   20.532377   25.152502 H          1 MOL1         0.0923
      19    C7      18.032325   19.369730   25.419856 C.3        1 MOL1        -0.2463
      20    H13     17.632736   18.374229   25.189201 H          1 MOL1         0.0972
      21    H14     17.367903   20.117395   24.969006 H          1 MOL1         0.0972
      22    H15     17.998824   19.507933   26.507578 H          1 MOL1         0.0972
      23    N1      20.391786   18.558263   25.580736 N.4        1 MOL1        -0.5974
      24    H16     20.126648   17.589198   25.386303 H          1 MOL1         0.3625
      25    H17     21.359554   18.681531   25.271402 H          1 MOL1         0.3625
      26    H18     20.377189   18.682193   26.597012 H          1 MOL1         0.3625
@<TRIPOS>BOND
    1     1     2    1
    2     1     3    1
    3     1     4    1
    4     1     5    1
    5     5     6    1
    6     5     7    1
    7     5     8    1
    8     8     9    1
    9     8    10    1
   10     8    11    1
   11    11    12    1
   12    11    13    1
   13    11    14    1
   14    14    15    1
   15    14    16    1
   16    14    17    1
   17    17    18    1
   18    17    19    1
   19    19    20    1
   20    19    21    1
   21    19    22    1
   22    17    23    1
   23    23    24    1
   24    23    25    1
   25    23    26    1
@<TRIPOS>SUBSTRUCTURE
       1 MOL1            1 RESIDUE      1      MOL     
@<SCITEGIC>MOL_PROPERTY
VM2 Rank
SciTegic.value.IntegerValue
40

@<SCITEGIC>MOL_PROPERTY
Conf_Id
SciTegic.value.IntegerValue
1277

@<SCITEGIC>MOL_PROPERTY
Probability
SciTegic.value.DoubleValue
0.06

@<SCITEGIC>MOL_PROPERTY
Sum Probability
SciTegic.value.DoubleValue
99.04

@<SCITEGIC>MOL_PROPERTY
Delta G
SciTegic.value.DoubleValue
3.348

@<SCITEGIC>MOL_PROPERTY
G
SciTegic.value.DoubleValue
27.058

@<SCITEGIC>MOL_PROPERTY
E
SciTegic.value.DoubleValue
-5.843

@<SCITEGIC>MOL_PROPERTY
-TS
SciTegic.value.DoubleValue
32.901

@<SCITEGIC>MOL_PROPERTY
U+W
SciTegic.value.DoubleValue
-27.305

@<SCITEGIC>MOL_PROPERTY
U
SciTegic.value.DoubleValue
26.796

@<SCITEGIC>MOL_PROPERTY
W
SciTegic.value.DoubleValue
-54.101

@<SCITEGIC>MOL_PROPERTY
W(PB)
SciTegic.value.DoubleValue
-56.405

@<SCITEGIC>MOL_PROPERTY
W(SA)
SciTegic.value.DoubleValue
2.304

@<SCITEGIC>MOL_PROPERTY
Valence
SciTegic.value.DoubleValue
5.706

@<SCITEGIC>MOL_PROPERTY
Coulomb
SciTegic.value.DoubleValue
20.107

@<SCITEGIC>MOL_PROPERTY
VdW
SciTegic.value.DoubleValue
0.982

@<SCITEGIC>MOL_PROPERTY
VdW6
SciTegic.value.DoubleValue
-8.397

@<SCITEGIC>MOL_PROPERTY
VdW12
SciTegic.value.DoubleValue
9.379

@<SCITEGIC>MOL_PROPERTY
Bond
SciTegic.value.DoubleValue
0.254

@<SCITEGIC>MOL_PROPERTY
Angle
SciTegic.value.DoubleValue
1.644

@<SCITEGIC>MOL_PROPERTY
Pdih
SciTegic.value.DoubleValue
3.808

@<SCITEGIC>MOL_PROPERTY
Idih
SciTegic.value.DoubleValue
0.000

@<SCITEGIC>MOL_PROPERTY
Tether
SciTegic.value.DoubleValue
0.000

@<TRIPOS>MOLECULE
guest-s13_vm2.mol2 : vm2 ligand conformer 41
          26          25           1
SMALL
USER_CHARGES
 
@<TRIPOS>ATOM
       1    C1      19.495175   20.015007   20.147307 C.3        1 MOL1        -0.2398
       2    H1      19.559857   20.584552   19.211187 H          1 MOL1         0.0972
       3    H2      18.467534   19.641155   20.242337 H          1 MOL1         0.0972
       4    H3      19.691374   20.713811   20.969822 H          1 MOL1         0.0972
       5    C2      20.512651   18.853279   20.143030 C.3        1 MOL1        -0.1383
       6    H4      21.531997   19.262090   20.103699 H          1 MOL1         0.0961
       7    H5      20.381737   18.273968   19.218352 H          1 MOL1         0.0961
       8    C3      20.386377   17.888464   21.349733 C.3        1 MOL1        -0.1407
       9    H6      19.403825   17.396846   21.339437 H          1 MOL1         0.0961
      10    H7      21.121008   17.083820   21.207122 H          1 MOL1         0.0961
      11    C4      20.647637   18.542327   22.731714 C.3        1 MOL1        -0.1407
      12    H8      21.334129   19.393107   22.620785 H          1 MOL1         0.0961
      13    H9      21.168336   17.809713   23.362606 H          1 MOL1         0.0961
      14    C5      19.349691   18.986119   23.455427 C.3        1 MOL1        -0.1472
      15    H10     18.762719   19.636511   22.797287 H          1 MOL1         0.0961
      16    H11     18.722760   18.107645   23.657983 H          1 MOL1         0.0961
      17    C6      19.625454   19.739538   24.774717 C.3        1 MOL1         0.1190
      18    H12     20.270908   20.594819   24.552039 H          1 MOL1         0.0923
      19    C7      18.312154   20.269525   25.372293 C.3        1 MOL1        -0.2463
      20    H13     17.805365   20.940071   24.667116 H          1 MOL1         0.0972
      21    H14     18.504764   20.837393   26.290876 H          1 MOL1         0.0972
      22    H15     17.626574   19.448114   25.615537 H          1 MOL1         0.0972
      23    N1      20.358863   18.893740   25.779779 N.4        1 MOL1        -0.5974
      24    H16     21.257551   18.570586   25.411885 H          1 MOL1         0.3625
      25    H17     20.550222   19.415711   26.639605 H          1 MOL1         0.3625
      26    H18     19.815638   18.065928   26.038420 H          1 MOL1         0.3625
@<TRIPOS>BOND
    1     1     2    1
    2     1     3    1
    3     1     4    1
    4     1     5    1
    5     5     6    1
    6     5     7    1
    7     5     8    1
    8     8     9    1
    9     8    10    1
   10     8    11    1
   11    11    12    1
   12    11    13    1
   13    11    14    1
   14    14    15    1
   15    14    16    1
   16    14    17    1
   17    17    18    1
   18    17    19    1
   19    19    20    1
   20    19    21    1
   21    19    22    1
   22    17    23    1
   23    23    24    1
   24    23    25    1
   25    23    26    1
@<TRIPOS>SUBSTRUCTURE
       1 MOL1            1 RESIDUE      1      MOL     
@<SCITEGIC>MOL_PROPERTY
VM2 Rank
SciTegic.value.IntegerValue
41

@<SCITEGIC>MOL_PROPERTY
Conf_Id
SciTegic.value.IntegerValue
1235

@<SCITEGIC>MOL_PROPERTY
Probability
SciTegic.value.DoubleValue
0.06

@<SCITEGIC>MOL_PROPERTY
Sum Probability
SciTegic.value.DoubleValue
99.09

@<SCITEGIC>MOL_PROPERTY
Delta G
SciTegic.value.DoubleValue
3.385

@<SCITEGIC>MOL_PROPERTY
G
SciTegic.value.DoubleValue
27.095

@<SCITEGIC>MOL_PROPERTY
E
SciTegic.value.DoubleValue
-5.839

@<SCITEGIC>MOL_PROPERTY
-TS
SciTegic.value.DoubleValue
32.934

@<SCITEGIC>MOL_PROPERTY
U+W
SciTegic.value.DoubleValue
-27.301

@<SCITEGIC>MOL_PROPERTY
U
SciTegic.value.DoubleValue
26.787

@<SCITEGIC>MOL_PROPERTY
W
SciTegic.value.DoubleValue
-54.088

@<SCITEGIC>MOL_PROPERTY
W(PB)
SciTegic.value.DoubleValue
-56.348

@<SCITEGIC>MOL_PROPERTY
W(SA)
SciTegic.value.DoubleValue
2.260

@<SCITEGIC>MOL_PROPERTY
Valence
SciTegic.value.DoubleValue
5.741

@<SCITEGIC>MOL_PROPERTY
Coulomb
SciTegic.value.DoubleValue
20.023

@<SCITEGIC>MOL_PROPERTY
VdW
SciTegic.value.DoubleValue
1.022

@<SCITEGIC>MOL_PROPERTY
VdW6
SciTegic.value.DoubleValue
-8.392

@<SCITEGIC>MOL_PROPERTY
VdW12
SciTegic.value.DoubleValue
9.414

@<SCITEGIC>MOL_PROPERTY
Bond
SciTegic.value.DoubleValue
0.261

@<SCITEGIC>MOL_PROPERTY
Angle
SciTegic.value.DoubleValue
1.577

@<SCITEGIC>MOL_PROPERTY
Pdih
SciTegic.value.DoubleValue
3.904

@<SCITEGIC>MOL_PROPERTY
Idih
SciTegic.value.DoubleValue
0.000

@<SCITEGIC>MOL_PROPERTY
Tether
SciTegic.value.DoubleValue
0.000

@<TRIPOS>MOLECULE
guest-s13_vm2.mol2 : vm2 ligand conformer 42
          26          25           1
SMALL
USER_CHARGES
 
@<TRIPOS>ATOM
       1    C1      19.574061   17.715487   20.530076 C.3        1 MOL1        -0.2398
       2    H1      19.783944   17.267500   21.508916 H          1 MOL1         0.0972
       3    H2      18.534510   18.067766   20.520645 H          1 MOL1         0.0972
       4    H3      19.665770   16.919400   19.779937 H          1 MOL1         0.0972
       5    C2      20.555709   18.865874   20.217875 C.3        1 MOL1        -0.1383
       6    H4      20.427660   19.162367   19.167417 H          1 MOL1         0.0961
       7    H5      21.587562   18.498149   20.306036 H          1 MOL1         0.0961
       8    C3      20.373478   20.121922   21.107815 C.3        1 MOL1        -0.1407
       9    H6      21.090314   20.878790   20.760345 H          1 MOL1         0.0961
      10    H7      19.379261   20.559589   20.943476 H          1 MOL1         0.0961
      11    C4      20.616566   19.886370   22.621545 C.3        1 MOL1        -0.1407
      12    H8      21.075523   20.791329   23.043497 H          1 MOL1         0.0961
      13    H9      21.350798   19.081325   22.756166 H          1 MOL1         0.0961
      14    C5      19.316918   19.592080   23.415581 C.3        1 MOL1        -0.1472
      15    H10     18.614069   20.421058   23.258673 H          1 MOL1         0.0961
      16    H11     18.822637   18.692652   23.031857 H          1 MOL1         0.0961
      17    C6      19.563565   19.433500   24.931450 C.3        1 MOL1         0.1190
      18    H12     20.073996   20.331990   25.291820 H          1 MOL1         0.0923
      19    C7      18.227284   19.304548   25.680118 C.3        1 MOL1        -0.2463
      20    H13     17.674291   18.414263   25.355317 H          1 MOL1         0.0972
      21    H14     17.594619   20.183211   25.502893 H          1 MOL1         0.0972
      22    H15     18.393954   19.227745   26.761640 H          1 MOL1         0.0972
      23    N1      20.460419   18.268219   25.249539 N.4        1 MOL1        -0.5974
      24    H16     20.630689   18.191407   26.256279 H          1 MOL1         0.3625
      25    H17     20.047935   17.384331   24.940178 H          1 MOL1         0.3625
      26    H18     21.370925   18.361289   24.791688 H          1 MOL1         0.3625
@<TRIPOS>BOND
    1     1     2    1
    2     1     3    1
    3     1     4    1
    4     1     5    1
    5     5     6    1
    6     5     7    1
    7     5     8    1
    8     8     9    1
    9     8    10    1
   10     8    11    1
   11    11    12    1
   12    11    13    1
   13    11    14    1
   14    14    15    1
   15    14    16    1
   16    14    17    1
   17    17    18    1
   18    17    19    1
   19    19    20    1
   20    19    21    1
   21    19    22    1
   22    17    23    1
   23    23    24    1
   24    23    25    1
   25    23    26    1
@<TRIPOS>SUBSTRUCTURE
       1 MOL1            1 RESIDUE      1      MOL     
@<SCITEGIC>MOL_PROPERTY
VM2 Rank
SciTegic.value.IntegerValue
42

@<SCITEGIC>MOL_PROPERTY
Conf_Id
SciTegic.value.IntegerValue
845

@<SCITEGIC>MOL_PROPERTY
Probability
SciTegic.value.DoubleValue
0.05

@<SCITEGIC>MOL_PROPERTY
Sum Probability
SciTegic.value.DoubleValue
99.14

@<SCITEGIC>MOL_PROPERTY
Delta G
SciTegic.value.DoubleValue
3.472

@<SCITEGIC>MOL_PROPERTY
G
SciTegic.value.DoubleValue
27.182

@<SCITEGIC>MOL_PROPERTY
E
SciTegic.value.DoubleValue
-5.704

@<SCITEGIC>MOL_PROPERTY
-TS
SciTegic.value.DoubleValue
32.886

@<SCITEGIC>MOL_PROPERTY
U+W
SciTegic.value.DoubleValue
-27.166

@<SCITEGIC>MOL_PROPERTY
U
SciTegic.value.DoubleValue
27.046

@<SCITEGIC>MOL_PROPERTY
W
SciTegic.value.DoubleValue
-54.213

@<SCITEGIC>MOL_PROPERTY
W(PB)
SciTegic.value.DoubleValue
-56.479

@<SCITEGIC>MOL_PROPERTY
W(SA)
SciTegic.value.DoubleValue
2.266

@<SCITEGIC>MOL_PROPERTY
Valence
SciTegic.value.DoubleValue
5.686

@<SCITEGIC>MOL_PROPERTY
Coulomb
SciTegic.value.DoubleValue
20.402

@<SCITEGIC>MOL_PROPERTY
VdW
SciTegic.value.DoubleValue
0.959

@<SCITEGIC>MOL_PROPERTY
VdW6
SciTegic.value.DoubleValue
-8.445

@<SCITEGIC>MOL_PROPERTY
VdW12
SciTegic.value.DoubleValue
9.405

@<SCITEGIC>MOL_PROPERTY
Bond
SciTegic.value.DoubleValue
0.263

@<SCITEGIC>MOL_PROPERTY
Angle
SciTegic.value.DoubleValue
1.662

@<SCITEGIC>MOL_PROPERTY
Pdih
SciTegic.value.DoubleValue
3.760

@<SCITEGIC>MOL_PROPERTY
Idih
SciTegic.value.DoubleValue
0.000

@<SCITEGIC>MOL_PROPERTY
Tether
SciTegic.value.DoubleValue
0.000

@<TRIPOS>MOLECULE
guest-s13_vm2.mol2 : vm2 ligand conformer 43
          26          25           1
SMALL
USER_CHARGES
 
@<TRIPOS>ATOM
       1    C1      21.236089   19.328159   19.874367 C.3        1 MOL1        -0.2398
       2    H1      20.658353   19.072154   18.976636 H          1 MOL1         0.0972
       3    H2      21.862244   20.197458   19.634999 H          1 MOL1         0.0972
       4    H3      21.902095   18.486172   20.104010 H          1 MOL1         0.0972
       5    C2      20.304519   19.638788   21.065013 C.3        1 MOL1        -0.1383
       6    H4      19.674270   20.503459   20.814499 H          1 MOL1         0.0961
       7    H5      20.917267   19.934205   21.923950 H          1 MOL1         0.0961
       8    C3      19.408983   18.426449   21.417040 C.3        1 MOL1        -0.1407
       9    H6      18.847242   18.147714   20.514638 H          1 MOL1         0.0961
      10    H7      20.028749   17.554632   21.667940 H          1 MOL1         0.0961
      11    C4      18.388473   18.699831   22.553125 C.3        1 MOL1        -0.1407
      12    H8      17.514970   18.056421   22.378696 H          1 MOL1         0.0961
      13    H9      18.006151   19.726931   22.488115 H          1 MOL1         0.0961
      14    C5      18.905984   18.387939   23.984003 C.3        1 MOL1        -0.1472
      15    H10     18.073371   18.500518   24.691046 H          1 MOL1         0.0961
      16    H11     19.191582   17.328516   24.023682 H          1 MOL1         0.0961
      17    C6      20.097057   19.240152   24.477254 C.3        1 MOL1         0.1190
      18    H12     20.919924   19.128248   23.766686 H          1 MOL1         0.0923
      19    C7      19.732071   20.731665   24.587770 C.3        1 MOL1        -0.2463
      20    H13     19.456643   21.150463   23.613306 H          1 MOL1         0.0972
      21    H14     20.584676   21.311305   24.962345 H          1 MOL1         0.0972
      22    H15     18.890050   20.883122   25.274549 H          1 MOL1         0.0972
      23    N1      20.614823   18.735018   25.795429 N.4        1 MOL1        -0.5974
      24    H16     20.902775   17.754054   25.737090 H          1 MOL1         0.3625
      25    H17     21.427925   19.272533   26.109064 H          1 MOL1         0.3625
      26    H18     19.903368   18.803324   26.527989 H          1 MOL1         0.3625
@<TRIPOS>BOND
    1     1     2    1
    2     1     3    1
    3     1     4    1
    4     1     5    1
    5     5     6    1
    6     5     7    1
    7     5     8    1
    8     8     9    1
    9     8    10    1
   10     8    11    1
   11    11    12    1
   12    11    13    1
   13    11    14    1
   14    14    15    1
   15    14    16    1
   16    14    17    1
   17    17    18    1
   18    17    19    1
   19    19    20    1
   20    19    21    1
   21    19    22    1
   22    17    23    1
   23    23    24    1
   24    23    25    1
   25    23    26    1
@<TRIPOS>SUBSTRUCTURE
       1 MOL1            1 RESIDUE      1      MOL     
@<SCITEGIC>MOL_PROPERTY
VM2 Rank
SciTegic.value.IntegerValue
43

@<SCITEGIC>MOL_PROPERTY
Conf_Id
SciTegic.value.IntegerValue
431

@<SCITEGIC>MOL_PROPERTY
Probability
SciTegic.value.DoubleValue
0.05

@<SCITEGIC>MOL_PROPERTY
Sum Probability
SciTegic.value.DoubleValue
99.19

@<SCITEGIC>MOL_PROPERTY
Delta G
SciTegic.value.DoubleValue
3.475

@<SCITEGIC>MOL_PROPERTY
G
SciTegic.value.DoubleValue
27.185

@<SCITEGIC>MOL_PROPERTY
E
SciTegic.value.DoubleValue
-6.001

@<SCITEGIC>MOL_PROPERTY
-TS
SciTegic.value.DoubleValue
33.186

@<SCITEGIC>MOL_PROPERTY
U+W
SciTegic.value.DoubleValue
-27.463

@<SCITEGIC>MOL_PROPERTY
U
SciTegic.value.DoubleValue
26.923

@<SCITEGIC>MOL_PROPERTY
W
SciTegic.value.DoubleValue
-54.386

@<SCITEGIC>MOL_PROPERTY
W(PB)
SciTegic.value.DoubleValue
-56.637

@<SCITEGIC>MOL_PROPERTY
W(SA)
SciTegic.value.DoubleValue
2.251

@<SCITEGIC>MOL_PROPERTY
Valence
SciTegic.value.DoubleValue
5.933

@<SCITEGIC>MOL_PROPERTY
Coulomb
SciTegic.value.DoubleValue
20.334

@<SCITEGIC>MOL_PROPERTY
VdW
SciTegic.value.DoubleValue
0.657

@<SCITEGIC>MOL_PROPERTY
VdW6
SciTegic.value.DoubleValue
-9.078

@<SCITEGIC>MOL_PROPERTY
VdW12
SciTegic.value.DoubleValue
9.735

@<SCITEGIC>MOL_PROPERTY
Bond
SciTegic.value.DoubleValue
0.268

@<SCITEGIC>MOL_PROPERTY
Angle
SciTegic.value.DoubleValue
2.253

@<SCITEGIC>MOL_PROPERTY
Pdih
SciTegic.value.DoubleValue
3.412

@<SCITEGIC>MOL_PROPERTY
Idih
SciTegic.value.DoubleValue
0.000

@<SCITEGIC>MOL_PROPERTY
Tether
SciTegic.value.DoubleValue
0.000

@<TRIPOS>MOLECULE
guest-s13_vm2.mol2 : vm2 ligand conformer 44
          26          25           1
SMALL
USER_CHARGES
 
@<TRIPOS>ATOM
       1    C1      21.236662   19.153368   19.806774 C.3        1 MOL1        -0.2398
       2    H1      22.249949   19.575551   19.800094 H          1 MOL1         0.0972
       3    H2      21.310684   18.094701   19.525677 H          1 MOL1         0.0972
       4    H3      20.651274   19.671761   19.036179 H          1 MOL1         0.0972
       5    C2      20.588920   19.313421   21.198535 C.3        1 MOL1        -0.1383
       6    H4      20.550873   20.379552   21.462409 H          1 MOL1         0.0961
       7    H5      21.226640   18.815145   21.939896 H          1 MOL1         0.0961
       8    C3      19.166195   18.710015   21.237489 C.3        1 MOL1        -0.1407
       9    H6      18.595452   19.090924   20.379231 H          1 MOL1         0.0961
      10    H7      19.228329   17.621457   21.101700 H          1 MOL1         0.0961
      11    C4      18.363431   19.026495   22.526158 C.3        1 MOL1        -0.1407
      12    H8      17.363680   18.587336   22.403923 H          1 MOL1         0.0961
      13    H9      18.196649   20.107596   22.605595 H          1 MOL1         0.0961
      14    C5      18.974391   18.457163   23.836281 C.3        1 MOL1        -0.1472
      15    H10     18.167012   18.304112   24.564722 H          1 MOL1         0.0961
      16    H11     19.380567   17.458400   23.628973 H          1 MOL1         0.0961
      17    C6      20.066436   19.333085   24.497831 C.3        1 MOL1         0.1190
      18    H12     20.809034   19.604922   23.744740 H          1 MOL1         0.0923
      19    C7      19.486210   20.629250   25.092550 C.3        1 MOL1        -0.2463
      20    H13     20.271923   21.209791   25.591496 H          1 MOL1         0.0972
      21    H14     18.704592   20.412223   25.831214 H          1 MOL1         0.0972
      22    H15     19.054671   21.270488   24.316050 H          1 MOL1         0.0972
      23    N1      20.805755   18.565203   25.558382 N.4        1 MOL1        -0.5974
      24    H16     21.551245   19.128330   25.977422 H          1 MOL1         0.3625
      25    H17     20.180319   18.276111   26.315231 H          1 MOL1         0.3625
      26    H18     21.240121   17.719205   25.178687 H          1 MOL1         0.3625
@<TRIPOS>BOND
    1     1     2    1
    2     1     3    1
    3     1     4    1
    4     1     5    1
    5     5     6    1
    6     5     7    1
    7     5     8    1
    8     8     9    1
    9     8    10    1
   10     8    11    1
   11    11    12    1
   12    11    13    1
   13    11    14    1
   14    14    15    1
   15    14    16    1
   16    14    17    1
   17    17    18    1
   18    17    19    1
   19    19    20    1
   20    19    21    1
   21    19    22    1
   22    17    23    1
   23    23    24    1
   24    23    25    1
   25    23    26    1
@<TRIPOS>SUBSTRUCTURE
       1 MOL1            1 RESIDUE      1      MOL     
@<SCITEGIC>MOL_PROPERTY
VM2 Rank
SciTegic.value.IntegerValue
44

@<SCITEGIC>MOL_PROPERTY
Conf_Id
SciTegic.value.IntegerValue
1356

@<SCITEGIC>MOL_PROPERTY
Probability
SciTegic.value.DoubleValue
0.05

@<SCITEGIC>MOL_PROPERTY
Sum Probability
SciTegic.value.DoubleValue
99.24

@<SCITEGIC>MOL_PROPERTY
Delta G
SciTegic.value.DoubleValue
3.518

@<SCITEGIC>MOL_PROPERTY
G
SciTegic.value.DoubleValue
27.228

@<SCITEGIC>MOL_PROPERTY
E
SciTegic.value.DoubleValue
-5.560

@<SCITEGIC>MOL_PROPERTY
-TS
SciTegic.value.DoubleValue
32.787

@<SCITEGIC>MOL_PROPERTY
U+W
SciTegic.value.DoubleValue
-27.021

@<SCITEGIC>MOL_PROPERTY
U
SciTegic.value.DoubleValue
27.379

@<SCITEGIC>MOL_PROPERTY
W
SciTegic.value.DoubleValue
-54.400

@<SCITEGIC>MOL_PROPERTY
W(PB)
SciTegic.value.DoubleValue
-56.656

@<SCITEGIC>MOL_PROPERTY
W(SA)
SciTegic.value.DoubleValue
2.255

@<SCITEGIC>MOL_PROPERTY
Valence
SciTegic.value.DoubleValue
5.925

@<SCITEGIC>MOL_PROPERTY
Coulomb
SciTegic.value.DoubleValue
20.577

@<SCITEGIC>MOL_PROPERTY
VdW
SciTegic.value.DoubleValue
0.876

@<SCITEGIC>MOL_PROPERTY
VdW6
SciTegic.value.DoubleValue
-8.774

@<SCITEGIC>MOL_PROPERTY
VdW12
SciTegic.value.DoubleValue
9.650

@<SCITEGIC>MOL_PROPERTY
Bond
SciTegic.value.DoubleValue
0.273

@<SCITEGIC>MOL_PROPERTY
Angle
SciTegic.value.DoubleValue
2.153

@<SCITEGIC>MOL_PROPERTY
Pdih
SciTegic.value.DoubleValue
3.499

@<SCITEGIC>MOL_PROPERTY
Idih
SciTegic.value.DoubleValue
0.000

@<SCITEGIC>MOL_PROPERTY
Tether
SciTegic.value.DoubleValue
0.000

@<TRIPOS>MOLECULE
guest-s13_vm2.mol2 : vm2 ligand conformer 45
          26          25           1
SMALL
USER_CHARGES
 
@<TRIPOS>ATOM
       1    C1      18.927167   18.992776   19.966391 C.3        1 MOL1        -0.2398
       2    H1      18.523547   19.669093   19.201804 H          1 MOL1         0.0972
       3    H2      18.866448   17.970337   19.571424 H          1 MOL1         0.0972
       4    H3      18.272891   19.054142   20.842958 H          1 MOL1         0.0972
       5    C2      20.389539   19.367669   20.302588 C.3        1 MOL1        -0.1383
       6    H4      20.451607   20.417055   20.622735 H          1 MOL1         0.0961
       7    H5      20.977479   19.299694   19.376501 H          1 MOL1         0.0961
       8    C3      21.032883   18.439968   21.365430 C.3        1 MOL1        -0.1407
       9    H6      20.579688   17.440025   21.321240 H          1 MOL1         0.0961
      10    H7      22.089332   18.296938   21.099111 H          1 MOL1         0.0961
      11    C4      20.987915   18.981388   22.817909 C.3        1 MOL1        -0.1407
      12    H8      21.539674   19.930224   22.869896 H          1 MOL1         0.0961
      13    H9      21.534121   18.274500   23.455822 H          1 MOL1         0.0961
      14    C5      19.557900   19.188436   23.376667 C.3        1 MOL1        -0.1472
      15    H10     19.053850   19.961266   22.783598 H          1 MOL1         0.0961
      16    H11     18.974746   18.265112   23.262431 H          1 MOL1         0.0961
      17    C6      19.545284   19.632041   24.855916 C.3        1 MOL1         0.1190
      18    H12     20.167654   20.527207   24.950985 H          1 MOL1         0.0923
      19    C7      18.115692   19.989898   25.293246 C.3        1 MOL1        -0.2463
      20    H13     18.103578   20.339197   26.333064 H          1 MOL1         0.0972
      21    H14     17.448061   19.122583   25.216080 H          1 MOL1         0.0972
      22    H15     17.705893   20.793118   24.668235 H          1 MOL1         0.0972
      23    N1      20.131621   18.595823   25.775853 N.4        1 MOL1        -0.5974
      24    H16     19.601621   17.721181   25.739024 H          1 MOL1         0.3625
      25    H17     21.100727   18.379872   25.528035 H          1 MOL1         0.3625
      26    H18     20.128968   18.914979   26.748738 H          1 MOL1         0.3625
@<TRIPOS>BOND
    1     1     2    1
    2     1     3    1
    3     1     4    1
    4     1     5    1
    5     5     6    1
    6     5     7    1
    7     5     8    1
    8     8     9    1
    9     8    10    1
   10     8    11    1
   11    11    12    1
   12    11    13    1
   13    11    14    1
   14    14    15    1
   15    14    16    1
   16    14    17    1
   17    17    18    1
   18    17    19    1
   19    19    20    1
   20    19    21    1
   21    19    22    1
   22    17    23    1
   23    23    24    1
   24    23    25    1
   25    23    26    1
@<TRIPOS>SUBSTRUCTURE
       1 MOL1            1 RESIDUE      1      MOL     
@<SCITEGIC>MOL_PROPERTY
VM2 Rank
SciTegic.value.IntegerValue
45

@<SCITEGIC>MOL_PROPERTY
Conf_Id
SciTegic.value.IntegerValue
1353

@<SCITEGIC>MOL_PROPERTY
Probability
SciTegic.value.DoubleValue
0.05

@<SCITEGIC>MOL_PROPERTY
Sum Probability
SciTegic.value.DoubleValue
99.29

@<SCITEGIC>MOL_PROPERTY
Delta G
SciTegic.value.DoubleValue
3.529

@<SCITEGIC>MOL_PROPERTY
G
SciTegic.value.DoubleValue
27.239

@<SCITEGIC>MOL_PROPERTY
E
SciTegic.value.DoubleValue
-5.652

@<SCITEGIC>MOL_PROPERTY
-TS
SciTegic.value.DoubleValue
32.891

@<SCITEGIC>MOL_PROPERTY
U+W
SciTegic.value.DoubleValue
-27.114

@<SCITEGIC>MOL_PROPERTY
U
SciTegic.value.DoubleValue
26.879

@<SCITEGIC>MOL_PROPERTY
W
SciTegic.value.DoubleValue
-53.994

@<SCITEGIC>MOL_PROPERTY
W(PB)
SciTegic.value.DoubleValue
-56.259

@<SCITEGIC>MOL_PROPERTY
W(SA)
SciTegic.value.DoubleValue
2.265

@<SCITEGIC>MOL_PROPERTY
Valence
SciTegic.value.DoubleValue
5.789

@<SCITEGIC>MOL_PROPERTY
Coulomb
SciTegic.value.DoubleValue
20.012

@<SCITEGIC>MOL_PROPERTY
VdW
SciTegic.value.DoubleValue
1.078

@<SCITEGIC>MOL_PROPERTY
VdW6
SciTegic.value.DoubleValue
-8.363

@<SCITEGIC>MOL_PROPERTY
VdW12
SciTegic.value.DoubleValue
9.442

@<SCITEGIC>MOL_PROPERTY
Bond
SciTegic.value.DoubleValue
0.261

@<SCITEGIC>MOL_PROPERTY
Angle
SciTegic.value.DoubleValue
1.699

@<SCITEGIC>MOL_PROPERTY
Pdih
SciTegic.value.DoubleValue
3.828

@<SCITEGIC>MOL_PROPERTY
Idih
SciTegic.value.DoubleValue
0.000

@<SCITEGIC>MOL_PROPERTY
Tether
SciTegic.value.DoubleValue
0.000

@<TRIPOS>MOLECULE
guest-s13_vm2.mol2 : vm2 ligand conformer 46
          26          25           1
SMALL
USER_CHARGES
 
@<TRIPOS>ATOM
       1    C1      19.299177   19.847197   20.287235 C.3        1 MOL1        -0.2398
       2    H1      19.134721   20.181717   19.254791 H          1 MOL1         0.0972
       3    H2      18.416831   19.267828   20.583058 H          1 MOL1         0.0972
       4    H3      19.366258   20.739406   20.923125 H          1 MOL1         0.0972
       5    C2      20.583974   18.995990   20.378022 C.3        1 MOL1        -0.1383
       6    H4      21.388893   19.523258   19.847062 H          1 MOL1         0.0961
       7    H5      20.434947   18.050000   19.838994 H          1 MOL1         0.0961
       8    C3      21.066110   18.705561   21.822363 C.3        1 MOL1        -0.1407
       9    H6      22.018681   18.163881   21.741059 H          1 MOL1         0.0961
      10    H7      21.312357   19.646295   22.329926 H          1 MOL1         0.0961
      11    C4      20.103220   17.838798   22.680663 C.3        1 MOL1        -0.1407
      12    H8      20.703527   17.249267   23.386324 H          1 MOL1         0.0961
      13    H9      19.607620   17.098685   22.037600 H          1 MOL1         0.0961
      14    C5      19.029544   18.621559   23.487172 C.3        1 MOL1        -0.1472
      15    H10     18.333273   19.114092   22.800797 H          1 MOL1         0.0961
      16    H11     18.425756   17.901372   24.055064 H          1 MOL1         0.0961
      17    C6      19.599514   19.677351   24.461578 C.3        1 MOL1         0.1190
      18    H12     20.170050   20.409820   23.883650 H          1 MOL1         0.0923
      19    C7      18.456996   20.419766   25.172732 C.3        1 MOL1        -0.2463
      20    H13     17.796903   20.907642   24.444723 H          1 MOL1         0.0972
      21    H14     18.853534   21.198229   25.836126 H          1 MOL1         0.0972
      22    H15     17.851265   19.732331   25.776380 H          1 MOL1         0.0972
      23    N1      20.549464   19.081779   25.464236 N.4        1 MOL1        -0.5974
      24    H16     21.336129   18.619261   25.000695 H          1 MOL1         0.3625
      25    H17     20.936265   19.797624   26.085709 H          1 MOL1         0.3625
      26    H18     20.083676   18.384869   26.051200 H          1 MOL1         0.3625
@<TRIPOS>BOND
    1     1     2    1
    2     1     3    1
    3     1     4    1
    4     1     5    1
    5     5     6    1
    6     5     7    1
    7     5     8    1
    8     8     9    1
    9     8    10    1
   10     8    11    1
   11    11    12    1
   12    11    13    1
   13    11    14    1
   14    14    15    1
   15    14    16    1
   16    14    17    1
   17    17    18    1
   18    17    19    1
   19    19    20    1
   20    19    21    1
   21    19    22    1
   22    17    23    1
   23    23    24    1
   24    23    25    1
   25    23    26    1
@<TRIPOS>SUBSTRUCTURE
       1 MOL1            1 RESIDUE      1      MOL     
@<SCITEGIC>MOL_PROPERTY
VM2 Rank
SciTegic.value.IntegerValue
46

@<SCITEGIC>MOL_PROPERTY
Conf_Id
SciTegic.value.IntegerValue
824

@<SCITEGIC>MOL_PROPERTY
Probability
SciTegic.value.DoubleValue
0.04

@<SCITEGIC>MOL_PROPERTY
Sum Probability
SciTegic.value.DoubleValue
99.33

@<SCITEGIC>MOL_PROPERTY
Delta G
SciTegic.value.DoubleValue
3.594

@<SCITEGIC>MOL_PROPERTY
G
SciTegic.value.DoubleValue
27.303

@<SCITEGIC>MOL_PROPERTY
E
SciTegic.value.DoubleValue
-5.210

@<SCITEGIC>MOL_PROPERTY
-TS
SciTegic.value.DoubleValue
32.513

@<SCITEGIC>MOL_PROPERTY
U+W
SciTegic.value.DoubleValue
-26.672

@<SCITEGIC>MOL_PROPERTY
U
SciTegic.value.DoubleValue
27.544

@<SCITEGIC>MOL_PROPERTY
W
SciTegic.value.DoubleValue
-54.216

@<SCITEGIC>MOL_PROPERTY
W(PB)
SciTegic.value.DoubleValue
-56.451

@<SCITEGIC>MOL_PROPERTY
W(SA)
SciTegic.value.DoubleValue
2.236

@<SCITEGIC>MOL_PROPERTY
Valence
SciTegic.value.DoubleValue
6.186

@<SCITEGIC>MOL_PROPERTY
Coulomb
SciTegic.value.DoubleValue
20.491

@<SCITEGIC>MOL_PROPERTY
VdW
SciTegic.value.DoubleValue
0.867

@<SCITEGIC>MOL_PROPERTY
VdW6
SciTegic.value.DoubleValue
-9.301

@<SCITEGIC>MOL_PROPERTY
VdW12
SciTegic.value.DoubleValue
10.168

@<SCITEGIC>MOL_PROPERTY
Bond
SciTegic.value.DoubleValue
0.324

@<SCITEGIC>MOL_PROPERTY
Angle
SciTegic.value.DoubleValue
2.320

@<SCITEGIC>MOL_PROPERTY
Pdih
SciTegic.value.DoubleValue
3.542

@<SCITEGIC>MOL_PROPERTY
Idih
SciTegic.value.DoubleValue
0.000

@<SCITEGIC>MOL_PROPERTY
Tether
SciTegic.value.DoubleValue
0.000

@<TRIPOS>MOLECULE
guest-s13_vm2.mol2 : vm2 ligand conformer 47
          26          25           1
SMALL
USER_CHARGES
 
@<TRIPOS>ATOM
       1    C1      20.881403   19.587739   19.682193 C.3        1 MOL1        -0.2398
       2    H1      21.091841   19.443085   18.614620 H          1 MOL1         0.0972
       3    H2      20.106691   20.360280   19.764375 H          1 MOL1         0.0972
       4    H3      21.796270   19.966018   20.156457 H          1 MOL1         0.0972
       5    C2      20.428062   18.259397   20.329244 C.3        1 MOL1        -0.1383
       6    H4      21.184711   17.488698   20.125949 H          1 MOL1         0.0961
       7    H5      19.501124   17.913174   19.850996 H          1 MOL1         0.0961
       8    C3      20.221114   18.363408   21.859443 C.3        1 MOL1        -0.1407
       9    H6      19.988872   17.362304   22.248259 H          1 MOL1         0.0961
      10    H7      21.166895   18.676230   22.318349 H          1 MOL1         0.0961
      11    C4      19.088180   19.343168   22.255678 C.3        1 MOL1        -0.1407
      12    H8      18.215405   19.147505   21.617521 H          1 MOL1         0.0961
      13    H9      19.397329   20.375337   22.042747 H          1 MOL1         0.0961
      14    C5      18.629894   19.244132   23.734705 C.3        1 MOL1        -0.1472
      15    H10     17.745441   19.886395   23.841204 H          1 MOL1         0.0961
      16    H11     18.288027   18.225063   23.958812 H          1 MOL1         0.0961
      17    C6      19.687202   19.688070   24.773416 C.3        1 MOL1         0.1190
      18    H12     20.194860   20.578524   24.390045 H          1 MOL1         0.0923
      19    C7      19.008239   20.056679   26.103005 C.3        1 MOL1        -0.2463
      20    H13     18.469368   19.198834   26.524571 H          1 MOL1         0.0972
      21    H14     18.291438   20.875322   25.962379 H          1 MOL1         0.0972
      22    H15     19.750198   20.389913   26.839147 H          1 MOL1         0.0972
      23    N1      20.743905   18.645407   25.016315 N.4        1 MOL1        -0.5974
      24    H16     21.224731   18.391467   24.150657 H          1 MOL1         0.3625
      25    H17     21.452160   18.977936   25.676854 H          1 MOL1         0.3625
      26    H18     20.339418   17.790284   25.406753 H          1 MOL1         0.3625
@<TRIPOS>BOND
    1     1     2    1
    2     1     3    1
    3     1     4    1
    4     1     5    1
    5     5     6    1
    6     5     7    1
    7     5     8    1
    8     8     9    1
    9     8    10    1
   10     8    11    1
   11    11    12    1
   12    11    13    1
   13    11    14    1
   14    14    15    1
   15    14    16    1
   16    14    17    1
   17    17    18    1
   18    17    19    1
   19    19    20    1
   20    19    21    1
   21    19    22    1
   22    17    23    1
   23    23    24    1
   24    23    25    1
   25    23    26    1
@<TRIPOS>SUBSTRUCTURE
       1 MOL1            1 RESIDUE      1      MOL     
@<SCITEGIC>MOL_PROPERTY
VM2 Rank
SciTegic.value.IntegerValue
47

@<SCITEGIC>MOL_PROPERTY
Conf_Id
SciTegic.value.IntegerValue
834

@<SCITEGIC>MOL_PROPERTY
Probability
SciTegic.value.DoubleValue
0.04

@<SCITEGIC>MOL_PROPERTY
Sum Probability
SciTegic.value.DoubleValue
99.37

@<SCITEGIC>MOL_PROPERTY
Delta G
SciTegic.value.DoubleValue
3.603

@<SCITEGIC>MOL_PROPERTY
G
SciTegic.value.DoubleValue
27.313

@<SCITEGIC>MOL_PROPERTY
E
SciTegic.value.DoubleValue
-5.351

@<SCITEGIC>MOL_PROPERTY
-TS
SciTegic.value.DoubleValue
32.664

@<SCITEGIC>MOL_PROPERTY
U+W
SciTegic.value.DoubleValue
-26.813

@<SCITEGIC>MOL_PROPERTY
U
SciTegic.value.DoubleValue
27.042

@<SCITEGIC>MOL_PROPERTY
W
SciTegic.value.DoubleValue
-53.855

@<SCITEGIC>MOL_PROPERTY
W(PB)
SciTegic.value.DoubleValue
-56.140

@<SCITEGIC>MOL_PROPERTY
W(SA)
SciTegic.value.DoubleValue
2.285

@<SCITEGIC>MOL_PROPERTY
Valence
SciTegic.value.DoubleValue
4.968

@<SCITEGIC>MOL_PROPERTY
Coulomb
SciTegic.value.DoubleValue
21.068

@<SCITEGIC>MOL_PROPERTY
VdW
SciTegic.value.DoubleValue
1.006

@<SCITEGIC>MOL_PROPERTY
VdW6
SciTegic.value.DoubleValue
-8.509

@<SCITEGIC>MOL_PROPERTY
VdW12
SciTegic.value.DoubleValue
9.516

@<SCITEGIC>MOL_PROPERTY
Bond
SciTegic.value.DoubleValue
0.263

@<SCITEGIC>MOL_PROPERTY
Angle
SciTegic.value.DoubleValue
1.758

@<SCITEGIC>MOL_PROPERTY
Pdih
SciTegic.value.DoubleValue
2.947

@<SCITEGIC>MOL_PROPERTY
Idih
SciTegic.value.DoubleValue
0.000

@<SCITEGIC>MOL_PROPERTY
Tether
SciTegic.value.DoubleValue
0.000

@<TRIPOS>MOLECULE
guest-s13_vm2.mol2 : vm2 ligand conformer 48
          26          25           1
SMALL
USER_CHARGES
 
@<TRIPOS>ATOM
       1    C1      19.301282   17.906068   20.458316 C.3        1 MOL1        -0.2398
       2    H1      20.017686   17.139300   20.780310 H          1 MOL1         0.0972
       3    H2      18.563748   18.054676   21.256485 H          1 MOL1         0.0972
       4    H3      18.763060   17.517135   19.584292 H          1 MOL1         0.0972
       5    C2      20.019008   19.227017   20.105477 C.3        1 MOL1        -0.1383
       6    H4      19.270737   19.993082   19.858583 H          1 MOL1         0.0961
       7    H5      20.609633   19.073582   19.191481 H          1 MOL1         0.0961
       8    C3      20.961413   19.759469   21.215130 C.3        1 MOL1        -0.1407
       9    H6      21.779222   19.046799   21.389109 H          1 MOL1         0.0961
      10    H7      21.440761   20.670638   20.831166 H          1 MOL1         0.0961
      11    C4      20.257097   20.111414   22.551759 C.3        1 MOL1        -0.1407
      12    H8      19.226025   20.428502   22.349491 H          1 MOL1         0.0961
      13    H9      20.763343   20.981760   22.991824 H          1 MOL1         0.0961
      14    C5      20.293812   18.958378   23.589539 C.3        1 MOL1        -0.1472
      15    H10     19.779355   18.071838   23.202450 H          1 MOL1         0.0961
      16    H11     21.340457   18.663560   23.741274 H          1 MOL1         0.0961
      17    C6      19.692757   19.340730   24.961290 C.3        1 MOL1         0.1190
      18    H12     20.181127   20.256998   25.307144 H          1 MOL1         0.0923
      19    C7      18.177031   19.596494   24.877772 C.3        1 MOL1        -0.2463
      20    H13     17.951567   20.458598   24.239814 H          1 MOL1         0.0972
      21    H14     17.766737   19.813488   25.871694 H          1 MOL1         0.0972
      22    H15     17.648751   18.723260   24.475217 H          1 MOL1         0.0972
      23    N1      19.985599   18.288429   25.994717 N.4        1 MOL1        -0.5974
      24    H16     19.558966   17.391593   25.747532 H          1 MOL1         0.3625
      25    H17     20.992191   18.132030   26.099269 H          1 MOL1         0.3625
      26    H18     19.622737   18.556003   26.914058 H          1 MOL1         0.3625
@<TRIPOS>BOND
    1     1     2    1
    2     1     3    1
    3     1     4    1
    4     1     5    1
    5     5     6    1
    6     5     7    1
    7     5     8    1
    8     8     9    1
    9     8    10    1
   10     8    11    1
   11    11    12    1
   12    11    13    1
   13    11    14    1
   14    14    15    1
   15    14    16    1
   16    14    17    1
   17    17    18    1
   18    17    19    1
   19    19    20    1
   20    19    21    1
   21    19    22    1
   22    17    23    1
   23    23    24    1
   24    23    25    1
   25    23    26    1
@<TRIPOS>SUBSTRUCTURE
       1 MOL1            1 RESIDUE      1      MOL     
@<SCITEGIC>MOL_PROPERTY
VM2 Rank
SciTegic.value.IntegerValue
48

@<SCITEGIC>MOL_PROPERTY
Conf_Id
SciTegic.value.IntegerValue
766

@<SCITEGIC>MOL_PROPERTY
Probability
SciTegic.value.DoubleValue
0.04

@<SCITEGIC>MOL_PROPERTY
Sum Probability
SciTegic.value.DoubleValue
99.40

@<SCITEGIC>MOL_PROPERTY
Delta G
SciTegic.value.DoubleValue
3.667

@<SCITEGIC>MOL_PROPERTY
G
SciTegic.value.DoubleValue
27.377

@<SCITEGIC>MOL_PROPERTY
E
SciTegic.value.DoubleValue
-5.492

@<SCITEGIC>MOL_PROPERTY
-TS
SciTegic.value.DoubleValue
32.868

@<SCITEGIC>MOL_PROPERTY
U+W
SciTegic.value.DoubleValue
-26.953

@<SCITEGIC>MOL_PROPERTY
U
SciTegic.value.DoubleValue
27.261

@<SCITEGIC>MOL_PROPERTY
W
SciTegic.value.DoubleValue
-54.208

@<SCITEGIC>MOL_PROPERTY
W(PB)
SciTegic.value.DoubleValue
-56.471

@<SCITEGIC>MOL_PROPERTY
W(SA)
SciTegic.value.DoubleValue
2.263

@<SCITEGIC>MOL_PROPERTY
Valence
SciTegic.value.DoubleValue
6.230

@<SCITEGIC>MOL_PROPERTY
Coulomb
SciTegic.value.DoubleValue
19.945

@<SCITEGIC>MOL_PROPERTY
VdW
SciTegic.value.DoubleValue
1.087

@<SCITEGIC>MOL_PROPERTY
VdW6
SciTegic.value.DoubleValue
-8.618

@<SCITEGIC>MOL_PROPERTY
VdW12
SciTegic.value.DoubleValue
9.704

@<SCITEGIC>MOL_PROPERTY
Bond
SciTegic.value.DoubleValue
0.277

@<SCITEGIC>MOL_PROPERTY
Angle
SciTegic.value.DoubleValue
1.929

@<SCITEGIC>MOL_PROPERTY
Pdih
SciTegic.value.DoubleValue
4.024

@<SCITEGIC>MOL_PROPERTY
Idih
SciTegic.value.DoubleValue
0.000

@<SCITEGIC>MOL_PROPERTY
Tether
SciTegic.value.DoubleValue
0.000

@<TRIPOS>MOLECULE
guest-s13_vm2.mol2 : vm2 ligand conformer 49
          26          25           1
SMALL
USER_CHARGES
 
@<TRIPOS>ATOM
       1    C1      20.280870   19.119181   19.303850 C.3        1 MOL1        -0.2398
       2    H1      19.330915   18.634713   19.043284 H          1 MOL1         0.0972
       3    H2      20.083792   20.180151   19.501264 H          1 MOL1         0.0972
       4    H3      20.937511   19.064047   18.425948 H          1 MOL1         0.0972
       5    C2      20.942584   18.428584   20.517978 C.3        1 MOL1        -0.1383
       6    H4      21.873323   18.951788   20.778206 H          1 MOL1         0.0961
       7    H5      21.233958   17.409100   20.228819 H          1 MOL1         0.0961
       8    C3      20.022096   18.348062   21.759838 C.3        1 MOL1        -0.1407
       9    H6      19.103320   17.805954   21.496591 H          1 MOL1         0.0961
      10    H7      20.526141   17.738754   22.518025 H          1 MOL1         0.0961
      11    C4      19.653833   19.737116   22.342985 C.3        1 MOL1        -0.1407
      12    H8      19.063654   20.282000   21.594459 H          1 MOL1         0.0961
      13    H9      20.559647   20.335996   22.510780 H          1 MOL1         0.0961
      14    C5      18.816902   19.664801   23.647478 C.3        1 MOL1        -0.1472
      15    H10     18.163612   20.547169   23.675205 H          1 MOL1         0.0961
      16    H11     18.146837   18.795156   23.623507 H          1 MOL1         0.0961
      17    C6      19.658221   19.663195   24.945511 C.3        1 MOL1         0.1190
      18    H12     20.297840   20.551131   24.935892 H          1 MOL1         0.0923
      19    C7      18.738758   19.748936   26.174522 C.3        1 MOL1        -0.2463
      20    H13     18.116879   20.651933   26.134813 H          1 MOL1         0.0972
      21    H14     19.328306   19.792327   27.098612 H          1 MOL1         0.0972
      22    H15     18.073553   18.878379   26.234005 H          1 MOL1         0.0972
      23    N1      20.574735   18.478125   25.061838 N.4        1 MOL1        -0.5974
      24    H16     21.227415   18.438362   24.274528 H          1 MOL1         0.3625
      25    H17     21.130743   18.518144   25.920749 H          1 MOL1         0.3625
      26    H18     20.048820   17.600442   25.076336 H          1 MOL1         0.3625
@<TRIPOS>BOND
    1     1     2    1
    2     1     3    1
    3     1     4    1
    4     1     5    1
    5     5     6    1
    6     5     7    1
    7     5     8    1
    8     8     9    1
    9     8    10    1
   10     8    11    1
   11    11    12    1
   12    11    13    1
   13    11    14    1
   14    14    15    1
   15    14    16    1
   16    14    17    1
   17    17    18    1
   18    17    19    1
   19    19    20    1
   20    19    21    1
   21    19    22    1
   22    17    23    1
   23    23    24    1
   24    23    25    1
   25    23    26    1
@<TRIPOS>SUBSTRUCTURE
       1 MOL1            1 RESIDUE      1      MOL     
@<SCITEGIC>MOL_PROPERTY
VM2 Rank
SciTegic.value.IntegerValue
49

@<SCITEGIC>MOL_PROPERTY
Conf_Id
SciTegic.value.IntegerValue
334

@<SCITEGIC>MOL_PROPERTY
Probability
SciTegic.value.DoubleValue
0.04

@<SCITEGIC>MOL_PROPERTY
Sum Probability
SciTegic.value.DoubleValue
99.44

@<SCITEGIC>MOL_PROPERTY
Delta G
SciTegic.value.DoubleValue
3.671

@<SCITEGIC>MOL_PROPERTY
G
SciTegic.value.DoubleValue
27.381

@<SCITEGIC>MOL_PROPERTY
E
SciTegic.value.DoubleValue
-5.271

@<SCITEGIC>MOL_PROPERTY
-TS
SciTegic.value.DoubleValue
32.652

@<SCITEGIC>MOL_PROPERTY
U+W
SciTegic.value.DoubleValue
-26.733

@<SCITEGIC>MOL_PROPERTY
U
SciTegic.value.DoubleValue
27.192

@<SCITEGIC>MOL_PROPERTY
W
SciTegic.value.DoubleValue
-53.925

@<SCITEGIC>MOL_PROPERTY
W(PB)
SciTegic.value.DoubleValue
-56.220

@<SCITEGIC>MOL_PROPERTY
W(SA)
SciTegic.value.DoubleValue
2.295

@<SCITEGIC>MOL_PROPERTY
Valence
SciTegic.value.DoubleValue
5.378

@<SCITEGIC>MOL_PROPERTY
Coulomb
SciTegic.value.DoubleValue
20.709

@<SCITEGIC>MOL_PROPERTY
VdW
SciTegic.value.DoubleValue
1.105

@<SCITEGIC>MOL_PROPERTY
VdW6
SciTegic.value.DoubleValue
-8.250

@<SCITEGIC>MOL_PROPERTY
VdW12
SciTegic.value.DoubleValue
9.355

@<SCITEGIC>MOL_PROPERTY
Bond
SciTegic.value.DoubleValue
0.276

@<SCITEGIC>MOL_PROPERTY
Angle
SciTegic.value.DoubleValue
1.582

@<SCITEGIC>MOL_PROPERTY
Pdih
SciTegic.value.DoubleValue
3.520

@<SCITEGIC>MOL_PROPERTY
Idih
SciTegic.value.DoubleValue
0.000

@<SCITEGIC>MOL_PROPERTY
Tether
SciTegic.value.DoubleValue
0.000

@<TRIPOS>MOLECULE
guest-s13_vm2.mol2 : vm2 ligand conformer 50
          26          25           1
SMALL
USER_CHARGES
 
@<TRIPOS>ATOM
       1    C1      19.287954   18.452348   19.855248 C.3        1 MOL1        -0.2398
       2    H1      19.376829   18.244526   18.781086 H          1 MOL1         0.0972
       3    H2      18.747388   17.615139   20.315512 H          1 MOL1         0.0972
       4    H3      18.678941   19.358048   19.966756 H          1 MOL1         0.0972
       5    C2      20.686326   18.627499   20.489789 C.3        1 MOL1        -0.1383
       6    H4      21.196599   19.484763   20.028824 H          1 MOL1         0.0961
       7    H5      21.296201   17.744169   20.254054 H          1 MOL1         0.0961
       8    C3      20.643188   18.807156   22.026240 C.3        1 MOL1        -0.1407
       9    H6      20.156494   17.929035   22.467689 H          1 MOL1         0.0961
      10    H7      21.674719   18.827022   22.403988 H          1 MOL1         0.0961
      11    C4      19.912262   20.099184   22.469411 C.3        1 MOL1        -0.1407
      12    H8      18.843688   20.027380   22.229603 H          1 MOL1         0.0961
      13    H9      20.295151   20.939534   21.874227 H          1 MOL1         0.0961
      14    C5      20.089405   20.460764   23.971169 C.3        1 MOL1        -0.1472
      15    H10     21.151186   20.649990   24.176273 H          1 MOL1         0.0961
      16    H11     19.584616   21.420194   24.144972 H          1 MOL1         0.0961
      17    C6      19.546938   19.451961   25.015801 C.3        1 MOL1         0.1190
      18    H12     19.561195   19.962372   25.983812 H          1 MOL1         0.0923
      19    C7      18.090768   19.041145   24.735807 C.3        1 MOL1        -0.2463
      20    H13     17.692902   18.446233   25.566980 H          1 MOL1         0.0972
      21    H14     18.008072   18.439275   23.822889 H          1 MOL1         0.0972
      22    H15     17.452004   19.926027   24.624076 H          1 MOL1         0.0972
      23    N1      20.431159   18.247943   25.190535 N.4        1 MOL1        -0.5974
      24    H16     21.384636   18.517920   25.448334 H          1 MOL1         0.3625
      25    H17     20.079363   17.630280   25.927599 H          1 MOL1         0.3625
      26    H18     20.487644   17.700208   24.329702 H          1 MOL1         0.3625
@<TRIPOS>BOND
    1     1     2    1
    2     1     3    1
    3     1     4    1
    4     1     5    1
    5     5     6    1
    6     5     7    1
    7     5     8    1
    8     8     9    1
    9     8    10    1
   10     8    11    1
   11    11    12    1
   12    11    13    1
   13    11    14    1
   14    14    15    1
   15    14    16    1
   16    14    17    1
   17    17    18    1
   18    17    19    1
   19    19    20    1
   20    19    21    1
   21    19    22    1
   22    17    23    1
   23    23    24    1
   24    23    25    1
   25    23    26    1
@<TRIPOS>SUBSTRUCTURE
       1 MOL1            1 RESIDUE      1      MOL     
@<SCITEGIC>MOL_PROPERTY
VM2 Rank
SciTegic.value.IntegerValue
50

@<SCITEGIC>MOL_PROPERTY
Conf_Id
SciTegic.value.IntegerValue
1372

@<SCITEGIC>MOL_PROPERTY
Probability
SciTegic.value.DoubleValue
0.03

@<SCITEGIC>MOL_PROPERTY
Sum Probability
SciTegic.value.DoubleValue
99.47

@<SCITEGIC>MOL_PROPERTY
Delta G
SciTegic.value.DoubleValue
3.769

@<SCITEGIC>MOL_PROPERTY
G
SciTegic.value.DoubleValue
27.479

@<SCITEGIC>MOL_PROPERTY
E
SciTegic.value.DoubleValue
-5.790

@<SCITEGIC>MOL_PROPERTY
-TS
SciTegic.value.DoubleValue
33.269

@<SCITEGIC>MOL_PROPERTY
U+W
SciTegic.value.DoubleValue
-27.252

@<SCITEGIC>MOL_PROPERTY
U
SciTegic.value.DoubleValue
27.147

@<SCITEGIC>MOL_PROPERTY
W
SciTegic.value.DoubleValue
-54.399

@<SCITEGIC>MOL_PROPERTY
W(PB)
SciTegic.value.DoubleValue
-56.625

@<SCITEGIC>MOL_PROPERTY
W(SA)
SciTegic.value.DoubleValue
2.226

@<SCITEGIC>MOL_PROPERTY
Valence
SciTegic.value.DoubleValue
5.072

@<SCITEGIC>MOL_PROPERTY
Coulomb
SciTegic.value.DoubleValue
21.223

@<SCITEGIC>MOL_PROPERTY
VdW
SciTegic.value.DoubleValue
0.852

@<SCITEGIC>MOL_PROPERTY
VdW6
SciTegic.value.DoubleValue
-9.599

@<SCITEGIC>MOL_PROPERTY
VdW12
SciTegic.value.DoubleValue
10.451

@<SCITEGIC>MOL_PROPERTY
Bond
SciTegic.value.DoubleValue
0.312

@<SCITEGIC>MOL_PROPERTY
Angle
SciTegic.value.DoubleValue
2.307

@<SCITEGIC>MOL_PROPERTY
Pdih
SciTegic.value.DoubleValue
2.453

@<SCITEGIC>MOL_PROPERTY
Idih
SciTegic.value.DoubleValue
0.000

@<SCITEGIC>MOL_PROPERTY
Tether
SciTegic.value.DoubleValue
0.000

@<TRIPOS>MOLECULE
guest-s13_vm2.mol2 : vm2 ligand conformer 51
          26          25           1
SMALL
USER_CHARGES
 
@<TRIPOS>ATOM
       1    C1      21.007463   19.712273   19.827853 C.3        1 MOL1        -0.2398
       2    H1      20.746607   19.036934   19.002556 H          1 MOL1         0.0972
       3    H2      20.402102   20.622775   19.728962 H          1 MOL1         0.0972
       4    H3      22.061885   19.994474   19.711162 H          1 MOL1         0.0972
       5    C2      20.772330   19.036040   21.195082 C.3        1 MOL1        -0.1383
       6    H4      21.088450   19.725415   21.985677 H          1 MOL1         0.0961
       7    H5      21.413887   18.147202   21.272100 H          1 MOL1         0.0961
       8    C3      19.290527   18.627577   21.378206 C.3        1 MOL1        -0.1407
       9    H6      18.640286   19.510377   21.307368 H          1 MOL1         0.0961
      10    H7      19.012036   17.979624   20.535459 H          1 MOL1         0.0961
      11    C4      19.000272   17.855969   22.692381 C.3        1 MOL1        -0.1407
      12    H8      19.836213   17.187647   22.937875 H          1 MOL1         0.0961
      13    H9      18.144313   17.192179   22.507448 H          1 MOL1         0.0961
      14    C5      18.630853   18.749764   23.907354 C.3        1 MOL1        -0.1472
      15    H10     17.746542   19.347313   23.648893 H          1 MOL1         0.0961
      16    H11     18.324495   18.101517   24.739141 H          1 MOL1         0.0961
      17    C6      19.748912   19.694694   24.397035 C.3        1 MOL1         0.1190
      18    H12     20.021475   20.361350   23.574789 H          1 MOL1         0.0923
      19    C7      19.243823   20.561973   25.561052 C.3        1 MOL1        -0.2463
      20    H13     18.957076   19.944728   26.421677 H          1 MOL1         0.0972
      21    H14     18.369857   21.151457   25.257044 H          1 MOL1         0.0972
      22    H15     20.020998   21.263798   25.887850 H          1 MOL1         0.0972
      23    N1      20.993820   18.949711   24.795037 N.4        1 MOL1        -0.5974
      24    H16     21.355153   18.390011   24.018205 H          1 MOL1         0.3625
      25    H17     21.736977   19.590211   25.088171 H          1 MOL1         0.3625
      26    H18     20.812429   18.313301   25.575729 H          1 MOL1         0.3625
@<TRIPOS>BOND
    1     1     2    1
    2     1     3    1
    3     1     4    1
    4     1     5    1
    5     5     6    1
    6     5     7    1
    7     5     8    1
    8     8     9    1
    9     8    10    1
   10     8    11    1
   11    11    12    1
   12    11    13    1
   13    11    14    1
   14    14    15    1
   15    14    16    1
   16    14    17    1
   17    17    18    1
   18    17    19    1
   19    19    20    1
   20    19    21    1
   21    19    22    1
   22    17    23    1
   23    23    24    1
   24    23    25    1
   25    23    26    1
@<TRIPOS>SUBSTRUCTURE
       1 MOL1            1 RESIDUE      1      MOL     
@<SCITEGIC>MOL_PROPERTY
VM2 Rank
SciTegic.value.IntegerValue
51

@<SCITEGIC>MOL_PROPERTY
Conf_Id
SciTegic.value.IntegerValue
308

@<SCITEGIC>MOL_PROPERTY
Probability
SciTegic.value.DoubleValue
0.03

@<SCITEGIC>MOL_PROPERTY
Sum Probability
SciTegic.value.DoubleValue
99.50

@<SCITEGIC>MOL_PROPERTY
Delta G
SciTegic.value.DoubleValue
3.783

@<SCITEGIC>MOL_PROPERTY
G
SciTegic.value.DoubleValue
27.493

@<SCITEGIC>MOL_PROPERTY
E
SciTegic.value.DoubleValue
-5.512

@<SCITEGIC>MOL_PROPERTY
-TS
SciTegic.value.DoubleValue
33.005

@<SCITEGIC>MOL_PROPERTY
U+W
SciTegic.value.DoubleValue
-26.974

@<SCITEGIC>MOL_PROPERTY
U
SciTegic.value.DoubleValue
27.041

@<SCITEGIC>MOL_PROPERTY
W
SciTegic.value.DoubleValue
-54.015

@<SCITEGIC>MOL_PROPERTY
W(PB)
SciTegic.value.DoubleValue
-56.287

@<SCITEGIC>MOL_PROPERTY
W(SA)
SciTegic.value.DoubleValue
2.272

@<SCITEGIC>MOL_PROPERTY
Valence
SciTegic.value.DoubleValue
5.411

@<SCITEGIC>MOL_PROPERTY
Coulomb
SciTegic.value.DoubleValue
21.046

@<SCITEGIC>MOL_PROPERTY
VdW
SciTegic.value.DoubleValue
0.584

@<SCITEGIC>MOL_PROPERTY
VdW6
SciTegic.value.DoubleValue
-8.849

@<SCITEGIC>MOL_PROPERTY
VdW12
SciTegic.value.DoubleValue
9.433

@<SCITEGIC>MOL_PROPERTY
Bond
SciTegic.value.DoubleValue
0.257

@<SCITEGIC>MOL_PROPERTY
Angle
SciTegic.value.DoubleValue
1.922

@<SCITEGIC>MOL_PROPERTY
Pdih
SciTegic.value.DoubleValue
3.232

@<SCITEGIC>MOL_PROPERTY
Idih
SciTegic.value.DoubleValue
0.000

@<SCITEGIC>MOL_PROPERTY
Tether
SciTegic.value.DoubleValue
0.000

@<TRIPOS>MOLECULE
guest-s13_vm2.mol2 : vm2 ligand conformer 52
          26          25           1
SMALL
USER_CHARGES
 
@<TRIPOS>ATOM
       1    C1      20.428361   17.684425   20.310204 C.3        1 MOL1        -0.2398
       2    H1      19.940604   16.914926   19.697941 H          1 MOL1         0.0972
       3    H2      21.432173   17.850262   19.898042 H          1 MOL1         0.0972
       4    H3      20.541347   17.279411   21.321556 H          1 MOL1         0.0972
       5    C2      19.601870   18.991520   20.293638 C.3        1 MOL1        -0.1383
       6    H4      18.581072   18.802493   20.653938 H          1 MOL1         0.0961
       7    H5      19.498312   19.311745   19.247382 H          1 MOL1         0.0961
       8    C3      20.252725   20.145666   21.099011 C.3        1 MOL1        -0.1407
       9    H6      21.347561   20.056973   21.073966 H          1 MOL1         0.0961
      10    H7      20.021464   21.090364   20.587626 H          1 MOL1         0.0961
      11    C4      19.759505   20.277033   22.563245 C.3        1 MOL1        -0.1407
      12    H8      18.677109   20.461920   22.558736 H          1 MOL1         0.0961
      13    H9      20.223152   21.170584   23.003725 H          1 MOL1         0.0961
      14    C5      20.081487   19.052682   23.455763 C.3        1 MOL1        -0.1472
      15    H10     19.480222   18.192313   23.136464 H          1 MOL1         0.0961
      16    H11     21.134634   18.778889   23.309932 H          1 MOL1         0.0961
      17    C6      19.843837   19.305638   24.961924 C.3        1 MOL1         0.1190
      18    H12     20.421059   20.187431   25.256754 H          1 MOL1         0.0923
      19    C7      18.360110   19.567318   25.277449 C.3        1 MOL1        -0.2463
      20    H13     17.730576   18.732073   24.946192 H          1 MOL1         0.0972
      21    H14     18.003991   20.481332   24.788199 H          1 MOL1         0.0972
      22    H15     18.211765   19.698015   26.356435 H          1 MOL1         0.0972
      23    N1      20.360106   18.163720   25.792766 N.4        1 MOL1        -0.5974
      24    H16     21.357858   18.000006   25.630657 H          1 MOL1         0.3625
      25    H17     20.240741   18.345489   26.793350 H          1 MOL1         0.3625
      26    H18     19.866783   17.292635   25.580019 H          1 MOL1         0.3625
@<TRIPOS>BOND
    1     1     2    1
    2     1     3    1
    3     1     4    1
    4     1     5    1
    5     5     6    1
    6     5     7    1
    7     5     8    1
    8     8     9    1
    9     8    10    1
   10     8    11    1
   11    11    12    1
   12    11    13    1
   13    11    14    1
   14    14    15    1
   15    14    16    1
   16    14    17    1
   17    17    18    1
   18    17    19    1
   19    19    20    1
   20    19    21    1
   21    19    22    1
   22    17    23    1
   23    23    24    1
   24    23    25    1
   25    23    26    1
@<TRIPOS>SUBSTRUCTURE
       1 MOL1            1 RESIDUE      1      MOL     
@<SCITEGIC>MOL_PROPERTY
VM2 Rank
SciTegic.value.IntegerValue
52

@<SCITEGIC>MOL_PROPERTY
Conf_Id
SciTegic.value.IntegerValue
504

@<SCITEGIC>MOL_PROPERTY
Probability
SciTegic.value.DoubleValue
0.03

@<SCITEGIC>MOL_PROPERTY
Sum Probability
SciTegic.value.DoubleValue
99.53

@<SCITEGIC>MOL_PROPERTY
Delta G
SciTegic.value.DoubleValue
3.785

@<SCITEGIC>MOL_PROPERTY
G
SciTegic.value.DoubleValue
27.495

@<SCITEGIC>MOL_PROPERTY
E
SciTegic.value.DoubleValue
-5.432

@<SCITEGIC>MOL_PROPERTY
-TS
SciTegic.value.DoubleValue
32.927

@<SCITEGIC>MOL_PROPERTY
U+W
SciTegic.value.DoubleValue
-26.894

@<SCITEGIC>MOL_PROPERTY
U
SciTegic.value.DoubleValue
27.268

@<SCITEGIC>MOL_PROPERTY
W
SciTegic.value.DoubleValue
-54.162

@<SCITEGIC>MOL_PROPERTY
W(PB)
SciTegic.value.DoubleValue
-56.431

@<SCITEGIC>MOL_PROPERTY
W(SA)
SciTegic.value.DoubleValue
2.270

@<SCITEGIC>MOL_PROPERTY
Valence
SciTegic.value.DoubleValue
6.201

@<SCITEGIC>MOL_PROPERTY
Coulomb
SciTegic.value.DoubleValue
19.968

@<SCITEGIC>MOL_PROPERTY
VdW
SciTegic.value.DoubleValue
1.099

@<SCITEGIC>MOL_PROPERTY
VdW6
SciTegic.value.DoubleValue
-8.560

@<SCITEGIC>MOL_PROPERTY
VdW12
SciTegic.value.DoubleValue
9.659

@<SCITEGIC>MOL_PROPERTY
Bond
SciTegic.value.DoubleValue
0.266

@<SCITEGIC>MOL_PROPERTY
Angle
SciTegic.value.DoubleValue
1.902

@<SCITEGIC>MOL_PROPERTY
Pdih
SciTegic.value.DoubleValue
4.033

@<SCITEGIC>MOL_PROPERTY
Idih
SciTegic.value.DoubleValue
0.000

@<SCITEGIC>MOL_PROPERTY
Tether
SciTegic.value.DoubleValue
0.000

@<TRIPOS>MOLECULE
guest-s13_vm2.mol2 : vm2 ligand conformer 53
          26          25           1
SMALL
USER_CHARGES
 
@<TRIPOS>ATOM
       1    C1      21.140074   19.245425   19.780732 C.3        1 MOL1        -0.2398
       2    H1      21.285928   19.229172   18.692895 H          1 MOL1         0.0972
       3    H2      21.619722   20.152761   20.170203 H          1 MOL1         0.0972
       4    H3      21.662022   18.374614   20.196472 H          1 MOL1         0.0972
       5    C2      19.633530   19.221520   20.124860 C.3        1 MOL1        -0.1383
       6    H4      19.182961   18.292986   19.747262 H          1 MOL1         0.0961
       7    H5      19.135064   20.043517   19.592274 H          1 MOL1         0.0961
       8    C3      19.347765   19.364597   21.639143 C.3        1 MOL1        -0.1407
       9    H6      19.778913   20.309244   21.995966 H          1 MOL1         0.0961
      10    H7      18.261067   19.438300   21.783155 H          1 MOL1         0.0961
      11    C4      19.892245   18.183650   22.479919 C.3        1 MOL1        -0.1407
      12    H8      20.989814   18.177122   22.445309 H          1 MOL1         0.0961
      13    H9      19.563440   17.239232   22.024822 H          1 MOL1         0.0961
      14    C5      19.436195   18.198459   23.961219 C.3        1 MOL1        -0.1472
      15    H10     18.342102   18.124981   24.021447 H          1 MOL1         0.0961
      16    H11     19.819734   17.282407   24.429704 H          1 MOL1         0.0961
      17    C6      19.941823   19.425058   24.759291 C.3        1 MOL1         0.1190
      18    H12     20.802321   19.845858   24.230033 H          1 MOL1         0.0923
      19    C7      18.857579   20.511275   24.883492 C.3        1 MOL1        -0.2463
      20    H13     17.992510   20.142835   25.448937 H          1 MOL1         0.0972
      21    H14     18.501949   20.840880   23.901378 H          1 MOL1         0.0972
      22    H15     19.252026   21.392374   25.404401 H          1 MOL1         0.0972
      23    N1      20.438790   19.038015   26.125344 N.4        1 MOL1        -0.5974
      24    H16     20.800954   19.848804   26.635222 H          1 MOL1         0.3625
      25    H17     19.692070   18.628928   26.693431 H          1 MOL1         0.3625
      26    H18     21.195932   18.350652   26.070101 H          1 MOL1         0.3625
@<TRIPOS>BOND
    1     1     2    1
    2     1     3    1
    3     1     4    1
    4     1     5    1
    5     5     6    1
    6     5     7    1
    7     5     8    1
    8     8     9    1
    9     8    10    1
   10     8    11    1
   11    11    12    1
   12    11    13    1
   13    11    14    1
   14    14    15    1
   15    14    16    1
   16    14    17    1
   17    17    18    1
   18    17    19    1
   19    19    20    1
   20    19    21    1
   21    19    22    1
   22    17    23    1
   23    23    24    1
   24    23    25    1
   25    23    26    1
@<TRIPOS>SUBSTRUCTURE
       1 MOL1            1 RESIDUE      1      MOL     
@<SCITEGIC>MOL_PROPERTY
VM2 Rank
SciTegic.value.IntegerValue
53

@<SCITEGIC>MOL_PROPERTY
Conf_Id
SciTegic.value.IntegerValue
1279

@<SCITEGIC>MOL_PROPERTY
Probability
SciTegic.value.DoubleValue
0.03

@<SCITEGIC>MOL_PROPERTY
Sum Probability
SciTegic.value.DoubleValue
99.56

@<SCITEGIC>MOL_PROPERTY
Delta G
SciTegic.value.DoubleValue
3.790

@<SCITEGIC>MOL_PROPERTY
G
SciTegic.value.DoubleValue
27.500

@<SCITEGIC>MOL_PROPERTY
E
SciTegic.value.DoubleValue
-5.331

@<SCITEGIC>MOL_PROPERTY
-TS
SciTegic.value.DoubleValue
32.831

@<SCITEGIC>MOL_PROPERTY
U+W
SciTegic.value.DoubleValue
-26.793

@<SCITEGIC>MOL_PROPERTY
U
SciTegic.value.DoubleValue
27.317

@<SCITEGIC>MOL_PROPERTY
W
SciTegic.value.DoubleValue
-54.110

@<SCITEGIC>MOL_PROPERTY
W(PB)
SciTegic.value.DoubleValue
-56.371

@<SCITEGIC>MOL_PROPERTY
W(SA)
SciTegic.value.DoubleValue
2.261

@<SCITEGIC>MOL_PROPERTY
Valence
SciTegic.value.DoubleValue
6.336

@<SCITEGIC>MOL_PROPERTY
Coulomb
SciTegic.value.DoubleValue
19.872

@<SCITEGIC>MOL_PROPERTY
VdW
SciTegic.value.DoubleValue
1.109

@<SCITEGIC>MOL_PROPERTY
VdW6
SciTegic.value.DoubleValue
-8.501

@<SCITEGIC>MOL_PROPERTY
VdW12
SciTegic.value.DoubleValue
9.610

@<SCITEGIC>MOL_PROPERTY
Bond
SciTegic.value.DoubleValue
0.243

@<SCITEGIC>MOL_PROPERTY
Angle
SciTegic.value.DoubleValue
1.597

@<SCITEGIC>MOL_PROPERTY
Pdih
SciTegic.value.DoubleValue
4.496

@<SCITEGIC>MOL_PROPERTY
Idih
SciTegic.value.DoubleValue
0.000

@<SCITEGIC>MOL_PROPERTY
Tether
SciTegic.value.DoubleValue
0.000

@<TRIPOS>MOLECULE
guest-s13_vm2.mol2 : vm2 ligand conformer 54
          26          25           1
SMALL
USER_CHARGES
 
@<TRIPOS>ATOM
       1    C1      20.026681   18.600788   19.344944 C.3        1 MOL1        -0.2398
       2    H1      19.187021   19.306251   19.355535 H          1 MOL1         0.0972
       3    H2      20.499509   18.668250   18.356599 H          1 MOL1         0.0972
       4    H3      19.624680   17.585284   19.455189 H          1 MOL1         0.0972
       5    C2      21.053299   18.916246   20.456858 C.3        1 MOL1        -0.1383
       6    H4      21.415486   19.947959   20.346312 H          1 MOL1         0.0961
       7    H5      21.929370   18.267230   20.318420 H          1 MOL1         0.0961
       8    C3      20.502112   18.703245   21.887802 C.3        1 MOL1        -0.1407
       9    H6      20.114356   17.679451   21.981500 H          1 MOL1         0.0961
      10    H7      21.346533   18.791964   22.581534 H          1 MOL1         0.0961
      11    C4      19.405443   19.723909   22.283911 C.3        1 MOL1        -0.1407
      12    H8      18.618993   19.726986   21.518837 H          1 MOL1         0.0961
      13    H9      19.832508   20.736244   22.285306 H          1 MOL1         0.0961
      14    C5      18.722961   19.450257   23.650381 C.3        1 MOL1        -0.1472
      15    H10     17.907766   20.178980   23.753133 H          1 MOL1         0.0961
      16    H11     18.241416   18.463513   23.642215 H          1 MOL1         0.0961
      17    C6      19.653698   19.573319   24.880415 C.3        1 MOL1         0.1190
      18    H12     20.342223   20.406836   24.710754 H          1 MOL1         0.0923
      19    C7      18.833292   19.877136   26.145137 C.3        1 MOL1        -0.2463
      20    H13     18.278911   20.817529   26.035130 H          1 MOL1         0.0972
      21    H14     19.489094   19.980528   27.018462 H          1 MOL1         0.0972
      22    H15     18.111750   19.076726   26.351859 H          1 MOL1         0.0972
      23    N1      20.490514   18.343100   25.104552 N.4        1 MOL1        -0.5974
      24    H16     21.055847   18.118733   24.282867 H          1 MOL1         0.3625
      25    H17     21.129589   18.464776   25.895330 H          1 MOL1         0.3625
      26    H18     19.905742   17.528097   25.307399 H          1 MOL1         0.3625
@<TRIPOS>BOND
    1     1     2    1
    2     1     3    1
    3     1     4    1
    4     1     5    1
    5     5     6    1
    6     5     7    1
    7     5     8    1
    8     8     9    1
    9     8    10    1
   10     8    11    1
   11    11    12    1
   12    11    13    1
   13    11    14    1
   14    14    15    1
   15    14    16    1
   16    14    17    1
   17    17    18    1
   18    17    19    1
   19    19    20    1
   20    19    21    1
   21    19    22    1
   22    17    23    1
   23    23    24    1
   24    23    25    1
   25    23    26    1
@<TRIPOS>SUBSTRUCTURE
       1 MOL1            1 RESIDUE      1      MOL     
@<SCITEGIC>MOL_PROPERTY
VM2 Rank
SciTegic.value.IntegerValue
54

@<SCITEGIC>MOL_PROPERTY
Conf_Id
SciTegic.value.IntegerValue
864

@<SCITEGIC>MOL_PROPERTY
Probability
SciTegic.value.DoubleValue
0.03

@<SCITEGIC>MOL_PROPERTY
Sum Probability
SciTegic.value.DoubleValue
99.59

@<SCITEGIC>MOL_PROPERTY
Delta G
SciTegic.value.DoubleValue
3.793

@<SCITEGIC>MOL_PROPERTY
G
SciTegic.value.DoubleValue
27.503

@<SCITEGIC>MOL_PROPERTY
E
SciTegic.value.DoubleValue
-5.080

@<SCITEGIC>MOL_PROPERTY
-TS
SciTegic.value.DoubleValue
32.583

@<SCITEGIC>MOL_PROPERTY
U+W
SciTegic.value.DoubleValue
-26.541

@<SCITEGIC>MOL_PROPERTY
U
SciTegic.value.DoubleValue
27.399

@<SCITEGIC>MOL_PROPERTY
W
SciTegic.value.DoubleValue
-53.941

@<SCITEGIC>MOL_PROPERTY
W(PB)
SciTegic.value.DoubleValue
-56.244

@<SCITEGIC>MOL_PROPERTY
W(SA)
SciTegic.value.DoubleValue
2.303

@<SCITEGIC>MOL_PROPERTY
Valence
SciTegic.value.DoubleValue
5.205

@<SCITEGIC>MOL_PROPERTY
Coulomb
SciTegic.value.DoubleValue
21.096

@<SCITEGIC>MOL_PROPERTY
VdW
SciTegic.value.DoubleValue
1.098

@<SCITEGIC>MOL_PROPERTY
VdW6
SciTegic.value.DoubleValue
-8.389

@<SCITEGIC>MOL_PROPERTY
VdW12
SciTegic.value.DoubleValue
9.487

@<SCITEGIC>MOL_PROPERTY
Bond
SciTegic.value.DoubleValue
0.270

@<SCITEGIC>MOL_PROPERTY
Angle
SciTegic.value.DoubleValue
1.912

@<SCITEGIC>MOL_PROPERTY
Pdih
SciTegic.value.DoubleValue
3.023

@<SCITEGIC>MOL_PROPERTY
Idih
SciTegic.value.DoubleValue
0.000

@<SCITEGIC>MOL_PROPERTY
Tether
SciTegic.value.DoubleValue
0.000

@<TRIPOS>MOLECULE
guest-s13_vm2.mol2 : vm2 ligand conformer 55
          26          25           1
SMALL
USER_CHARGES
 
@<TRIPOS>ATOM
       1    C1      19.884935   20.081129   19.770942 C.3        1 MOL1        -0.2398
       2    H1      20.001472   20.223255   18.688747 H          1 MOL1         0.0972
       3    H2      18.921314   20.517202   20.064632 H          1 MOL1         0.0972
       4    H3      20.683861   20.647459   20.265050 H          1 MOL1         0.0972
       5    C2      19.947265   18.578681   20.128339 C.3        1 MOL1        -0.1383
       6    H4      20.930425   18.172406   19.852516 H          1 MOL1         0.0961
       7    H5      19.209672   18.039610   19.517468 H          1 MOL1         0.0961
       8    C3      19.659993   18.290843   21.621530 C.3        1 MOL1        -0.1407
       9    H6      18.671809   18.688712   21.881387 H          1 MOL1         0.0961
      10    H7      19.594769   17.202541   21.757712 H          1 MOL1         0.0961
      11    C4      20.746947   18.850354   22.575850 C.3        1 MOL1        -0.1407
      12    H8      20.850799   19.936983   22.460021 H          1 MOL1         0.0961
      13    H9      21.713814   18.420255   22.280083 H          1 MOL1         0.0961
      14    C5      20.491791   18.506386   24.067607 C.3        1 MOL1        -0.1472
      15    H10     19.918671   17.573601   24.151949 H          1 MOL1         0.0961
      16    H11     21.464216   18.302201   24.534946 H          1 MOL1         0.0961
      17    C6      19.809443   19.628614   24.886780 C.3        1 MOL1         0.1190
      18    H12     20.436538   20.523392   24.825440 H          1 MOL1         0.0923
      19    C7      18.410199   19.988117   24.359196 C.3        1 MOL1        -0.2463
      20    H13     17.926739   20.723398   25.014085 H          1 MOL1         0.0972
      21    H14     17.765016   19.102401   24.306551 H          1 MOL1         0.0972
      22    H15     18.470059   20.437093   23.361059 H          1 MOL1         0.0972
      23    N1      19.737427   19.263877   26.343756 N.4        1 MOL1        -0.5974
      24    H16     19.331200   20.021835   26.899520 H          1 MOL1         0.3625
      25    H17     19.159574   18.432493   26.493226 H          1 MOL1         0.3625
      26    H18     20.665170   19.067206   26.730040 H          1 MOL1         0.3625
@<TRIPOS>BOND
    1     1     2    1
    2     1     3    1
    3     1     4    1
    4     1     5    1
    5     5     6    1
    6     5     7    1
    7     5     8    1
    8     8     9    1
    9     8    10    1
   10     8    11    1
   11    11    12    1
   12    11    13    1
   13    11    14    1
   14    14    15    1
   15    14    16    1
   16    14    17    1
   17    17    18    1
   18    17    19    1
   19    19    20    1
   20    19    21    1
   21    19    22    1
   22    17    23    1
   23    23    24    1
   24    23    25    1
   25    23    26    1
@<TRIPOS>SUBSTRUCTURE
       1 MOL1            1 RESIDUE      1      MOL     
@<SCITEGIC>MOL_PROPERTY
VM2 Rank
SciTegic.value.IntegerValue
55

@<SCITEGIC>MOL_PROPERTY
Conf_Id
SciTegic.value.IntegerValue
783

@<SCITEGIC>MOL_PROPERTY
Probability
SciTegic.value.DoubleValue
0.03

@<SCITEGIC>MOL_PROPERTY
Sum Probability
SciTegic.value.DoubleValue
99.62

@<SCITEGIC>MOL_PROPERTY
Delta G
SciTegic.value.DoubleValue
3.823

@<SCITEGIC>MOL_PROPERTY
G
SciTegic.value.DoubleValue
27.532

@<SCITEGIC>MOL_PROPERTY
E
SciTegic.value.DoubleValue
-5.392

@<SCITEGIC>MOL_PROPERTY
-TS
SciTegic.value.DoubleValue
32.925

@<SCITEGIC>MOL_PROPERTY
U+W
SciTegic.value.DoubleValue
-26.854

@<SCITEGIC>MOL_PROPERTY
U
SciTegic.value.DoubleValue
27.193

@<SCITEGIC>MOL_PROPERTY
W
SciTegic.value.DoubleValue
-54.047

@<SCITEGIC>MOL_PROPERTY
W(PB)
SciTegic.value.DoubleValue
-56.289

@<SCITEGIC>MOL_PROPERTY
W(SA)
SciTegic.value.DoubleValue
2.242

@<SCITEGIC>MOL_PROPERTY
Valence
SciTegic.value.DoubleValue
6.324

@<SCITEGIC>MOL_PROPERTY
Coulomb
SciTegic.value.DoubleValue
19.778

@<SCITEGIC>MOL_PROPERTY
VdW
SciTegic.value.DoubleValue
1.091

@<SCITEGIC>MOL_PROPERTY
VdW6
SciTegic.value.DoubleValue
-8.627

@<SCITEGIC>MOL_PROPERTY
VdW12
SciTegic.value.DoubleValue
9.718

@<SCITEGIC>MOL_PROPERTY
Bond
SciTegic.value.DoubleValue
0.275

@<SCITEGIC>MOL_PROPERTY
Angle
SciTegic.value.DoubleValue
1.904

@<SCITEGIC>MOL_PROPERTY
Pdih
SciTegic.value.DoubleValue
4.144

@<SCITEGIC>MOL_PROPERTY
Idih
SciTegic.value.DoubleValue
0.000

@<SCITEGIC>MOL_PROPERTY
Tether
SciTegic.value.DoubleValue
0.000

@<TRIPOS>MOLECULE
guest-s13_vm2.mol2 : vm2 ligand conformer 56
          26          25           1
SMALL
USER_CHARGES
 
@<TRIPOS>ATOM
       1    C1      20.042163   17.661382   20.204671 C.3        1 MOL1        -0.2398
       2    H1      20.234892   17.270241   19.197307 H          1 MOL1         0.0972
       3    H2      20.834196   17.282030   20.861869 H          1 MOL1         0.0972
       4    H3      19.083830   17.249566   20.546711 H          1 MOL1         0.0972
       5    C2      20.008729   19.206559   20.186946 C.3        1 MOL1        -0.1383
       6    H4      19.288657   19.535465   19.424640 H          1 MOL1         0.0961
       7    H5      20.987591   19.594866   19.872661 H          1 MOL1         0.0961
       8    C3      19.609245   19.827551   21.547084 C.3        1 MOL1        -0.1407
       9    H6      19.487848   20.910894   21.410195 H          1 MOL1         0.0961
      10    H7      18.624375   19.445468   21.839979 H          1 MOL1         0.0961
      11    C4      20.652108   19.576540   22.667121 C.3        1 MOL1        -0.1407
      12    H8      21.621115   19.960443   22.319546 H          1 MOL1         0.0961
      13    H9      20.794942   18.501638   22.829663 H          1 MOL1         0.0961
      14    C5      20.302475   20.281146   24.008002 C.3        1 MOL1        -0.1472
      15    H10     21.238480   20.611196   24.477537 H          1 MOL1         0.0961
      16    H11     19.738766   21.202486   23.811148 H          1 MOL1         0.0961
      17    C6      19.539032   19.424732   25.048921 C.3        1 MOL1         0.1190
      18    H12     19.357574   20.063975   25.918537 H          1 MOL1         0.0923
      19    C7      18.172030   18.939961   24.539802 C.3        1 MOL1        -0.2463
      20    H13     17.580440   19.777828   24.150731 H          1 MOL1         0.0972
      21    H14     17.600938   18.480368   25.355709 H          1 MOL1         0.0972
      22    H15     18.281449   18.190794   23.746750 H          1 MOL1         0.0972
      23    N1      20.362217   18.270129   25.551452 N.4        1 MOL1        -0.5974
      24    H16     20.574365   17.609011   24.800494 H          1 MOL1         0.3625
      25    H17     21.253178   18.586851   25.944300 H          1 MOL1         0.3625
      26    H18     19.871264   17.753050   26.286291 H          1 MOL1         0.3625
@<TRIPOS>BOND
    1     1     2    1
    2     1     3    1
    3     1     4    1
    4     1     5    1
    5     5     6    1
    6     5     7    1
    7     5     8    1
    8     8     9    1
    9     8    10    1
   10     8    11    1
   11    11    12    1
   12    11    13    1
   13    11    14    1
   14    14    15    1
   15    14    16    1
   16    14    17    1
   17    17    18    1
   18    17    19    1
   19    19    20    1
   20    19    21    1
   21    19    22    1
   22    17    23    1
   23    23    24    1
   24    23    25    1
   25    23    26    1
@<TRIPOS>SUBSTRUCTURE
       1 MOL1            1 RESIDUE      1      MOL     
@<SCITEGIC>MOL_PROPERTY
VM2 Rank
SciTegic.value.IntegerValue
56

@<SCITEGIC>MOL_PROPERTY
Conf_Id
SciTegic.value.IntegerValue
530

@<SCITEGIC>MOL_PROPERTY
Probability
SciTegic.value.DoubleValue
0.03

@<SCITEGIC>MOL_PROPERTY
Sum Probability
SciTegic.value.DoubleValue
99.64

@<SCITEGIC>MOL_PROPERTY
Delta G
SciTegic.value.DoubleValue
3.836

@<SCITEGIC>MOL_PROPERTY
G
SciTegic.value.DoubleValue
27.546

@<SCITEGIC>MOL_PROPERTY
E
SciTegic.value.DoubleValue
-5.435

@<SCITEGIC>MOL_PROPERTY
-TS
SciTegic.value.DoubleValue
32.980

@<SCITEGIC>MOL_PROPERTY
U+W
SciTegic.value.DoubleValue
-26.896

@<SCITEGIC>MOL_PROPERTY
U
SciTegic.value.DoubleValue
27.552

@<SCITEGIC>MOL_PROPERTY
W
SciTegic.value.DoubleValue
-54.449

@<SCITEGIC>MOL_PROPERTY
W(PB)
SciTegic.value.DoubleValue
-56.689

@<SCITEGIC>MOL_PROPERTY
W(SA)
SciTegic.value.DoubleValue
2.240

@<SCITEGIC>MOL_PROPERTY
Valence
SciTegic.value.DoubleValue
6.310

@<SCITEGIC>MOL_PROPERTY
Coulomb
SciTegic.value.DoubleValue
20.199

@<SCITEGIC>MOL_PROPERTY
VdW
SciTegic.value.DoubleValue
1.044

@<SCITEGIC>MOL_PROPERTY
VdW6
SciTegic.value.DoubleValue
-9.081

@<SCITEGIC>MOL_PROPERTY
VdW12
SciTegic.value.DoubleValue
10.124

@<SCITEGIC>MOL_PROPERTY
Bond
SciTegic.value.DoubleValue
0.308

@<SCITEGIC>MOL_PROPERTY
Angle
SciTegic.value.DoubleValue
2.043

@<SCITEGIC>MOL_PROPERTY
Pdih
SciTegic.value.DoubleValue
3.958

@<SCITEGIC>MOL_PROPERTY
Idih
SciTegic.value.DoubleValue
0.000

@<SCITEGIC>MOL_PROPERTY
Tether
SciTegic.value.DoubleValue
0.000

@<TRIPOS>MOLECULE
guest-s13_vm2.mol2 : vm2 ligand conformer 57
          26          25           1
SMALL
USER_CHARGES
 
@<TRIPOS>ATOM
       1    C1      19.131220   19.716102   20.196534 C.3        1 MOL1        -0.2398
       2    H1      18.556059   19.718374   19.261629 H          1 MOL1         0.0972
       3    H2      18.411204   19.688617   21.023662 H          1 MOL1         0.0972
       4    H3      19.690169   20.659301   20.249151 H          1 MOL1         0.0972
       5    C2      20.083182   18.500953   20.241031 C.3        1 MOL1        -0.1383
       6    H4      20.670929   18.479463   19.312677 H          1 MOL1         0.0961
       7    H5      19.491215   17.575072   20.247409 H          1 MOL1         0.0961
       8    C3      21.062125   18.499557   21.442988 C.3        1 MOL1        -0.1407
       9    H6      21.709574   17.617683   21.340303 H          1 MOL1         0.0961
      10    H7      21.733409   19.367294   21.384006 H          1 MOL1         0.0961
      11    C4      20.378886   18.438730   22.834184 C.3        1 MOL1        -0.1407
      12    H8      21.004414   17.824235   23.495008 H          1 MOL1         0.0961
      13    H9      19.418648   17.914225   22.747756 H          1 MOL1         0.0961
      14    C5      20.194512   19.837233   23.486371 C.3        1 MOL1        -0.1472
      15    H10     21.178380   20.312284   23.593737 H          1 MOL1         0.0961
      16    H11     19.620666   20.493029   22.822228 H          1 MOL1         0.0961
      17    C6      19.508196   19.823094   24.872668 C.3        1 MOL1         0.1190
      18    H12     19.494598   20.854579   25.238288 H          1 MOL1         0.0923
      19    C7      18.048974   19.341803   24.789259 C.3        1 MOL1        -0.2463
      20    H13     17.489932   19.919066   24.042416 H          1 MOL1         0.0972
      21    H14     17.546333   19.473605   25.755247 H          1 MOL1         0.0972
      22    H15     17.985347   18.280588   24.521577 H          1 MOL1         0.0972
      23    N1      20.280905   19.030529   25.890965 N.4        1 MOL1        -0.5974
      24    H16     21.240988   19.373920   25.984442 H          1 MOL1         0.3625
      25    H17     19.845464   19.084459   26.816083 H          1 MOL1         0.3625
      26    H18     20.330616   18.042099   25.632487 H          1 MOL1         0.3625
@<TRIPOS>BOND
    1     1     2    1
    2     1     3    1
    3     1     4    1
    4     1     5    1
    5     5     6    1
    6     5     7    1
    7     5     8    1
    8     8     9    1
    9     8    10    1
   10     8    11    1
   11    11    12    1
   12    11    13    1
   13    11    14    1
   14    14    15    1
   15    14    16    1
   16    14    17    1
   17    17    18    1
   18    17    19    1
   19    19    20    1
   20    19    21    1
   21    19    22    1
   22    17    23    1
   23    23    24    1
   24    23    25    1
   25    23    26    1
@<TRIPOS>SUBSTRUCTURE
       1 MOL1            1 RESIDUE      1      MOL     
@<SCITEGIC>MOL_PROPERTY
VM2 Rank
SciTegic.value.IntegerValue
57

@<SCITEGIC>MOL_PROPERTY
Conf_Id
SciTegic.value.IntegerValue
1247

@<SCITEGIC>MOL_PROPERTY
Probability
SciTegic.value.DoubleValue
0.03

@<SCITEGIC>MOL_PROPERTY
Sum Probability
SciTegic.value.DoubleValue
99.67

@<SCITEGIC>MOL_PROPERTY
Delta G
SciTegic.value.DoubleValue
3.880

@<SCITEGIC>MOL_PROPERTY
G
SciTegic.value.DoubleValue
27.590

@<SCITEGIC>MOL_PROPERTY
E
SciTegic.value.DoubleValue
-5.459

@<SCITEGIC>MOL_PROPERTY
-TS
SciTegic.value.DoubleValue
33.049

@<SCITEGIC>MOL_PROPERTY
U+W
SciTegic.value.DoubleValue
-26.921

@<SCITEGIC>MOL_PROPERTY
U
SciTegic.value.DoubleValue
27.276

@<SCITEGIC>MOL_PROPERTY
W
SciTegic.value.DoubleValue
-54.197

@<SCITEGIC>MOL_PROPERTY
W(PB)
SciTegic.value.DoubleValue
-56.420

@<SCITEGIC>MOL_PROPERTY
W(SA)
SciTegic.value.DoubleValue
2.223

@<SCITEGIC>MOL_PROPERTY
Valence
SciTegic.value.DoubleValue
6.240

@<SCITEGIC>MOL_PROPERTY
Coulomb
SciTegic.value.DoubleValue
19.962

@<SCITEGIC>MOL_PROPERTY
VdW
SciTegic.value.DoubleValue
1.074

@<SCITEGIC>MOL_PROPERTY
VdW6
SciTegic.value.DoubleValue
-9.126

@<SCITEGIC>MOL_PROPERTY
VdW12
SciTegic.value.DoubleValue
10.201

@<SCITEGIC>MOL_PROPERTY
Bond
SciTegic.value.DoubleValue
0.305

@<SCITEGIC>MOL_PROPERTY
Angle
SciTegic.value.DoubleValue
1.933

@<SCITEGIC>MOL_PROPERTY
Pdih
SciTegic.value.DoubleValue
4.002

@<SCITEGIC>MOL_PROPERTY
Idih
SciTegic.value.DoubleValue
0.000

@<SCITEGIC>MOL_PROPERTY
Tether
SciTegic.value.DoubleValue
0.000

@<TRIPOS>MOLECULE
guest-s13_vm2.mol2 : vm2 ligand conformer 58
          26          25           1
SMALL
USER_CHARGES
 
@<TRIPOS>ATOM
       1    C1      21.320417   18.349590   20.539940 C.3        1 MOL1        -0.2398
       2    H1      20.982755   17.328638   20.760092 H          1 MOL1         0.0972
       3    H2      22.090772   18.287403   19.760478 H          1 MOL1         0.0972
       4    H3      21.795806   18.762679   21.438155 H          1 MOL1         0.0972
       5    C2      20.146348   19.235119   20.068366 C.3        1 MOL1        -0.1383
       6    H4      19.803865   18.873651   19.088666 H          1 MOL1         0.0961
       7    H5      20.506412   20.260509   19.905046 H          1 MOL1         0.0961
       8    C3      18.934985   19.258338   21.035338 C.3        1 MOL1        -0.1407
       9    H6      18.152515   19.873366   20.569552 H          1 MOL1         0.0961
      10    H7      18.504511   18.251570   21.126693 H          1 MOL1         0.0961
      11    C4      19.239217   19.844025   22.438987 C.3        1 MOL1        -0.1407
      12    H8      18.358400   20.410930   22.768074 H          1 MOL1         0.0961
      13    H9      20.062801   20.568366   22.373689 H          1 MOL1         0.0961
      14    C5      19.556497   18.758311   23.500650 C.3        1 MOL1        -0.1472
      15    H10     18.668887   18.131840   23.660076 H          1 MOL1         0.0961
      16    H11     20.335435   18.089954   23.117382 H          1 MOL1         0.0961
      17    C6      20.033556   19.333756   24.853790 C.3        1 MOL1         0.1190
      18    H12     20.895572   19.981249   24.665742 H          1 MOL1         0.0923
      19    C7      18.941572   20.167080   25.548572 C.3        1 MOL1        -0.2463
      20    H13     19.288164   20.517851   26.528442 H          1 MOL1         0.0972
      21    H14     18.029297   19.577186   25.701716 H          1 MOL1         0.0972
      22    H15     18.682701   21.054973   24.960254 H          1 MOL1         0.0972
      23    N1      20.515408   18.241781   25.768357 N.4        1 MOL1        -0.5974
      24    H16     19.763063   17.587204   25.998597 H          1 MOL1         0.3625
      25    H17     21.274551   17.701269   25.343984 H          1 MOL1         0.3625
      26    H18     20.869472   18.622086   26.650666 H          1 MOL1         0.3625
@<TRIPOS>BOND
    1     1     2    1
    2     1     3    1
    3     1     4    1
    4     1     5    1
    5     5     6    1
    6     5     7    1
    7     5     8    1
    8     8     9    1
    9     8    10    1
   10     8    11    1
   11    11    12    1
   12    11    13    1
   13    11    14    1
   14    14    15    1
   15    14    16    1
   16    14    17    1
   17    17    18    1
   18    17    19    1
   19    19    20    1
   20    19    21    1
   21    19    22    1
   22    17    23    1
   23    23    24    1
   24    23    25    1
   25    23    26    1
@<TRIPOS>SUBSTRUCTURE
       1 MOL1            1 RESIDUE      1      MOL     
@<SCITEGIC>MOL_PROPERTY
VM2 Rank
SciTegic.value.IntegerValue
58

@<SCITEGIC>MOL_PROPERTY
Conf_Id
SciTegic.value.IntegerValue
158

@<SCITEGIC>MOL_PROPERTY
Probability
SciTegic.value.DoubleValue
0.03

@<SCITEGIC>MOL_PROPERTY
Sum Probability
SciTegic.value.DoubleValue
99.69

@<SCITEGIC>MOL_PROPERTY
Delta G
SciTegic.value.DoubleValue
3.882

@<SCITEGIC>MOL_PROPERTY
G
SciTegic.value.DoubleValue
27.591

@<SCITEGIC>MOL_PROPERTY
E
SciTegic.value.DoubleValue
-5.381

@<SCITEGIC>MOL_PROPERTY
-TS
SciTegic.value.DoubleValue
32.973

@<SCITEGIC>MOL_PROPERTY
U+W
SciTegic.value.DoubleValue
-26.843

@<SCITEGIC>MOL_PROPERTY
U
SciTegic.value.DoubleValue
27.458

@<SCITEGIC>MOL_PROPERTY
W
SciTegic.value.DoubleValue
-54.301

@<SCITEGIC>MOL_PROPERTY
W(PB)
SciTegic.value.DoubleValue
-56.574

@<SCITEGIC>MOL_PROPERTY
W(SA)
SciTegic.value.DoubleValue
2.272

@<SCITEGIC>MOL_PROPERTY
Valence
SciTegic.value.DoubleValue
6.292

@<SCITEGIC>MOL_PROPERTY
Coulomb
SciTegic.value.DoubleValue
20.019

@<SCITEGIC>MOL_PROPERTY
VdW
SciTegic.value.DoubleValue
1.147

@<SCITEGIC>MOL_PROPERTY
VdW6
SciTegic.value.DoubleValue
-8.552

@<SCITEGIC>MOL_PROPERTY
VdW12
SciTegic.value.DoubleValue
9.700

@<SCITEGIC>MOL_PROPERTY
Bond
SciTegic.value.DoubleValue
0.273

@<SCITEGIC>MOL_PROPERTY
Angle
SciTegic.value.DoubleValue
1.838

@<SCITEGIC>MOL_PROPERTY
Pdih
SciTegic.value.DoubleValue
4.180

@<SCITEGIC>MOL_PROPERTY
Idih
SciTegic.value.DoubleValue
0.000

@<SCITEGIC>MOL_PROPERTY
Tether
SciTegic.value.DoubleValue
0.000

@<TRIPOS>MOLECULE
guest-s13_vm2.mol2 : vm2 ligand conformer 59
          26          25           1
SMALL
USER_CHARGES
 
@<TRIPOS>ATOM
       1    C1      19.801428   20.416144   20.748197 C.3        1 MOL1        -0.2398
       2    H1      20.704591   20.986863   21.000161 H          1 MOL1         0.0972
       3    H2      19.379513   20.850166   19.832489 H          1 MOL1         0.0972
       4    H3      19.068219   20.566323   21.546966 H          1 MOL1         0.0972
       5    C2      20.131702   18.921103   20.530486 C.3        1 MOL1        -0.1383
       6    H4      20.784298   18.848037   19.649169 H          1 MOL1         0.0961
       7    H5      19.220127   18.362228   20.277181 H          1 MOL1         0.0961
       8    C3      20.857537   18.254654   21.728018 C.3        1 MOL1        -0.1407
       9    H6      21.517043   17.473611   21.324898 H          1 MOL1         0.0961
      10    H7      21.527648   18.974094   22.216870 H          1 MOL1         0.0961
      11    C4      19.924614   17.572819   22.765401 C.3        1 MOL1        -0.1407
      12    H8      20.545346   17.025766   23.487577 H          1 MOL1         0.0961
      13    H9      19.325870   16.805379   22.255858 H          1 MOL1         0.0961
      14    C5      18.967961   18.518033   23.536547 C.3        1 MOL1        -0.1472
      15    H10     18.220363   18.917356   22.840450 H          1 MOL1         0.0961
      16    H11     18.403310   17.929017   24.271348 H          1 MOL1         0.0961
      17    C6      19.680793   19.682568   24.259345 C.3        1 MOL1         0.1190
      18    H12     20.246678   20.253134   23.517063 H          1 MOL1         0.0923
      19    C7      18.651064   20.623260   24.904562 C.3        1 MOL1        -0.2463
      20    H13     18.056675   20.100287   25.664205 H          1 MOL1         0.0972
      21    H14     17.963564   21.025138   24.149928 H          1 MOL1         0.0972
      22    H15     19.149976   21.473152   25.386324 H          1 MOL1         0.0972
      23    N1      20.672900   19.199419   25.281444 N.4        1 MOL1        -0.5974
      24    H16     21.159576   19.980265   25.730558 H          1 MOL1         0.3625
      25    H17     20.214437   18.658573   26.019331 H          1 MOL1         0.3625
      26    H18     21.382893   18.598528   24.854400 H          1 MOL1         0.3625
@<TRIPOS>BOND
    1     1     2    1
    2     1     3    1
    3     1     4    1
    4     1     5    1
    5     5     6    1
    6     5     7    1
    7     5     8    1
    8     8     9    1
    9     8    10    1
   10     8    11    1
   11    11    12    1
   12    11    13    1
   13    11    14    1
   14    14    15    1
   15    14    16    1
   16    14    17    1
   17    17    18    1
   18    17    19    1
   19    19    20    1
   20    19    21    1
   21    19    22    1
   22    17    23    1
   23    23    24    1
   24    23    25    1
   25    23    26    1
@<TRIPOS>SUBSTRUCTURE
       1 MOL1            1 RESIDUE      1      MOL     
@<SCITEGIC>MOL_PROPERTY
VM2 Rank
SciTegic.value.IntegerValue
59

@<SCITEGIC>MOL_PROPERTY
Conf_Id
SciTegic.value.IntegerValue
537

@<SCITEGIC>MOL_PROPERTY
Probability
SciTegic.value.DoubleValue
0.02

@<SCITEGIC>MOL_PROPERTY
Sum Probability
SciTegic.value.DoubleValue
99.72

@<SCITEGIC>MOL_PROPERTY
Delta G
SciTegic.value.DoubleValue
3.940

@<SCITEGIC>MOL_PROPERTY
G
SciTegic.value.DoubleValue
27.650

@<SCITEGIC>MOL_PROPERTY
E
SciTegic.value.DoubleValue
-5.738

@<SCITEGIC>MOL_PROPERTY
-TS
SciTegic.value.DoubleValue
33.388

@<SCITEGIC>MOL_PROPERTY
U+W
SciTegic.value.DoubleValue
-27.200

@<SCITEGIC>MOL_PROPERTY
U
SciTegic.value.DoubleValue
26.996

@<SCITEGIC>MOL_PROPERTY
W
SciTegic.value.DoubleValue
-54.197

@<SCITEGIC>MOL_PROPERTY
W(PB)
SciTegic.value.DoubleValue
-56.396

@<SCITEGIC>MOL_PROPERTY
W(SA)
SciTegic.value.DoubleValue
2.199

@<SCITEGIC>MOL_PROPERTY
Valence
SciTegic.value.DoubleValue
6.014

@<SCITEGIC>MOL_PROPERTY
Coulomb
SciTegic.value.DoubleValue
20.609

@<SCITEGIC>MOL_PROPERTY
VdW
SciTegic.value.DoubleValue
0.374

@<SCITEGIC>MOL_PROPERTY
VdW6
SciTegic.value.DoubleValue
-10.069

@<SCITEGIC>MOL_PROPERTY
VdW12
SciTegic.value.DoubleValue
10.443

@<SCITEGIC>MOL_PROPERTY
Bond
SciTegic.value.DoubleValue
0.292

@<SCITEGIC>MOL_PROPERTY
Angle
SciTegic.value.DoubleValue
2.200

@<SCITEGIC>MOL_PROPERTY
Pdih
SciTegic.value.DoubleValue
3.522

@<SCITEGIC>MOL_PROPERTY
Idih
SciTegic.value.DoubleValue
0.000

@<SCITEGIC>MOL_PROPERTY
Tether
SciTegic.value.DoubleValue
0.000

@<TRIPOS>MOLECULE
guest-s13_vm2.mol2 : vm2 ligand conformer 60
          26          25           1
SMALL
USER_CHARGES
 
@<TRIPOS>ATOM
       1    C1      20.624763   19.952014   19.972502 C.3        1 MOL1        -0.2398
       2    H1      20.253968   20.605993   19.172676 H          1 MOL1         0.0972
       3    H2      20.860040   20.584659   20.835212 H          1 MOL1         0.0972
       4    H3      21.560162   19.496358   19.622583 H          1 MOL1         0.0972
       5    C2      19.576360   18.867240   20.313054 C.3        1 MOL1        -0.1383
       6    H4      19.370721   18.296905   19.396351 H          1 MOL1         0.0961
       7    H5      18.623082   19.333372   20.598624 H          1 MOL1         0.0961
       8    C3      20.044935   17.879879   21.412973 C.3        1 MOL1        -0.1407
       9    H6      19.642217   16.886118   21.172770 H          1 MOL1         0.0961
      10    H7      21.137769   17.769867   21.385117 H          1 MOL1         0.0961
      11    C4      19.580089   18.235442   22.848904 C.3        1 MOL1        -0.1407
      12    H8      19.899393   17.425306   23.517223 H          1 MOL1         0.0961
      13    H9      18.482308   18.241757   22.876060 H          1 MOL1         0.0961
      14    C5      20.126519   19.588525   23.376431 C.3        1 MOL1        -0.1472
      15    H10     21.210326   19.633190   23.207677 H          1 MOL1         0.0961
      16    H11     19.688341   20.408467   22.794216 H          1 MOL1         0.0961
      17    C6      19.850482   19.861337   24.874011 C.3        1 MOL1         0.1190
      18    H12     20.280802   20.839404   25.110724 H          1 MOL1         0.0923
      19    C7      18.344106   19.928660   25.180412 C.3        1 MOL1        -0.2463
      20    H13     17.860513   18.953015   25.051263 H          1 MOL1         0.0972
      21    H14     17.844340   20.650225   24.522278 H          1 MOL1         0.0972
      22    H15     18.176998   20.251314   26.215365 H          1 MOL1         0.0972
      23    N1      20.540746   18.874903   25.775713 N.4        1 MOL1        -0.5974
      24    H16     20.400099   19.108290   26.762693 H          1 MOL1         0.3625
      25    H17     20.185482   17.926705   25.631420 H          1 MOL1         0.3625
      26    H18     21.550541   18.854912   25.607356 H          1 MOL1         0.3625
@<TRIPOS>BOND
    1     1     2    1
    2     1     3    1
    3     1     4    1
    4     1     5    1
    5     5     6    1
    6     5     7    1
    7     5     8    1
    8     8     9    1
    9     8    10    1
   10     8    11    1
   11    11    12    1
   12    11    13    1
   13    11    14    1
   14    14    15    1
   15    14    16    1
   16    14    17    1
   17    17    18    1
   18    17    19    1
   19    19    20    1
   20    19    21    1
   21    19    22    1
   22    17    23    1
   23    23    24    1
   24    23    25    1
   25    23    26    1
@<TRIPOS>SUBSTRUCTURE
       1 MOL1            1 RESIDUE      1      MOL     
@<SCITEGIC>MOL_PROPERTY
VM2 Rank
SciTegic.value.IntegerValue
60

@<SCITEGIC>MOL_PROPERTY
Conf_Id
SciTegic.value.IntegerValue
117

@<SCITEGIC>MOL_PROPERTY
Probability
SciTegic.value.DoubleValue
0.02

@<SCITEGIC>MOL_PROPERTY
Sum Probability
SciTegic.value.DoubleValue
99.74

@<SCITEGIC>MOL_PROPERTY
Delta G
SciTegic.value.DoubleValue
3.955

@<SCITEGIC>MOL_PROPERTY
G
SciTegic.value.DoubleValue
27.664

@<SCITEGIC>MOL_PROPERTY
E
SciTegic.value.DoubleValue
-5.396

@<SCITEGIC>MOL_PROPERTY
-TS
SciTegic.value.DoubleValue
33.060

@<SCITEGIC>MOL_PROPERTY
U+W
SciTegic.value.DoubleValue
-26.857

@<SCITEGIC>MOL_PROPERTY
U
SciTegic.value.DoubleValue
27.313

@<SCITEGIC>MOL_PROPERTY
W
SciTegic.value.DoubleValue
-54.170

@<SCITEGIC>MOL_PROPERTY
W(PB)
SciTegic.value.DoubleValue
-56.414

@<SCITEGIC>MOL_PROPERTY
W(SA)
SciTegic.value.DoubleValue
2.245

@<SCITEGIC>MOL_PROPERTY
Valence
SciTegic.value.DoubleValue
6.229

@<SCITEGIC>MOL_PROPERTY
Coulomb
SciTegic.value.DoubleValue
19.943

@<SCITEGIC>MOL_PROPERTY
VdW
SciTegic.value.DoubleValue
1.140

@<SCITEGIC>MOL_PROPERTY
VdW6
SciTegic.value.DoubleValue
-9.001

@<SCITEGIC>MOL_PROPERTY
VdW12
SciTegic.value.DoubleValue
10.141

@<SCITEGIC>MOL_PROPERTY
Bond
SciTegic.value.DoubleValue
0.294

@<SCITEGIC>MOL_PROPERTY
Angle
SciTegic.value.DoubleValue
1.969

@<SCITEGIC>MOL_PROPERTY
Pdih
SciTegic.value.DoubleValue
3.967

@<SCITEGIC>MOL_PROPERTY
Idih
SciTegic.value.DoubleValue
0.000

@<SCITEGIC>MOL_PROPERTY
Tether
SciTegic.value.DoubleValue
0.000

@<TRIPOS>MOLECULE
guest-s13_vm2.mol2 : vm2 ligand conformer 61
          26          25           1
SMALL
USER_CHARGES
 
@<TRIPOS>ATOM
       1    C1      19.052004   19.264996   19.604942 C.3        1 MOL1        -0.2398
       2    H1      18.419805   20.105707   19.919099 H          1 MOL1         0.0972
       3    H2      19.804237   19.646647   18.902304 H          1 MOL1         0.0972
       4    H3      18.418125   18.550312   19.064166 H          1 MOL1         0.0972
       5    C2      19.720350   18.589175   20.820762 C.3        1 MOL1        -0.1383
       6    H4      20.319320   17.733859   20.478225 H          1 MOL1         0.0961
       7    H5      18.940110   18.183930   21.477645 H          1 MOL1         0.0961
       8    C3      20.622731   19.577578   21.597087 C.3        1 MOL1        -0.1407
       9    H6      21.379070   19.977401   20.907573 H          1 MOL1         0.0961
      10    H7      20.039227   20.444125   21.933091 H          1 MOL1         0.0961
      11    C4      21.355383   18.929832   22.798367 C.3        1 MOL1        -0.1407
      12    H8      22.059116   19.662369   23.217378 H          1 MOL1         0.0961
      13    H9      21.974313   18.100735   22.428520 H          1 MOL1         0.0961
      14    C5      20.447564   18.402879   23.941944 C.3        1 MOL1        -0.1472
      15    H10     19.777642   17.613779   23.577824 H          1 MOL1         0.0961
      16    H11     21.105671   17.908802   24.668890 H          1 MOL1         0.0961
      17    C6      19.645272   19.509947   24.669575 C.3        1 MOL1         0.1190
      18    H12     20.142864   20.467774   24.489235 H          1 MOL1         0.0923
      19    C7      18.195086   19.602303   24.160537 C.3        1 MOL1        -0.2463
      20    H13     17.653988   18.663921   24.334742 H          1 MOL1         0.0972
      21    H14     18.155669   19.821641   23.088760 H          1 MOL1         0.0972
      22    H15     17.655418   20.404858   24.678139 H          1 MOL1         0.0972
      23    N1      19.649610   19.311290   26.160786 N.4        1 MOL1        -0.5974
      24    H16     19.146624   20.063684   26.639733 H          1 MOL1         0.3625
      25    H17     19.200731   18.429395   26.422318 H          1 MOL1         0.3625
      26    H18     20.602310   19.295668   26.536124 H          1 MOL1         0.3625
@<TRIPOS>BOND
    1     1     2    1
    2     1     3    1
    3     1     4    1
    4     1     5    1
    5     5     6    1
    6     5     7    1
    7     5     8    1
    8     8     9    1
    9     8    10    1
   10     8    11    1
   11    11    12    1
   12    11    13    1
   13    11    14    1
   14    14    15    1
   15    14    16    1
   16    14    17    1
   17    17    18    1
   18    17    19    1
   19    19    20    1
   20    19    21    1
   21    19    22    1
   22    17    23    1
   23    23    24    1
   24    23    25    1
   25    23    26    1
@<TRIPOS>SUBSTRUCTURE
       1 MOL1            1 RESIDUE      1      MOL     
@<SCITEGIC>MOL_PROPERTY
VM2 Rank
SciTegic.value.IntegerValue
61

@<SCITEGIC>MOL_PROPERTY
Conf_Id
SciTegic.value.IntegerValue
257

@<SCITEGIC>MOL_PROPERTY
Probability
SciTegic.value.DoubleValue
0.02

@<SCITEGIC>MOL_PROPERTY
Sum Probability
SciTegic.value.DoubleValue
99.76

@<SCITEGIC>MOL_PROPERTY
Delta G
SciTegic.value.DoubleValue
3.972

@<SCITEGIC>MOL_PROPERTY
G
SciTegic.value.DoubleValue
27.682

@<SCITEGIC>MOL_PROPERTY
E
SciTegic.value.DoubleValue
-5.492

@<SCITEGIC>MOL_PROPERTY
-TS
SciTegic.value.DoubleValue
33.175

@<SCITEGIC>MOL_PROPERTY
U+W
SciTegic.value.DoubleValue
-26.954

@<SCITEGIC>MOL_PROPERTY
U
SciTegic.value.DoubleValue
27.330

@<SCITEGIC>MOL_PROPERTY
W
SciTegic.value.DoubleValue
-54.285

@<SCITEGIC>MOL_PROPERTY
W(PB)
SciTegic.value.DoubleValue
-56.506

@<SCITEGIC>MOL_PROPERTY
W(SA)
SciTegic.value.DoubleValue
2.221

@<SCITEGIC>MOL_PROPERTY
Valence
SciTegic.value.DoubleValue
6.519

@<SCITEGIC>MOL_PROPERTY
Coulomb
SciTegic.value.DoubleValue
20.042

@<SCITEGIC>MOL_PROPERTY
VdW
SciTegic.value.DoubleValue
0.769

@<SCITEGIC>MOL_PROPERTY
VdW6
SciTegic.value.DoubleValue
-9.039

@<SCITEGIC>MOL_PROPERTY
VdW12
SciTegic.value.DoubleValue
9.808

@<SCITEGIC>MOL_PROPERTY
Bond
SciTegic.value.DoubleValue
0.256

@<SCITEGIC>MOL_PROPERTY
Angle
SciTegic.value.DoubleValue
1.988

@<SCITEGIC>MOL_PROPERTY
Pdih
SciTegic.value.DoubleValue
4.275

@<SCITEGIC>MOL_PROPERTY
Idih
SciTegic.value.DoubleValue
0.000

@<SCITEGIC>MOL_PROPERTY
Tether
SciTegic.value.DoubleValue
0.000

@<TRIPOS>MOLECULE
guest-s13_vm2.mol2 : vm2 ligand conformer 62
          26          25           1
SMALL
USER_CHARGES
 
@<TRIPOS>ATOM
       1    C1      20.657480   18.894346   19.374478 C.3        1 MOL1        -0.2398
       2    H1      20.717488   19.362851   18.383607 H          1 MOL1         0.0972
       3    H2      21.640374   19.001788   19.849803 H          1 MOL1         0.0972
       4    H3      20.460371   17.824370   19.228486 H          1 MOL1         0.0972
       5    C2      19.543626   19.554678   20.218280 C.3        1 MOL1        -0.1383
       6    H4      18.604869   19.529396   19.647412 H          1 MOL1         0.0961
       7    H5      19.779424   20.616558   20.374908 H          1 MOL1         0.0961
       8    C3      19.313312   18.863418   21.583778 C.3        1 MOL1        -0.1407
       9    H6      18.437653   19.321756   22.058829 H          1 MOL1         0.0961
      10    H7      19.051043   17.809278   21.418803 H          1 MOL1         0.0961
      11    C4      20.537819   18.949308   22.531100 C.3        1 MOL1        -0.1407
      12    H8      20.898986   19.984694   22.600065 H          1 MOL1         0.0961
      13    H9      21.359841   18.369517   22.090813 H          1 MOL1         0.0961
      14    C5      20.256759   18.387364   23.950077 C.3        1 MOL1        -0.1472
      15    H10     19.464058   17.628528   23.909531 H          1 MOL1         0.0961
      16    H11     21.158885   17.858958   24.285791 H          1 MOL1         0.0961
      17    C6      19.920257   19.456997   25.017120 C.3        1 MOL1         0.1190
      18    H12     20.751628   20.167385   25.059727 H          1 MOL1         0.0923
      19    C7      18.636922   20.240711   24.693823 C.3        1 MOL1        -0.2463
      20    H13     18.393712   20.936631   25.506106 H          1 MOL1         0.0972
      21    H14     17.782846   19.566047   24.556341 H          1 MOL1         0.0972
      22    H15     18.759765   20.838696   23.783378 H          1 MOL1         0.0972
      23    N1      19.821825   18.841178   26.385344 N.4        1 MOL1        -0.5974
      24    H16     20.684997   18.354319   26.643230 H          1 MOL1         0.3625
      25    H17     19.646775   19.550220   27.102991 H          1 MOL1         0.3625
      26    H18     19.058530   18.161252   26.435687 H          1 MOL1         0.3625
@<TRIPOS>BOND
    1     1     2    1
    2     1     3    1
    3     1     4    1
    4     1     5    1
    5     5     6    1
    6     5     7    1
    7     5     8    1
    8     8     9    1
    9     8    10    1
   10     8    11    1
   11    11    12    1
   12    11    13    1
   13    11    14    1
   14    14    15    1
   15    14    16    1
   16    14    17    1
   17    17    18    1
   18    17    19    1
   19    19    20    1
   20    19    21    1
   21    19    22    1
   22    17    23    1
   23    23    24    1
   24    23    25    1
   25    23    26    1
@<TRIPOS>SUBSTRUCTURE
       1 MOL1            1 RESIDUE      1      MOL     
@<SCITEGIC>MOL_PROPERTY
VM2 Rank
SciTegic.value.IntegerValue
62

@<SCITEGIC>MOL_PROPERTY
Conf_Id
SciTegic.value.IntegerValue
546

@<SCITEGIC>MOL_PROPERTY
Probability
SciTegic.value.DoubleValue
0.02

@<SCITEGIC>MOL_PROPERTY
Sum Probability
SciTegic.value.DoubleValue
99.78

@<SCITEGIC>MOL_PROPERTY
Delta G
SciTegic.value.DoubleValue
4.005

@<SCITEGIC>MOL_PROPERTY
G
SciTegic.value.DoubleValue
27.715

@<SCITEGIC>MOL_PROPERTY
E
SciTegic.value.DoubleValue
-5.269

@<SCITEGIC>MOL_PROPERTY
-TS
SciTegic.value.DoubleValue
32.984

@<SCITEGIC>MOL_PROPERTY
U+W
SciTegic.value.DoubleValue
-26.731

@<SCITEGIC>MOL_PROPERTY
U
SciTegic.value.DoubleValue
27.221

@<SCITEGIC>MOL_PROPERTY
W
SciTegic.value.DoubleValue
-53.952

@<SCITEGIC>MOL_PROPERTY
W(PB)
SciTegic.value.DoubleValue
-56.214

@<SCITEGIC>MOL_PROPERTY
W(SA)
SciTegic.value.DoubleValue
2.261

@<SCITEGIC>MOL_PROPERTY
Valence
SciTegic.value.DoubleValue
6.368

@<SCITEGIC>MOL_PROPERTY
Coulomb
SciTegic.value.DoubleValue
19.698

@<SCITEGIC>MOL_PROPERTY
VdW
SciTegic.value.DoubleValue
1.155

@<SCITEGIC>MOL_PROPERTY
VdW6
SciTegic.value.DoubleValue
-8.532

@<SCITEGIC>MOL_PROPERTY
VdW12
SciTegic.value.DoubleValue
9.688

@<SCITEGIC>MOL_PROPERTY
Bond
SciTegic.value.DoubleValue
0.272

@<SCITEGIC>MOL_PROPERTY
Angle
SciTegic.value.DoubleValue
1.847

@<SCITEGIC>MOL_PROPERTY
Pdih
SciTegic.value.DoubleValue
4.249

@<SCITEGIC>MOL_PROPERTY
Idih
SciTegic.value.DoubleValue
0.000

@<SCITEGIC>MOL_PROPERTY
Tether
SciTegic.value.DoubleValue
0.000

@<TRIPOS>MOLECULE
guest-s13_vm2.mol2 : vm2 ligand conformer 63
          26          25           1
SMALL
USER_CHARGES
 
@<TRIPOS>ATOM
       1    C1      20.027437   18.589647   19.331486 C.3        1 MOL1        -0.2398
       2    H1      20.456429   18.762432   18.335970 H          1 MOL1         0.0972
       3    H2      20.365975   17.602126   19.668056 H          1 MOL1         0.0972
       4    H3      18.935179   18.561911   19.225591 H          1 MOL1         0.0972
       5    C2      20.463290   19.705450   20.308355 C.3        1 MOL1        -0.1383
       6    H4      20.215240   20.679157   19.863155 H          1 MOL1         0.0961
       7    H5      21.556041   19.690466   20.424300 H          1 MOL1         0.0961
       8    C3      19.787038   19.610164   21.697529 C.3        1 MOL1        -0.1407
       9    H6      20.048734   20.514517   22.261920 H          1 MOL1         0.0961
      10    H7      18.695259   19.620318   21.575067 H          1 MOL1         0.0961
      11    C4      20.213328   18.359850   22.506780 C.3        1 MOL1        -0.1407
      12    H8      21.302576   18.371493   22.650533 H          1 MOL1         0.0961
      13    H9      19.988735   17.454214   21.928999 H          1 MOL1         0.0961
      14    C5      19.515400   18.231267   23.884753 C.3        1 MOL1        -0.1472
      15    H10     18.430209   18.131499   23.748495 H          1 MOL1         0.0961
      16    H11     19.844337   17.284087   24.332395 H          1 MOL1         0.0961
      17    C6      19.834593   19.391926   24.858313 C.3        1 MOL1         0.1190
      18    H12     20.730190   19.905379   24.495187 H          1 MOL1         0.0923
      19    C7      18.678401   20.406217   24.929029 C.3        1 MOL1        -0.2463
      20    H13     18.432146   20.804945   23.938631 H          1 MOL1         0.0972
      21    H14     18.947382   21.254484   25.570402 H          1 MOL1         0.0972
      22    H15     17.772441   19.944002   25.340673 H          1 MOL1         0.0972
      23    N1      20.168513   18.893478   26.237754 N.4        1 MOL1        -0.5974
      24    H16     20.966973   18.252332   26.223519 H          1 MOL1         0.3625
      25    H17     20.409485   19.665163   26.866215 H          1 MOL1         0.3625
      26    H18     19.379510   18.393805   26.656637 H          1 MOL1         0.3625
@<TRIPOS>BOND
    1     1     2    1
    2     1     3    1
    3     1     4    1
    4     1     5    1
    5     5     6    1
    6     5     7    1
    7     5     8    1
    8     8     9    1
    9     8    10    1
   10     8    11    1
   11    11    12    1
   12    11    13    1
   13    11    14    1
   14    14    15    1
   15    14    16    1
   16    14    17    1
   17    17    18    1
   18    17    19    1
   19    19    20    1
   20    19    21    1
   21    19    22    1
   22    17    23    1
   23    23    24    1
   24    23    25    1
   25    23    26    1
@<TRIPOS>SUBSTRUCTURE
       1 MOL1            1 RESIDUE      1      MOL     
@<SCITEGIC>MOL_PROPERTY
VM2 Rank
SciTegic.value.IntegerValue
63

@<SCITEGIC>MOL_PROPERTY
Conf_Id
SciTegic.value.IntegerValue
762

@<SCITEGIC>MOL_PROPERTY
Probability
SciTegic.value.DoubleValue
0.02

@<SCITEGIC>MOL_PROPERTY
Sum Probability
SciTegic.value.DoubleValue
99.80

@<SCITEGIC>MOL_PROPERTY
Delta G
SciTegic.value.DoubleValue
4.009

@<SCITEGIC>MOL_PROPERTY
G
SciTegic.value.DoubleValue
27.719

@<SCITEGIC>MOL_PROPERTY
E
SciTegic.value.DoubleValue
-5.019

@<SCITEGIC>MOL_PROPERTY
-TS
SciTegic.value.DoubleValue
32.738

@<SCITEGIC>MOL_PROPERTY
U+W
SciTegic.value.DoubleValue
-26.481

@<SCITEGIC>MOL_PROPERTY
U
SciTegic.value.DoubleValue
27.496

@<SCITEGIC>MOL_PROPERTY
W
SciTegic.value.DoubleValue
-53.975

@<SCITEGIC>MOL_PROPERTY
W(PB)
SciTegic.value.DoubleValue
-56.265

@<SCITEGIC>MOL_PROPERTY
W(SA)
SciTegic.value.DoubleValue
2.290

@<SCITEGIC>MOL_PROPERTY
Valence
SciTegic.value.DoubleValue
6.472

@<SCITEGIC>MOL_PROPERTY
Coulomb
SciTegic.value.DoubleValue
19.839

@<SCITEGIC>MOL_PROPERTY
VdW
SciTegic.value.DoubleValue
1.185

@<SCITEGIC>MOL_PROPERTY
VdW6
SciTegic.value.DoubleValue
-8.404

@<SCITEGIC>MOL_PROPERTY
VdW12
SciTegic.value.DoubleValue
9.590

@<SCITEGIC>MOL_PROPERTY
Bond
SciTegic.value.DoubleValue
0.248

@<SCITEGIC>MOL_PROPERTY
Angle
SciTegic.value.DoubleValue
1.619

@<SCITEGIC>MOL_PROPERTY
Pdih
SciTegic.value.DoubleValue
4.604

@<SCITEGIC>MOL_PROPERTY
Idih
SciTegic.value.DoubleValue
0.000

@<SCITEGIC>MOL_PROPERTY
Tether
SciTegic.value.DoubleValue
0.000

@<TRIPOS>MOLECULE
guest-s13_vm2.mol2 : vm2 ligand conformer 64
          26          25           1
SMALL
USER_CHARGES
 
@<TRIPOS>ATOM
       1    C1      19.618461   18.042054   19.542054 C.3        1 MOL1        -0.2398
       2    H1      20.123144   17.858761   18.584590 H          1 MOL1         0.0972
       3    H2      19.379206   17.068100   19.988562 H          1 MOL1         0.0972
       4    H3      18.675169   18.562702   19.331428 H          1 MOL1         0.0972
       5    C2      20.515731   18.877472   20.479687 C.3        1 MOL1        -0.1383
       6    H4      20.766394   19.829139   19.990384 H          1 MOL1         0.0961
       7    H5      21.463846   18.346884   20.645516 H          1 MOL1         0.0961
       8    C3      19.827076   19.151826   21.834981 C.3        1 MOL1        -0.1407
       9    H6      18.884401   19.689715   21.663741 H          1 MOL1         0.0961
      10    H7      19.575076   18.191258   22.299843 H          1 MOL1         0.0961
      11    C4      20.731421   19.974716   22.781922 C.3        1 MOL1        -0.1407
      12    H8      21.102762   20.852149   22.234566 H          1 MOL1         0.0961
      13    H9      21.623872   19.389471   23.041074 H          1 MOL1         0.0961
      14    C5      20.035367   20.487234   24.074952 C.3        1 MOL1        -0.1472
      15    H10     20.768354   21.096969   24.619231 H          1 MOL1         0.0961
      16    H11     19.227107   21.180687   23.807642 H          1 MOL1         0.0961
      17    C6      19.498526   19.423426   25.067672 C.3        1 MOL1         0.1190
      18    H12     19.472193   19.900695   26.052215 H          1 MOL1         0.0923
      19    C7      18.052129   18.995820   24.756375 C.3        1 MOL1        -0.2463
      20    H13     17.391686   19.870086   24.702998 H          1 MOL1         0.0972
      21    H14     17.668586   18.343645   25.550538 H          1 MOL1         0.0972
      22    H15     17.969553   18.450654   23.811647 H          1 MOL1         0.0972
      23    N1      20.409288   18.235451   25.216357 N.4        1 MOL1        -0.5974
      24    H16     20.502071   17.729293   24.332364 H          1 MOL1         0.3625
      25    H17     21.348376   18.519638   25.509255 H          1 MOL1         0.3625
      26    H18     20.056006   17.576965   25.916370 H          1 MOL1         0.3625
@<TRIPOS>BOND
    1     1     2    1
    2     1     3    1
    3     1     4    1
    4     1     5    1
    5     5     6    1
    6     5     7    1
    7     5     8    1
    8     8     9    1
    9     8    10    1
   10     8    11    1
   11    11    12    1
   12    11    13    1
   13    11    14    1
   14    14    15    1
   15    14    16    1
   16    14    17    1
   17    17    18    1
   18    17    19    1
   19    19    20    1
   20    19    21    1
   21    19    22    1
   22    17    23    1
   23    23    24    1
   24    23    25    1
   25    23    26    1
@<TRIPOS>SUBSTRUCTURE
       1 MOL1            1 RESIDUE      1      MOL     
@<SCITEGIC>MOL_PROPERTY
VM2 Rank
SciTegic.value.IntegerValue
64

@<SCITEGIC>MOL_PROPERTY
Conf_Id
SciTegic.value.IntegerValue
821

@<SCITEGIC>MOL_PROPERTY
Probability
SciTegic.value.DoubleValue
0.02

@<SCITEGIC>MOL_PROPERTY
Sum Probability
SciTegic.value.DoubleValue
99.82

@<SCITEGIC>MOL_PROPERTY
Delta G
SciTegic.value.DoubleValue
4.050

@<SCITEGIC>MOL_PROPERTY
G
SciTegic.value.DoubleValue
27.760

@<SCITEGIC>MOL_PROPERTY
E
SciTegic.value.DoubleValue
-5.289

@<SCITEGIC>MOL_PROPERTY
-TS
SciTegic.value.DoubleValue
33.048

@<SCITEGIC>MOL_PROPERTY
U+W
SciTegic.value.DoubleValue
-26.751

@<SCITEGIC>MOL_PROPERTY
U
SciTegic.value.DoubleValue
27.376

@<SCITEGIC>MOL_PROPERTY
W
SciTegic.value.DoubleValue
-54.127

@<SCITEGIC>MOL_PROPERTY
W(PB)
SciTegic.value.DoubleValue
-56.398

@<SCITEGIC>MOL_PROPERTY
W(SA)
SciTegic.value.DoubleValue
2.271

@<SCITEGIC>MOL_PROPERTY
Valence
SciTegic.value.DoubleValue
5.849

@<SCITEGIC>MOL_PROPERTY
Coulomb
SciTegic.value.DoubleValue
20.574

@<SCITEGIC>MOL_PROPERTY
VdW
SciTegic.value.DoubleValue
0.953

@<SCITEGIC>MOL_PROPERTY
VdW6
SciTegic.value.DoubleValue
-8.734

@<SCITEGIC>MOL_PROPERTY
VdW12
SciTegic.value.DoubleValue
9.687

@<SCITEGIC>MOL_PROPERTY
Bond
SciTegic.value.DoubleValue
0.283

@<SCITEGIC>MOL_PROPERTY
Angle
SciTegic.value.DoubleValue
2.366

@<SCITEGIC>MOL_PROPERTY
Pdih
SciTegic.value.DoubleValue
3.200

@<SCITEGIC>MOL_PROPERTY
Idih
SciTegic.value.DoubleValue
0.000

@<SCITEGIC>MOL_PROPERTY
Tether
SciTegic.value.DoubleValue
0.000

@<TRIPOS>MOLECULE
guest-s13_vm2.mol2 : vm2 ligand conformer 65
          26          25           1
SMALL
USER_CHARGES
 
@<TRIPOS>ATOM
       1    C1      20.758862   18.669729   19.561246 C.3        1 MOL1        -0.2398
       2    H1      20.814087   17.979253   18.709713 H          1 MOL1         0.0972
       3    H2      20.697595   19.690530   19.162221 H          1 MOL1         0.0972
       4    H3      21.696291   18.575234   20.123216 H          1 MOL1         0.0972
       5    C2      19.532521   18.343224   20.443426 C.3        1 MOL1        -0.1383
       6    H4      19.633111   17.329243   20.855036 H          1 MOL1         0.0961
       7    H5      18.634528   18.329819   19.810008 H          1 MOL1         0.0961
       8    C3      19.313338   19.355275   21.593832 C.3        1 MOL1        -0.1407
       9    H6      19.186790   20.362520   21.173592 H          1 MOL1         0.0961
      10    H7      18.365734   19.112178   22.088705 H          1 MOL1         0.0961
      11    C4      20.466151   19.367652   22.630587 C.3        1 MOL1        -0.1407
      12    H8      21.375914   19.728314   22.132848 H          1 MOL1         0.0961
      13    H9      20.688175   18.345336   22.962391 H          1 MOL1         0.0961
      14    C5      20.189557   20.292100   23.849256 C.3        1 MOL1        -0.1472
      15    H10     21.134230   20.769203   24.141666 H          1 MOL1         0.0961
      16    H11     19.530210   21.117575   23.550161 H          1 MOL1         0.0961
      17    C6      19.610031   19.600795   25.108577 C.3        1 MOL1         0.1190
      18    H12     19.464809   20.379089   25.864195 H          1 MOL1         0.0923
      19    C7      18.243744   18.943390   24.854920 C.3        1 MOL1        -0.2463
      20    H13     17.542689   19.660037   24.409643 H          1 MOL1         0.0972
      21    H14     17.806228   18.593152   25.797796 H          1 MOL1         0.0972
      22    H15     18.331502   18.078895   24.186109 H          1 MOL1         0.0972
      23    N1      20.573796   18.615836   25.712155 N.4        1 MOL1        -0.5974
      24    H16     20.763681   17.840521   25.072730 H          1 MOL1         0.3625
      25    H17     21.470273   19.056761   25.936543 H          1 MOL1         0.3625
      26    H18     20.205038   18.215415   26.579365 H          1 MOL1         0.3625
@<TRIPOS>BOND
    1     1     2    1
    2     1     3    1
    3     1     4    1
    4     1     5    1
    5     5     6    1
    6     5     7    1
    7     5     8    1
    8     8     9    1
    9     8    10    1
   10     8    11    1
   11    11    12    1
   12    11    13    1
   13    11    14    1
   14    14    15    1
   15    14    16    1
   16    14    17    1
   17    17    18    1
   18    17    19    1
   19    19    20    1
   20    19    21    1
   21    19    22    1
   22    17    23    1
   23    23    24    1
   24    23    25    1
   25    23    26    1
@<TRIPOS>SUBSTRUCTURE
       1 MOL1            1 RESIDUE      1      MOL     
@<SCITEGIC>MOL_PROPERTY
VM2 Rank
SciTegic.value.IntegerValue
65

@<SCITEGIC>MOL_PROPERTY
Conf_Id
SciTegic.value.IntegerValue
984

@<SCITEGIC>MOL_PROPERTY
Probability
SciTegic.value.DoubleValue
0.02

@<SCITEGIC>MOL_PROPERTY
Sum Probability
SciTegic.value.DoubleValue
99.84

@<SCITEGIC>MOL_PROPERTY
Delta G
SciTegic.value.DoubleValue
4.051

@<SCITEGIC>MOL_PROPERTY
G
SciTegic.value.DoubleValue
27.761

@<SCITEGIC>MOL_PROPERTY
E
SciTegic.value.DoubleValue
-5.293

@<SCITEGIC>MOL_PROPERTY
-TS
SciTegic.value.DoubleValue
33.054

@<SCITEGIC>MOL_PROPERTY
U+W
SciTegic.value.DoubleValue
-26.754

@<SCITEGIC>MOL_PROPERTY
U
SciTegic.value.DoubleValue
27.509

@<SCITEGIC>MOL_PROPERTY
W
SciTegic.value.DoubleValue
-54.264

@<SCITEGIC>MOL_PROPERTY
W(PB)
SciTegic.value.DoubleValue
-56.496

@<SCITEGIC>MOL_PROPERTY
W(SA)
SciTegic.value.DoubleValue
2.232

@<SCITEGIC>MOL_PROPERTY
Valence
SciTegic.value.DoubleValue
6.375

@<SCITEGIC>MOL_PROPERTY
Coulomb
SciTegic.value.DoubleValue
20.014

@<SCITEGIC>MOL_PROPERTY
VdW
SciTegic.value.DoubleValue
1.120

@<SCITEGIC>MOL_PROPERTY
VdW6
SciTegic.value.DoubleValue
-8.976

@<SCITEGIC>MOL_PROPERTY
VdW12
SciTegic.value.DoubleValue
10.096

@<SCITEGIC>MOL_PROPERTY
Bond
SciTegic.value.DoubleValue
0.304

@<SCITEGIC>MOL_PROPERTY
Angle
SciTegic.value.DoubleValue
1.986

@<SCITEGIC>MOL_PROPERTY
Pdih
SciTegic.value.DoubleValue
4.086

@<SCITEGIC>MOL_PROPERTY
Idih
SciTegic.value.DoubleValue
0.000

@<SCITEGIC>MOL_PROPERTY
Tether
SciTegic.value.DoubleValue
0.000

@<TRIPOS>MOLECULE
guest-s13_vm2.mol2 : vm2 ligand conformer 66
          26          25           1
SMALL
USER_CHARGES
 
@<TRIPOS>ATOM
       1    C1      20.643332   19.924184   19.961712 C.3        1 MOL1        -0.2398
       2    H1      21.566506   20.048158   19.380956 H          1 MOL1         0.0972
       3    H2      19.801188   20.183067   19.306861 H          1 MOL1         0.0972
       4    H3      20.667279   20.649813   20.782073 H          1 MOL1         0.0972
       5    C2      20.517275   18.470009   20.472967 C.3        1 MOL1        -0.1383
       6    H4      21.400834   18.195109   21.065659 H          1 MOL1         0.0961
       7    H5      20.520714   17.803073   19.599415 H          1 MOL1         0.0961
       8    C3      19.221378   18.213665   21.284821 C.3        1 MOL1        -0.1407
       9    H6      18.421404   18.886783   20.946967 H          1 MOL1         0.0961
      10    H7      18.869532   17.198544   21.054202 H          1 MOL1         0.0961
      11    C4      19.385720   18.311073   22.823695 C.3        1 MOL1        -0.1407
      12    H8      20.112145   17.556809   23.154107 H          1 MOL1         0.0961
      13    H9      18.426386   18.034647   23.279111 H          1 MOL1         0.0961
      14    C5      19.818357   19.713536   23.328252 C.3        1 MOL1        -0.1472
      15    H10     20.821287   19.939760   22.946822 H          1 MOL1         0.0961
      16    H11     19.148730   20.475906   22.908899 H          1 MOL1         0.0961
      17    C6      19.853209   19.870875   24.867068 C.3        1 MOL1         0.1190
      18    H12     20.245509   20.869883   25.081326 H          1 MOL1         0.0923
      19    C7      18.449980   19.782372   25.492721 C.3        1 MOL1        -0.2463
      20    H13     18.029185   18.773568   25.409393 H          1 MOL1         0.0972
      21    H14     17.760985   20.484055   25.006459 H          1 MOL1         0.0972
      22    H15     18.489201   20.040483   26.558088 H          1 MOL1         0.0972
      23    N1      20.798750   18.902286   25.522764 N.4        1 MOL1        -0.5974
      24    H16     21.746551   18.988655   25.145192 H          1 MOL1         0.3625
      25    H17     20.856120   19.060838   26.532684 H          1 MOL1         0.3625
      26    H18     20.496934   17.935315   25.380563 H          1 MOL1         0.3625
@<TRIPOS>BOND
    1     1     2    1
    2     1     3    1
    3     1     4    1
    4     1     5    1
    5     5     6    1
    6     5     7    1
    7     5     8    1
    8     8     9    1
    9     8    10    1
   10     8    11    1
   11    11    12    1
   12    11    13    1
   13    11    14    1
   14    14    15    1
   15    14    16    1
   16    14    17    1
   17    17    18    1
   18    17    19    1
   19    19    20    1
   20    19    21    1
   21    19    22    1
   22    17    23    1
   23    23    24    1
   24    23    25    1
   25    23    26    1
@<TRIPOS>SUBSTRUCTURE
       1 MOL1            1 RESIDUE      1      MOL     
@<SCITEGIC>MOL_PROPERTY
VM2 Rank
SciTegic.value.IntegerValue
66

@<SCITEGIC>MOL_PROPERTY
Conf_Id
SciTegic.value.IntegerValue
736

@<SCITEGIC>MOL_PROPERTY
Probability
SciTegic.value.DoubleValue
0.02

@<SCITEGIC>MOL_PROPERTY
Sum Probability
SciTegic.value.DoubleValue
99.86

@<SCITEGIC>MOL_PROPERTY
Delta G
SciTegic.value.DoubleValue
4.058

@<SCITEGIC>MOL_PROPERTY
G
SciTegic.value.DoubleValue
27.768

@<SCITEGIC>MOL_PROPERTY
E
SciTegic.value.DoubleValue
-5.254

@<SCITEGIC>MOL_PROPERTY
-TS
SciTegic.value.DoubleValue
33.022

@<SCITEGIC>MOL_PROPERTY
U+W
SciTegic.value.DoubleValue
-26.715

@<SCITEGIC>MOL_PROPERTY
U
SciTegic.value.DoubleValue
27.573

@<SCITEGIC>MOL_PROPERTY
W
SciTegic.value.DoubleValue
-54.289

@<SCITEGIC>MOL_PROPERTY
W(PB)
SciTegic.value.DoubleValue
-56.541

@<SCITEGIC>MOL_PROPERTY
W(SA)
SciTegic.value.DoubleValue
2.253

@<SCITEGIC>MOL_PROPERTY
Valence
SciTegic.value.DoubleValue
6.363

@<SCITEGIC>MOL_PROPERTY
Coulomb
SciTegic.value.DoubleValue
20.026

@<SCITEGIC>MOL_PROPERTY
VdW
SciTegic.value.DoubleValue
1.184

@<SCITEGIC>MOL_PROPERTY
VdW6
SciTegic.value.DoubleValue
-8.938

@<SCITEGIC>MOL_PROPERTY
VdW12
SciTegic.value.DoubleValue
10.122

@<SCITEGIC>MOL_PROPERTY
Bond
SciTegic.value.DoubleValue
0.298

@<SCITEGIC>MOL_PROPERTY
Angle
SciTegic.value.DoubleValue
2.018

@<SCITEGIC>MOL_PROPERTY
Pdih
SciTegic.value.DoubleValue
4.047

@<SCITEGIC>MOL_PROPERTY
Idih
SciTegic.value.DoubleValue
0.000

@<SCITEGIC>MOL_PROPERTY
Tether
SciTegic.value.DoubleValue
0.000

@<TRIPOS>MOLECULE
guest-s13_vm2.mol2 : vm2 ligand conformer 67
          26          25           1
SMALL
USER_CHARGES
 
@<TRIPOS>ATOM
       1    C1      19.550836   18.224618   19.406703 C.3        1 MOL1        -0.2398
       2    H1      20.072004   17.454807   18.822915 H          1 MOL1         0.0972
       3    H2      18.580744   17.813984   19.715768 H          1 MOL1         0.0972
       4    H3      19.364752   19.080573   18.744937 H          1 MOL1         0.0972
       5    C2      20.391919   18.642125   20.631670 C.3        1 MOL1        -0.1383
       6    H4      21.366943   19.017698   20.291145 H          1 MOL1         0.0961
       7    H5      20.592621   17.754779   21.245807 H          1 MOL1         0.0961
       8    C3      19.677470   19.729778   21.469176 C.3        1 MOL1        -0.1407
       9    H6      19.461316   20.587727   20.817661 H          1 MOL1         0.0961
      10    H7      18.705486   19.352464   21.809144 H          1 MOL1         0.0961
      11    C4      20.519741   20.229812   22.672035 C.3        1 MOL1        -0.1407
      12    H8      20.090924   21.165114   23.057617 H          1 MOL1         0.0961
      13    H9      21.520044   20.497706   22.304584 H          1 MOL1         0.0961
      14    C5      20.667545   19.210807   23.836030 C.3        1 MOL1        -0.1472
      15    H10     20.600453   18.180547   23.467078 H          1 MOL1         0.0961
      16    H11     21.681880   19.315373   24.243174 H          1 MOL1         0.0961
      17    C6      19.674228   19.415659   25.005036 C.3        1 MOL1         0.1190
      18    H12     19.796129   20.436301   25.380620 H          1 MOL1         0.0923
      19    C7      18.207782   19.233039   24.578745 C.3        1 MOL1        -0.2463
      20    H13     17.902953   20.015022   23.873883 H          1 MOL1         0.0972
      21    H14     17.540633   19.303875   25.446589 H          1 MOL1         0.0972
      22    H15     18.049668   18.255698   24.106061 H          1 MOL1         0.0972
      23    N1      19.998479   18.502162   26.154605 N.4        1 MOL1        -0.5974
      24    H16     20.957058   18.639822   26.487440 H          1 MOL1         0.3625
      25    H17     19.374353   18.665624   26.949688 H          1 MOL1         0.3625
      26    H18     19.903249   17.518314   25.889277 H          1 MOL1         0.3625
@<TRIPOS>BOND
    1     1     2    1
    2     1     3    1
    3     1     4    1
    4     1     5    1
    5     5     6    1
    6     5     7    1
    7     5     8    1
    8     8     9    1
    9     8    10    1
   10     8    11    1
   11    11    12    1
   12    11    13    1
   13    11    14    1
   14    14    15    1
   15    14    16    1
   16    14    17    1
   17    17    18    1
   18    17    19    1
   19    19    20    1
   20    19    21    1
   21    19    22    1
   22    17    23    1
   23    23    24    1
   24    23    25    1
   25    23    26    1
@<TRIPOS>SUBSTRUCTURE
       1 MOL1            1 RESIDUE      1      MOL     
@<SCITEGIC>MOL_PROPERTY
VM2 Rank
SciTegic.value.IntegerValue
67

@<SCITEGIC>MOL_PROPERTY
Conf_Id
SciTegic.value.IntegerValue
1375

@<SCITEGIC>MOL_PROPERTY
Probability
SciTegic.value.DoubleValue
0.02

@<SCITEGIC>MOL_PROPERTY
Sum Probability
SciTegic.value.DoubleValue
99.87

@<SCITEGIC>MOL_PROPERTY
Delta G
SciTegic.value.DoubleValue
4.152

@<SCITEGIC>MOL_PROPERTY
G
SciTegic.value.DoubleValue
27.862

@<SCITEGIC>MOL_PROPERTY
E
SciTegic.value.DoubleValue
-5.039

@<SCITEGIC>MOL_PROPERTY
-TS
SciTegic.value.DoubleValue
32.901

@<SCITEGIC>MOL_PROPERTY
U+W
SciTegic.value.DoubleValue
-26.501

@<SCITEGIC>MOL_PROPERTY
U
SciTegic.value.DoubleValue
27.603

@<SCITEGIC>MOL_PROPERTY
W
SciTegic.value.DoubleValue
-54.104

@<SCITEGIC>MOL_PROPERTY
W(PB)
SciTegic.value.DoubleValue
-56.397

@<SCITEGIC>MOL_PROPERTY
W(SA)
SciTegic.value.DoubleValue
2.293

@<SCITEGIC>MOL_PROPERTY
Valence
SciTegic.value.DoubleValue
6.568

@<SCITEGIC>MOL_PROPERTY
Coulomb
SciTegic.value.DoubleValue
19.917

@<SCITEGIC>MOL_PROPERTY
VdW
SciTegic.value.DoubleValue
1.118

@<SCITEGIC>MOL_PROPERTY
VdW6
SciTegic.value.DoubleValue
-8.472

@<SCITEGIC>MOL_PROPERTY
VdW12
SciTegic.value.DoubleValue
9.590

@<SCITEGIC>MOL_PROPERTY
Bond
SciTegic.value.DoubleValue
0.286

@<SCITEGIC>MOL_PROPERTY
Angle
SciTegic.value.DoubleValue
1.908

@<SCITEGIC>MOL_PROPERTY
Pdih
SciTegic.value.DoubleValue
4.373

@<SCITEGIC>MOL_PROPERTY
Idih
SciTegic.value.DoubleValue
0.000

@<SCITEGIC>MOL_PROPERTY
Tether
SciTegic.value.DoubleValue
0.000

@<TRIPOS>MOLECULE
guest-s13_vm2.mol2 : vm2 ligand conformer 68
          26          25           1
SMALL
USER_CHARGES
 
@<TRIPOS>ATOM
       1    C1      19.419461   19.102354   19.295579 C.3        1 MOL1        -0.2398
       2    H1      19.542315   18.078423   18.919165 H          1 MOL1         0.0972
       3    H2      18.354177   19.263901   19.506032 H          1 MOL1         0.0972
       4    H3      19.713174   19.792983   18.494458 H          1 MOL1         0.0972
       5    C2      20.275842   19.336605   20.558149 C.3        1 MOL1        -0.1383
       6    H4      20.159790   20.380110   20.877813 H          1 MOL1         0.0961
       7    H5      21.336866   19.198423   20.307556 H          1 MOL1         0.0961
       8    C3      19.879553   18.372225   21.701818 C.3        1 MOL1        -0.1407
       9    H6      18.823874   18.519500   21.957794 H          1 MOL1         0.0961
      10    H7      19.960836   17.340673   21.332273 H          1 MOL1         0.0961
      11    C4      20.773862   18.507867   22.962447 C.3        1 MOL1        -0.1407
      12    H8      21.823271   18.436081   22.644892 H          1 MOL1         0.0961
      13    H9      20.610065   17.642067   23.616743 H          1 MOL1         0.0961
      14    C5      20.588073   19.826215   23.769498 C.3        1 MOL1        -0.1472
      15    H10     21.562357   20.110216   24.188400 H          1 MOL1         0.0961
      16    H11     20.312952   20.651588   23.102932 H          1 MOL1         0.0961
      17    C6      19.580218   19.769151   24.944442 C.3        1 MOL1         0.1190
      18    H12     19.561757   20.764745   25.398579 H          1 MOL1         0.0923
      19    C7      18.148383   19.444353   24.489399 C.3        1 MOL1        -0.2463
      20    H13     18.063233   18.408672   24.139997 H          1 MOL1         0.0972
      21    H14     17.834684   20.113951   23.679008 H          1 MOL1         0.0972
      22    H15     17.444034   19.574764   25.320038 H          1 MOL1         0.0972
      23    N1      20.022607   18.829230   26.032667 N.4        1 MOL1        -0.5974
      24    H16     20.059925   17.863275   25.698662 H          1 MOL1         0.3625
      25    H17     20.954347   19.070658   26.381950 H          1 MOL1         0.3625
      26    H18     19.381710   18.853349   26.830814 H          1 MOL1         0.3625
@<TRIPOS>BOND
    1     1     2    1
    2     1     3    1
    3     1     4    1
    4     1     5    1
    5     5     6    1
    6     5     7    1
    7     5     8    1
    8     8     9    1
    9     8    10    1
   10     8    11    1
   11    11    12    1
   12    11    13    1
   13    11    14    1
   14    14    15    1
   15    14    16    1
   16    14    17    1
   17    17    18    1
   18    17    19    1
   19    19    20    1
   20    19    21    1
   21    19    22    1
   22    17    23    1
   23    23    24    1
   24    23    25    1
   25    23    26    1
@<TRIPOS>SUBSTRUCTURE
       1 MOL1            1 RESIDUE      1      MOL     
@<SCITEGIC>MOL_PROPERTY
VM2 Rank
SciTegic.value.IntegerValue
68

@<SCITEGIC>MOL_PROPERTY
Conf_Id
SciTegic.value.IntegerValue
848

@<SCITEGIC>MOL_PROPERTY
Probability
SciTegic.value.DoubleValue
0.02

@<SCITEGIC>MOL_PROPERTY
Sum Probability
SciTegic.value.DoubleValue
99.89

@<SCITEGIC>MOL_PROPERTY
Delta G
SciTegic.value.DoubleValue
4.157

@<SCITEGIC>MOL_PROPERTY
G
SciTegic.value.DoubleValue
27.867

@<SCITEGIC>MOL_PROPERTY
E
SciTegic.value.DoubleValue
-5.027

@<SCITEGIC>MOL_PROPERTY
-TS
SciTegic.value.DoubleValue
32.894

@<SCITEGIC>MOL_PROPERTY
U+W
SciTegic.value.DoubleValue
-26.489

@<SCITEGIC>MOL_PROPERTY
U
SciTegic.value.DoubleValue
27.713

@<SCITEGIC>MOL_PROPERTY
W
SciTegic.value.DoubleValue
-54.202

@<SCITEGIC>MOL_PROPERTY
W(PB)
SciTegic.value.DoubleValue
-56.458

@<SCITEGIC>MOL_PROPERTY
W(SA)
SciTegic.value.DoubleValue
2.256

@<SCITEGIC>MOL_PROPERTY
Valence
SciTegic.value.DoubleValue
6.574

@<SCITEGIC>MOL_PROPERTY
Coulomb
SciTegic.value.DoubleValue
20.039

@<SCITEGIC>MOL_PROPERTY
VdW
SciTegic.value.DoubleValue
1.100

@<SCITEGIC>MOL_PROPERTY
VdW6
SciTegic.value.DoubleValue
-8.929

@<SCITEGIC>MOL_PROPERTY
VdW12
SciTegic.value.DoubleValue
10.029

@<SCITEGIC>MOL_PROPERTY
Bond
SciTegic.value.DoubleValue
0.329

@<SCITEGIC>MOL_PROPERTY
Angle
SciTegic.value.DoubleValue
2.177

@<SCITEGIC>MOL_PROPERTY
Pdih
SciTegic.value.DoubleValue
4.068

@<SCITEGIC>MOL_PROPERTY
Idih
SciTegic.value.DoubleValue
0.000

@<SCITEGIC>MOL_PROPERTY
Tether
SciTegic.value.DoubleValue
0.000

@<TRIPOS>MOLECULE
guest-s13_vm2.mol2 : vm2 ligand conformer 69
          26          25           1
SMALL
USER_CHARGES
 
@<TRIPOS>ATOM
       1    C1      20.439868   19.035591   19.480652 C.3        1 MOL1        -0.2398
       2    H1      20.241909   18.610612   18.488115 H          1 MOL1         0.0972
       3    H2      19.981753   20.031714   19.508223 H          1 MOL1         0.0972
       4    H3      21.526371   19.153082   19.584120 H          1 MOL1         0.0972
       5    C2      19.872472   18.114659   20.584972 C.3        1 MOL1        -0.1383
       6    H4      20.264051   17.099545   20.429858 H          1 MOL1         0.0961
       7    H5      18.780740   18.041263   20.482391 H          1 MOL1         0.0961
       8    C3      20.235716   18.570427   22.019141 C.3        1 MOL1        -0.1407
       9    H6      19.924971   17.774954   22.706282 H          1 MOL1         0.0961
      10    H7      21.326875   18.662635   22.108606 H          1 MOL1         0.0961
      11    C4      19.557259   19.900493   22.433639 C.3        1 MOL1        -0.1407
      12    H8      18.465872   19.782964   22.404203 H          1 MOL1         0.0961
      13    H9      19.792220   20.671389   21.689109 H          1 MOL1         0.0961
      14    C5      19.997741   20.450481   23.819961 C.3        1 MOL1        -0.1472
      15    H10     21.071678   20.677032   23.795282 H          1 MOL1         0.0961
      16    H11     19.500591   21.418486   23.966064 H          1 MOL1         0.0961
      17    C6      19.695510   19.580604   25.067112 C.3        1 MOL1         0.1190
      18    H12     19.854425   20.219382   25.941457 H          1 MOL1         0.0923
      19    C7      18.234221   19.100795   25.111114 C.3        1 MOL1        -0.2463
      20    H13     17.544219   19.946844   25.003294 H          1 MOL1         0.0972
      21    H14     18.018079   18.615219   26.070576 H          1 MOL1         0.0972
      22    H15     18.020642   18.378636   24.314096 H          1 MOL1         0.0972
      23    N1      20.655212   18.434950   25.237409 N.4        1 MOL1        -0.5974
      24    H16     21.624567   18.761964   25.280853 H          1 MOL1         0.3625
      25    H17     20.469250   17.917673   26.101336 H          1 MOL1         0.3625
      26    H18     20.587847   17.773373   24.461670 H          1 MOL1         0.3625
@<TRIPOS>BOND
    1     1     2    1
    2     1     3    1
    3     1     4    1
    4     1     5    1
    5     5     6    1
    6     5     7    1
    7     5     8    1
    8     8     9    1
    9     8    10    1
   10     8    11    1
   11    11    12    1
   12    11    13    1
   13    11    14    1
   14    14    15    1
   15    14    16    1
   16    14    17    1
   17    17    18    1
   18    17    19    1
   19    19    20    1
   20    19    21    1
   21    19    22    1
   22    17    23    1
   23    23    24    1
   24    23    25    1
   25    23    26    1
@<TRIPOS>SUBSTRUCTURE
       1 MOL1            1 RESIDUE      1      MOL     
@<SCITEGIC>MOL_PROPERTY
VM2 Rank
SciTegic.value.IntegerValue
69

@<SCITEGIC>MOL_PROPERTY
Conf_Id
SciTegic.value.IntegerValue
1244

@<SCITEGIC>MOL_PROPERTY
Probability
SciTegic.value.DoubleValue
0.02

@<SCITEGIC>MOL_PROPERTY
Sum Probability
SciTegic.value.DoubleValue
99.91

@<SCITEGIC>MOL_PROPERTY
Delta G
SciTegic.value.DoubleValue
4.160

@<SCITEGIC>MOL_PROPERTY
G
SciTegic.value.DoubleValue
27.870

@<SCITEGIC>MOL_PROPERTY
E
SciTegic.value.DoubleValue
-5.299

@<SCITEGIC>MOL_PROPERTY
-TS
SciTegic.value.DoubleValue
33.170

@<SCITEGIC>MOL_PROPERTY
U+W
SciTegic.value.DoubleValue
-26.761

@<SCITEGIC>MOL_PROPERTY
U
SciTegic.value.DoubleValue
27.482

@<SCITEGIC>MOL_PROPERTY
W
SciTegic.value.DoubleValue
-54.243

@<SCITEGIC>MOL_PROPERTY
W(PB)
SciTegic.value.DoubleValue
-56.495

@<SCITEGIC>MOL_PROPERTY
W(SA)
SciTegic.value.DoubleValue
2.251

@<SCITEGIC>MOL_PROPERTY
Valence
SciTegic.value.DoubleValue
5.284

@<SCITEGIC>MOL_PROPERTY
Coulomb
SciTegic.value.DoubleValue
21.247

@<SCITEGIC>MOL_PROPERTY
VdW
SciTegic.value.DoubleValue
0.951

@<SCITEGIC>MOL_PROPERTY
VdW6
SciTegic.value.DoubleValue
-9.416

@<SCITEGIC>MOL_PROPERTY
VdW12
SciTegic.value.DoubleValue
10.366

@<SCITEGIC>MOL_PROPERTY
Bond
SciTegic.value.DoubleValue
0.323

@<SCITEGIC>MOL_PROPERTY
Angle
SciTegic.value.DoubleValue
2.522

@<SCITEGIC>MOL_PROPERTY
Pdih
SciTegic.value.DoubleValue
2.439

@<SCITEGIC>MOL_PROPERTY
Idih
SciTegic.value.DoubleValue
0.000

@<SCITEGIC>MOL_PROPERTY
Tether
SciTegic.value.DoubleValue
0.000

@<TRIPOS>MOLECULE
guest-s13_vm2.mol2 : vm2 ligand conformer 70
          26          25           1
SMALL
USER_CHARGES
 
@<TRIPOS>ATOM
       1    C1      21.543566   19.283093   21.033104 C.3        1 MOL1        -0.2398
       2    H1      22.224305   20.114889   20.810452 H          1 MOL1         0.0972
       3    H2      21.772445   18.930294   22.044874 H          1 MOL1         0.0972
       4    H3      21.766631   18.470347   20.329785 H          1 MOL1         0.0972
       5    C2      20.072354   19.738274   20.902542 C.3        1 MOL1        -0.1383
       6    H4      19.925398   20.156977   19.897151 H          1 MOL1         0.0961
       7    H5      19.864365   20.561974   21.597070 H          1 MOL1         0.0961
       8    C3      19.052430   18.590941   21.106650 C.3        1 MOL1        -0.1407
       9    H6      18.042011   18.982796   20.925866 H          1 MOL1         0.0961
      10    H7      19.219196   17.832888   20.328966 H          1 MOL1         0.0961
      11    C4      19.077275   17.889166   22.491489 C.3        1 MOL1        -0.1407
      12    H8      20.041540   17.391909   22.653270 H          1 MOL1         0.0961
      13    H9      18.337773   17.077295   22.456059 H          1 MOL1         0.0961
      14    C5      18.712535   18.807063   23.690078 C.3        1 MOL1        -0.1472
      15    H10     17.928757   19.509903   23.377855 H          1 MOL1         0.0961
      16    H11     18.265642   18.193140   24.483352 H          1 MOL1         0.0961
      17    C6      19.905269   19.584468   24.291964 C.3        1 MOL1         0.1190
      18    H12     20.422404   20.115413   23.489495 H          1 MOL1         0.0923
      19    C7      19.406757   20.623287   25.308976 C.3        1 MOL1        -0.2463
      20    H13     18.879896   20.142188   26.142566 H          1 MOL1         0.0972
      21    H14     18.718719   21.334060   24.834506 H          1 MOL1         0.0972
      22    H15     20.245808   21.197659   25.720628 H          1 MOL1         0.0972
      23    N1      20.917815   18.671708   24.929196 N.4        1 MOL1        -0.5974
      24    H16     21.715415   19.197046   25.298399 H          1 MOL1         0.3625
      25    H17     20.509031   18.149708   25.708826 H          1 MOL1         0.3625
      26    H18     21.281653   17.989124   24.259564 H          1 MOL1         0.3625
@<TRIPOS>BOND
    1     1     2    1
    2     1     3    1
    3     1     4    1
    4     1     5    1
    5     5     6    1
    6     5     7    1
    7     5     8    1
    8     8     9    1
    9     8    10    1
   10     8    11    1
   11    11    12    1
   12    11    13    1
   13    11    14    1
   14    14    15    1
   15    14    16    1
   16    14    17    1
   17    17    18    1
   18    17    19    1
   19    19    20    1
   20    19    21    1
   21    19    22    1
   22    17    23    1
   23    23    24    1
   24    23    25    1
   25    23    26    1
@<TRIPOS>SUBSTRUCTURE
       1 MOL1            1 RESIDUE      1      MOL     
@<SCITEGIC>MOL_PROPERTY
VM2 Rank
SciTegic.value.IntegerValue
70

@<SCITEGIC>MOL_PROPERTY
Conf_Id
SciTegic.value.IntegerValue
160

@<SCITEGIC>MOL_PROPERTY
Probability
SciTegic.value.DoubleValue
0.01

@<SCITEGIC>MOL_PROPERTY
Sum Probability
SciTegic.value.DoubleValue
99.92

@<SCITEGIC>MOL_PROPERTY
Delta G
SciTegic.value.DoubleValue
4.242

@<SCITEGIC>MOL_PROPERTY
G
SciTegic.value.DoubleValue
27.952

@<SCITEGIC>MOL_PROPERTY
E
SciTegic.value.DoubleValue
-5.592

@<SCITEGIC>MOL_PROPERTY
-TS
SciTegic.value.DoubleValue
33.543

@<SCITEGIC>MOL_PROPERTY
U+W
SciTegic.value.DoubleValue
-27.054

@<SCITEGIC>MOL_PROPERTY
U
SciTegic.value.DoubleValue
27.275

@<SCITEGIC>MOL_PROPERTY
W
SciTegic.value.DoubleValue
-54.328

@<SCITEGIC>MOL_PROPERTY
W(PB)
SciTegic.value.DoubleValue
-56.534

@<SCITEGIC>MOL_PROPERTY
W(SA)
SciTegic.value.DoubleValue
2.205

@<SCITEGIC>MOL_PROPERTY
Valence
SciTegic.value.DoubleValue
5.855

@<SCITEGIC>MOL_PROPERTY
Coulomb
SciTegic.value.DoubleValue
21.051

@<SCITEGIC>MOL_PROPERTY
VdW
SciTegic.value.DoubleValue
0.369

@<SCITEGIC>MOL_PROPERTY
VdW6
SciTegic.value.DoubleValue
-9.999

@<SCITEGIC>MOL_PROPERTY
VdW12
SciTegic.value.DoubleValue
10.368

@<SCITEGIC>MOL_PROPERTY
Bond
SciTegic.value.DoubleValue
0.292

@<SCITEGIC>MOL_PROPERTY
Angle
SciTegic.value.DoubleValue
2.256

@<SCITEGIC>MOL_PROPERTY
Pdih
SciTegic.value.DoubleValue
3.306

@<SCITEGIC>MOL_PROPERTY
Idih
SciTegic.value.DoubleValue
0.000

@<SCITEGIC>MOL_PROPERTY
Tether
SciTegic.value.DoubleValue
0.000

@<TRIPOS>MOLECULE
guest-s13_vm2.mol2 : vm2 ligand conformer 71
          26          25           1
SMALL
USER_CHARGES
 
@<TRIPOS>ATOM
       1    C1      21.456425   19.094610   20.566142 C.3        1 MOL1        -0.2398
       2    H1      21.415488   20.189469   20.499594 H          1 MOL1         0.0972
       3    H2      21.808458   18.817323   21.567218 H          1 MOL1         0.0972
       4    H3      22.206200   18.742433   19.845954 H          1 MOL1         0.0972
       5    C2      20.079157   18.466078   20.261457 C.3        1 MOL1        -0.1383
       6    H4      20.139926   17.376299   20.389521 H          1 MOL1         0.0961
       7    H5      19.841663   18.634698   19.201782 H          1 MOL1         0.0961
       8    C3      18.917014   19.025885   21.121079 C.3        1 MOL1        -0.1407
       9    H6      18.781085   20.097602   20.920872 H          1 MOL1         0.0961
      10    H7      17.991369   18.541730   20.780165 H          1 MOL1         0.0961
      11    C4      19.060843   18.775654   22.644978 C.3        1 MOL1        -0.1407
      12    H8      19.642627   17.860608   22.816004 H          1 MOL1         0.0961
      13    H9      18.059903   18.581865   23.052587 H          1 MOL1         0.0961
      14    C5      19.681210   19.979678   23.406522 C.3        1 MOL1        -0.1472
      15    H10     20.631279   20.269013   22.944099 H          1 MOL1         0.0961
      16    H11     19.021896   20.850828   23.297137 H          1 MOL1         0.0961
      17    C6      19.931631   19.735762   24.913442 C.3        1 MOL1         0.1190
      18    H12     20.373990   20.649913   25.321443 H          1 MOL1         0.0923
      19    C7      18.626213   19.467663   25.682616 C.3        1 MOL1        -0.2463
      20    H13     18.174103   18.511479   25.393458 H          1 MOL1         0.0972
      21    H14     17.894645   20.264231   25.498680 H          1 MOL1         0.0972
      22    H15     18.817252   19.434634   26.762233 H          1 MOL1         0.0972
      23    N1      20.935508   18.642670   25.157763 N.4        1 MOL1        -0.5974
      24    H16     20.595144   17.741905   24.812841 H          1 MOL1         0.3625
      25    H17     21.824508   18.837473   24.688809 H          1 MOL1         0.3625
      26    H18     21.133957   18.533955   26.156376 H          1 MOL1         0.3625
@<TRIPOS>BOND
    1     1     2    1
    2     1     3    1
    3     1     4    1
    4     1     5    1
    5     5     6    1
    6     5     7    1
    7     5     8    1
    8     8     9    1
    9     8    10    1
   10     8    11    1
   11    11    12    1
   12    11    13    1
   13    11    14    1
   14    14    15    1
   15    14    16    1
   16    14    17    1
   17    17    18    1
   18    17    19    1
   19    19    20    1
   20    19    21    1
   21    19    22    1
   22    17    23    1
   23    23    24    1
   24    23    25    1
   25    23    26    1
@<TRIPOS>SUBSTRUCTURE
       1 MOL1            1 RESIDUE      1      MOL     
@<SCITEGIC>MOL_PROPERTY
VM2 Rank
SciTegic.value.IntegerValue
71

@<SCITEGIC>MOL_PROPERTY
Conf_Id
SciTegic.value.IntegerValue
734

@<SCITEGIC>MOL_PROPERTY
Probability
SciTegic.value.DoubleValue
0.01

@<SCITEGIC>MOL_PROPERTY
Sum Probability
SciTegic.value.DoubleValue
99.93

@<SCITEGIC>MOL_PROPERTY
Delta G
SciTegic.value.DoubleValue
4.262

@<SCITEGIC>MOL_PROPERTY
G
SciTegic.value.DoubleValue
27.972

@<SCITEGIC>MOL_PROPERTY
E
SciTegic.value.DoubleValue
-5.115

@<SCITEGIC>MOL_PROPERTY
-TS
SciTegic.value.DoubleValue
33.087

@<SCITEGIC>MOL_PROPERTY
U+W
SciTegic.value.DoubleValue
-26.577

@<SCITEGIC>MOL_PROPERTY
U
SciTegic.value.DoubleValue
27.751

@<SCITEGIC>MOL_PROPERTY
W
SciTegic.value.DoubleValue
-54.328

@<SCITEGIC>MOL_PROPERTY
W(PB)
SciTegic.value.DoubleValue
-56.572

@<SCITEGIC>MOL_PROPERTY
W(SA)
SciTegic.value.DoubleValue
2.244

@<SCITEGIC>MOL_PROPERTY
Valence
SciTegic.value.DoubleValue
6.249

@<SCITEGIC>MOL_PROPERTY
Coulomb
SciTegic.value.DoubleValue
20.445

@<SCITEGIC>MOL_PROPERTY
VdW
SciTegic.value.DoubleValue
1.057

@<SCITEGIC>MOL_PROPERTY
VdW6
SciTegic.value.DoubleValue
-9.101

@<SCITEGIC>MOL_PROPERTY
VdW12
SciTegic.value.DoubleValue
10.158

@<SCITEGIC>MOL_PROPERTY
Bond
SciTegic.value.DoubleValue
0.302

@<SCITEGIC>MOL_PROPERTY
Angle
SciTegic.value.DoubleValue
1.929

@<SCITEGIC>MOL_PROPERTY
Pdih
SciTegic.value.DoubleValue
4.018

@<SCITEGIC>MOL_PROPERTY
Idih
SciTegic.value.DoubleValue
0.000

@<SCITEGIC>MOL_PROPERTY
Tether
SciTegic.value.DoubleValue
0.000

@<TRIPOS>MOLECULE
guest-s13_vm2.mol2 : vm2 ligand conformer 72
          26          25           1
SMALL
USER_CHARGES
 
@<TRIPOS>ATOM
       1    C1      21.562500   18.857084   21.115975 C.3        1 MOL1        -0.2398
       2    H1      22.232135   18.344671   20.413173 H          1 MOL1         0.0972
       3    H2      21.980437   19.854264   21.305330 H          1 MOL1         0.0972
       4    H3      21.583114   18.293329   22.053764 H          1 MOL1         0.0972
       5    C2      20.137216   18.954794   20.524240 C.3        1 MOL1        -0.1383
       6    H4      19.729526   17.950304   20.344663 H          1 MOL1         0.0961
       7    H5      20.217866   19.428175   19.535635 H          1 MOL1         0.0961
       8    C3      19.152413   19.790636   21.382478 C.3        1 MOL1        -0.1407
       9    H6      19.676619   20.629619   21.859001 H          1 MOL1         0.0961
      10    H7      18.427071   20.254065   20.699449 H          1 MOL1         0.0961
      11    C4      18.339436   18.980941   22.428708 C.3        1 MOL1        -0.1407
      12    H8      17.775505   18.193335   21.910385 H          1 MOL1         0.0961
      13    H9      17.578717   19.640554   22.867062 H          1 MOL1         0.0961
      14    C5      19.163752   18.332269   23.570811 C.3        1 MOL1        -0.1472
      15    H10     18.473015   17.853141   24.277170 H          1 MOL1         0.0961
      16    H11     19.766462   17.517814   23.151398 H          1 MOL1         0.0961
      17    C6      20.083623   19.306398   24.343819 C.3        1 MOL1         0.1190
      18    H12     20.751503   19.791748   23.626121 H          1 MOL1         0.0923
      19    C7      19.282493   20.397389   25.076259 C.3        1 MOL1        -0.2463
      20    H13     18.561371   19.957444   25.776272 H          1 MOL1         0.0972
      21    H14     18.732711   21.029361   24.369138 H          1 MOL1         0.0972
      22    H15     19.952929   21.053023   25.645358 H          1 MOL1         0.0972
      23    N1      20.966567   18.568487   25.311710 N.4        1 MOL1        -0.5974
      24    H16     20.415539   18.087373   26.027546 H          1 MOL1         0.3625
      25    H17     21.539648   17.863590   24.839614 H          1 MOL1         0.3625
      26    H18     21.604923   19.205793   25.796249 H          1 MOL1         0.3625
@<TRIPOS>BOND
    1     1     2    1
    2     1     3    1
    3     1     4    1
    4     1     5    1
    5     5     6    1
    6     5     7    1
    7     5     8    1
    8     8     9    1
    9     8    10    1
   10     8    11    1
   11    11    12    1
   12    11    13    1
   13    11    14    1
   14    14    15    1
   15    14    16    1
   16    14    17    1
   17    17    18    1
   18    17    19    1
   19    19    20    1
   20    19    21    1
   21    19    22    1
   22    17    23    1
   23    23    24    1
   24    23    25    1
   25    23    26    1
@<TRIPOS>SUBSTRUCTURE
       1 MOL1            1 RESIDUE      1      MOL     
@<SCITEGIC>MOL_PROPERTY
VM2 Rank
SciTegic.value.IntegerValue
72

@<SCITEGIC>MOL_PROPERTY
Conf_Id
SciTegic.value.IntegerValue
265

@<SCITEGIC>MOL_PROPERTY
Probability
SciTegic.value.DoubleValue
0.01

@<SCITEGIC>MOL_PROPERTY
Sum Probability
SciTegic.value.DoubleValue
99.94

@<SCITEGIC>MOL_PROPERTY
Delta G
SciTegic.value.DoubleValue
4.474

@<SCITEGIC>MOL_PROPERTY
G
SciTegic.value.DoubleValue
28.184

@<SCITEGIC>MOL_PROPERTY
E
SciTegic.value.DoubleValue
-5.279

@<SCITEGIC>MOL_PROPERTY
-TS
SciTegic.value.DoubleValue
33.464

@<SCITEGIC>MOL_PROPERTY
U+W
SciTegic.value.DoubleValue
-26.741

@<SCITEGIC>MOL_PROPERTY
U
SciTegic.value.DoubleValue
27.819

@<SCITEGIC>MOL_PROPERTY
W
SciTegic.value.DoubleValue
-54.560

@<SCITEGIC>MOL_PROPERTY
W(PB)
SciTegic.value.DoubleValue
-56.768

@<SCITEGIC>MOL_PROPERTY
W(SA)
SciTegic.value.DoubleValue
2.208

@<SCITEGIC>MOL_PROPERTY
Valence
SciTegic.value.DoubleValue
6.497

@<SCITEGIC>MOL_PROPERTY
Coulomb
SciTegic.value.DoubleValue
20.855

@<SCITEGIC>MOL_PROPERTY
VdW
SciTegic.value.DoubleValue
0.467

@<SCITEGIC>MOL_PROPERTY
VdW6
SciTegic.value.DoubleValue
-10.243

@<SCITEGIC>MOL_PROPERTY
VdW12
SciTegic.value.DoubleValue
10.710

@<SCITEGIC>MOL_PROPERTY
Bond
SciTegic.value.DoubleValue
0.303

@<SCITEGIC>MOL_PROPERTY
Angle
SciTegic.value.DoubleValue
2.526

@<SCITEGIC>MOL_PROPERTY
Pdih
SciTegic.value.DoubleValue
3.667

@<SCITEGIC>MOL_PROPERTY
Idih
SciTegic.value.DoubleValue
0.000

@<SCITEGIC>MOL_PROPERTY
Tether
SciTegic.value.DoubleValue
0.000

@<TRIPOS>MOLECULE
guest-s13_vm2.mol2 : vm2 ligand conformer 73
          26          25           1
SMALL
USER_CHARGES
 
@<TRIPOS>ATOM
       1    C1      20.705201   20.305615   20.824577 C.3        1 MOL1        -0.2398
       2    H1      20.258642   20.829292   21.677689 H          1 MOL1         0.0972
       3    H2      21.707116   20.724914   20.665855 H          1 MOL1         0.0972
       4    H3      20.103424   20.529432   19.934234 H          1 MOL1         0.0972
       5    C2      20.788396   18.781217   21.066040 C.3        1 MOL1        -0.1383
       6    H4      21.406609   18.567405   21.946983 H          1 MOL1         0.0961
       7    H5      21.316077   18.322382   20.218253 H          1 MOL1         0.0961
       8    C3      19.402917   18.102930   21.202954 C.3        1 MOL1        -0.1407
       9    H6      18.854351   18.237542   20.260510 H          1 MOL1         0.0961
      10    H7      19.550562   17.019164   21.306956 H          1 MOL1         0.0961
      11    C4      18.506391   18.601681   22.368658 C.3        1 MOL1        -0.1407
      12    H8      17.550197   18.065895   22.292612 H          1 MOL1         0.0961
      13    H9      18.252244   19.659292   22.231181 H          1 MOL1         0.0961
      14    C5      19.080314   18.338857   23.788254 C.3        1 MOL1        -0.1472
      15    H10     18.246611   18.246146   24.496937 H          1 MOL1         0.0961
      16    H11     19.580170   17.361358   23.788961 H          1 MOL1         0.0961
      17    C6      20.053745   19.418738   24.318066 C.3        1 MOL1         0.1190
      18    H12     20.789907   19.641852   23.542669 H          1 MOL1         0.0923
      19    C7      19.320847   20.723021   24.681941 C.3        1 MOL1        -0.2463
      20    H13     18.825131   21.164226   23.810248 H          1 MOL1         0.0972
      21    H14     20.028284   21.468266   25.065894 H          1 MOL1         0.0972
      22    H15     18.560767   20.548503   25.453613 H          1 MOL1         0.0972
      23    N1      20.830190   18.915941   25.503510 N.4        1 MOL1        -0.5974
      24    H16     21.363025   18.071780   25.275513 H          1 MOL1         0.3625
      25    H17     21.497854   19.616371   25.838247 H          1 MOL1         0.3625
      26    H18     20.211298   18.686592   26.285757 H          1 MOL1         0.3625
@<TRIPOS>BOND
    1     1     2    1
    2     1     3    1
    3     1     4    1
    4     1     5    1
    5     5     6    1
    6     5     7    1
    7     5     8    1
    8     8     9    1
    9     8    10    1
   10     8    11    1
   11    11    12    1
   12    11    13    1
   13    11    14    1
   14    14    15    1
   15    14    16    1
   16    14    17    1
   17    17    18    1
   18    17    19    1
   19    19    20    1
   20    19    21    1
   21    19    22    1
   22    17    23    1
   23    23    24    1
   24    23    25    1
   25    23    26    1
@<TRIPOS>SUBSTRUCTURE
       1 MOL1            1 RESIDUE      1      MOL     
@<SCITEGIC>MOL_PROPERTY
VM2 Rank
SciTegic.value.IntegerValue
73

@<SCITEGIC>MOL_PROPERTY
Conf_Id
SciTegic.value.IntegerValue
1021

@<SCITEGIC>MOL_PROPERTY
Probability
SciTegic.value.DoubleValue
0.01

@<SCITEGIC>MOL_PROPERTY
Sum Probability
SciTegic.value.DoubleValue
99.95

@<SCITEGIC>MOL_PROPERTY
Delta G
SciTegic.value.DoubleValue
4.522

@<SCITEGIC>MOL_PROPERTY
G
SciTegic.value.DoubleValue
28.231

@<SCITEGIC>MOL_PROPERTY
E
SciTegic.value.DoubleValue
-5.461

@<SCITEGIC>MOL_PROPERTY
-TS
SciTegic.value.DoubleValue
33.692

@<SCITEGIC>MOL_PROPERTY
U+W
SciTegic.value.DoubleValue
-26.922

@<SCITEGIC>MOL_PROPERTY
U
SciTegic.value.DoubleValue
27.547

@<SCITEGIC>MOL_PROPERTY
W
SciTegic.value.DoubleValue
-54.470

@<SCITEGIC>MOL_PROPERTY
W(PB)
SciTegic.value.DoubleValue
-56.656

@<SCITEGIC>MOL_PROPERTY
W(SA)
SciTegic.value.DoubleValue
2.186

@<SCITEGIC>MOL_PROPERTY
Valence
SciTegic.value.DoubleValue
6.488

@<SCITEGIC>MOL_PROPERTY
Coulomb
SciTegic.value.DoubleValue
20.539

@<SCITEGIC>MOL_PROPERTY
VdW
SciTegic.value.DoubleValue
0.521

@<SCITEGIC>MOL_PROPERTY
VdW6
SciTegic.value.DoubleValue
-10.154

@<SCITEGIC>MOL_PROPERTY
VdW12
SciTegic.value.DoubleValue
10.675

@<SCITEGIC>MOL_PROPERTY
Bond
SciTegic.value.DoubleValue
0.309

@<SCITEGIC>MOL_PROPERTY
Angle
SciTegic.value.DoubleValue
2.564

@<SCITEGIC>MOL_PROPERTY
Pdih
SciTegic.value.DoubleValue
3.615

@<SCITEGIC>MOL_PROPERTY
Idih
SciTegic.value.DoubleValue
0.000

@<SCITEGIC>MOL_PROPERTY
Tether
SciTegic.value.DoubleValue
0.000

@<TRIPOS>MOLECULE
guest-s13_vm2.mol2 : vm2 ligand conformer 74
          26          25           1
SMALL
USER_CHARGES
 
@<TRIPOS>ATOM
       1    C1      20.732527   18.411484   19.876118 C.3        1 MOL1        -0.2398
       2    H1      20.825556   19.278215   19.208982 H          1 MOL1         0.0972
       3    H2      21.602576   18.395026   20.544336 H          1 MOL1         0.0972
       4    H3      20.774406   17.505377   19.258011 H          1 MOL1         0.0972
       5    C2      19.409197   18.462537   20.672530 C.3        1 MOL1        -0.1383
       6    H4      19.352278   17.601184   21.350494 H          1 MOL1         0.0961
       7    H5      18.571626   18.343139   19.971165 H          1 MOL1         0.0961
       8    C3      19.205561   19.784781   21.457211 C.3        1 MOL1        -0.1407
       9    H6      19.108852   20.604883   20.732514 H          1 MOL1         0.0961
      10    H7      18.240525   19.737987   21.974363 H          1 MOL1         0.0961
      11    C4      20.335182   20.155441   22.459591 C.3        1 MOL1        -0.1407
      12    H8      20.123940   21.141236   22.896257 H          1 MOL1         0.0961
      13    H9      21.267440   20.289925   21.895436 H          1 MOL1         0.0961
      14    C5      20.591287   19.131961   23.601393 C.3        1 MOL1        -0.1472
      15    H10     20.392842   18.108055   23.265627 H          1 MOL1         0.0961
      16    H11     21.664539   19.160182   23.831237 H          1 MOL1         0.0961
      17    C6      19.834082   19.413743   24.921683 C.3        1 MOL1         0.1190
      18    H12     20.106084   20.417182   25.263338 H          1 MOL1         0.0923
      19    C7      18.305856   19.360654   24.761159 C.3        1 MOL1        -0.2463
      20    H13     17.810560   19.438315   25.736825 H          1 MOL1         0.0972
      21    H14     17.986611   18.422765   24.289909 H          1 MOL1         0.0972
      22    H15     17.947336   20.199123   24.153950 H          1 MOL1         0.0972
      23    N1      20.274307   18.467399   26.004313 N.4        1 MOL1        -0.5974
      24    H16     20.049652   17.497442   25.767399 H          1 MOL1         0.3625
      25    H17     21.284525   18.519476   26.163431 H          1 MOL1         0.3625
      26    H18     19.815127   18.678345   26.894839 H          1 MOL1         0.3625
@<TRIPOS>BOND
    1     1     2    1
    2     1     3    1
    3     1     4    1
    4     1     5    1
    5     5     6    1
    6     5     7    1
    7     5     8    1
    8     8     9    1
    9     8    10    1
   10     8    11    1
   11    11    12    1
   12    11    13    1
   13    11    14    1
   14    14    15    1
   15    14    16    1
   16    14    17    1
   17    17    18    1
   18    17    19    1
   19    19    20    1
   20    19    21    1
   21    19    22    1
   22    17    23    1
   23    23    24    1
   24    23    25    1
   25    23    26    1
@<TRIPOS>SUBSTRUCTURE
       1 MOL1            1 RESIDUE      1      MOL     
@<SCITEGIC>MOL_PROPERTY
VM2 Rank
SciTegic.value.IntegerValue
74

@<SCITEGIC>MOL_PROPERTY
Conf_Id
SciTegic.value.IntegerValue
1302

@<SCITEGIC>MOL_PROPERTY
Probability
SciTegic.value.DoubleValue
0.01

@<SCITEGIC>MOL_PROPERTY
Sum Probability
SciTegic.value.DoubleValue
99.96

@<SCITEGIC>MOL_PROPERTY
Delta G
SciTegic.value.DoubleValue
4.616

@<SCITEGIC>MOL_PROPERTY
G
SciTegic.value.DoubleValue
28.326

@<SCITEGIC>MOL_PROPERTY
E
SciTegic.value.DoubleValue
-4.564

@<SCITEGIC>MOL_PROPERTY
-TS
SciTegic.value.DoubleValue
32.891

@<SCITEGIC>MOL_PROPERTY
U+W
SciTegic.value.DoubleValue
-26.026

@<SCITEGIC>MOL_PROPERTY
U
SciTegic.value.DoubleValue
28.262

@<SCITEGIC>MOL_PROPERTY
W
SciTegic.value.DoubleValue
-54.288

@<SCITEGIC>MOL_PROPERTY
W(PB)
SciTegic.value.DoubleValue
-56.488

@<SCITEGIC>MOL_PROPERTY
W(SA)
SciTegic.value.DoubleValue
2.200

@<SCITEGIC>MOL_PROPERTY
Valence
SciTegic.value.DoubleValue
7.096

@<SCITEGIC>MOL_PROPERTY
Coulomb
SciTegic.value.DoubleValue
19.991

@<SCITEGIC>MOL_PROPERTY
VdW
SciTegic.value.DoubleValue
1.175

@<SCITEGIC>MOL_PROPERTY
VdW6
SciTegic.value.DoubleValue
-9.406

@<SCITEGIC>MOL_PROPERTY
VdW12
SciTegic.value.DoubleValue
10.581

@<SCITEGIC>MOL_PROPERTY
Bond
SciTegic.value.DoubleValue
0.360

@<SCITEGIC>MOL_PROPERTY
Angle
SciTegic.value.DoubleValue
2.786

@<SCITEGIC>MOL_PROPERTY
Pdih
SciTegic.value.DoubleValue
3.950

@<SCITEGIC>MOL_PROPERTY
Idih
SciTegic.value.DoubleValue
0.000

@<SCITEGIC>MOL_PROPERTY
Tether
SciTegic.value.DoubleValue
0.000

@<TRIPOS>MOLECULE
guest-s13_vm2.mol2 : vm2 ligand conformer 75
          26          25           1
SMALL
USER_CHARGES
 
@<TRIPOS>ATOM
       1    C1      20.818642   17.992775   20.080435 C.3        1 MOL1        -0.2398
       2    H1      20.665853   17.035245   20.594906 H          1 MOL1         0.0972
       3    H2      20.943918   17.782264   19.010429 H          1 MOL1         0.0972
       4    H3      21.756542   18.432369   20.442044 H          1 MOL1         0.0972
       5    C2      19.621676   18.943770   20.307746 C.3        1 MOL1        -0.1383
       6    H4      18.730065   18.512430   19.831546 H          1 MOL1         0.0961
       7    H5      19.808292   19.900478   19.800153 H          1 MOL1         0.0961
       8    C3      19.314737   19.195123   21.803580 C.3        1 MOL1        -0.1407
       9    H6      18.399699   19.798892   21.876350 H          1 MOL1         0.0961
      10    H7      19.100351   18.232696   22.283562 H          1 MOL1         0.0961
      11    C4      20.463130   19.917760   22.549584 C.3        1 MOL1        -0.1407
      12    H8      20.790105   20.772289   21.941293 H          1 MOL1         0.0961
      13    H9      21.335887   19.256542   22.624931 H          1 MOL1         0.0961
      14    C5      20.090109   20.457247   23.959772 C.3        1 MOL1        -0.1472
      15    H10     20.965674   20.996705   24.344011 H          1 MOL1         0.0961
      16    H11     19.302620   21.216801   23.867500 H          1 MOL1         0.0961
      17    C6      19.684702   19.417594   25.036907 C.3        1 MOL1         0.1190
      18    H12     19.890127   19.878239   26.008196 H          1 MOL1         0.0923
      19    C7      18.178237   19.098649   25.019699 C.3        1 MOL1        -0.2463
      20    H13     17.912868   18.468837   25.877629 H          1 MOL1         0.0972
      21    H14     17.872289   18.568345   24.113216 H          1 MOL1         0.0972
      22    H15     17.585142   20.018583   25.092646 H          1 MOL1         0.0972
      23    N1      20.516767   18.165082   24.996276 N.4        1 MOL1        -0.5974
      24    H16     20.394801   17.671079   24.108870 H          1 MOL1         0.3625
      25    H17     21.513591   18.375902   25.097880 H          1 MOL1         0.3625
      26    H18     20.261304   17.520209   25.749480 H          1 MOL1         0.3625
@<TRIPOS>BOND
    1     1     2    1
    2     1     3    1
    3     1     4    1
    4     1     5    1
    5     5     6    1
    6     5     7    1
    7     5     8    1
    8     8     9    1
    9     8    10    1
   10     8    11    1
   11    11    12    1
   12    11    13    1
   13    11    14    1
   14    14    15    1
   15    14    16    1
   16    14    17    1
   17    17    18    1
   18    17    19    1
   19    19    20    1
   20    19    21    1
   21    19    22    1
   22    17    23    1
   23    23    24    1
   24    23    25    1
   25    23    26    1
@<TRIPOS>SUBSTRUCTURE
       1 MOL1            1 RESIDUE      1      MOL     
@<SCITEGIC>MOL_PROPERTY
VM2 Rank
SciTegic.value.IntegerValue
75

@<SCITEGIC>MOL_PROPERTY
Conf_Id
SciTegic.value.IntegerValue
240

@<SCITEGIC>MOL_PROPERTY
Probability
SciTegic.value.DoubleValue
0.01

@<SCITEGIC>MOL_PROPERTY
Sum Probability
SciTegic.value.DoubleValue
99.96

@<SCITEGIC>MOL_PROPERTY
Delta G
SciTegic.value.DoubleValue
4.722

@<SCITEGIC>MOL_PROPERTY
G
SciTegic.value.DoubleValue
28.432

@<SCITEGIC>MOL_PROPERTY
E
SciTegic.value.DoubleValue
-4.752

@<SCITEGIC>MOL_PROPERTY
-TS
SciTegic.value.DoubleValue
33.183

@<SCITEGIC>MOL_PROPERTY
U+W
SciTegic.value.DoubleValue
-26.214

@<SCITEGIC>MOL_PROPERTY
U
SciTegic.value.DoubleValue
27.935

@<SCITEGIC>MOL_PROPERTY
W
SciTegic.value.DoubleValue
-54.148

@<SCITEGIC>MOL_PROPERTY
W(PB)
SciTegic.value.DoubleValue
-56.370

@<SCITEGIC>MOL_PROPERTY
W(SA)
SciTegic.value.DoubleValue
2.221

@<SCITEGIC>MOL_PROPERTY
Valence
SciTegic.value.DoubleValue
6.278

@<SCITEGIC>MOL_PROPERTY
Coulomb
SciTegic.value.DoubleValue
20.605

@<SCITEGIC>MOL_PROPERTY
VdW
SciTegic.value.DoubleValue
1.052

@<SCITEGIC>MOL_PROPERTY
VdW6
SciTegic.value.DoubleValue
-9.401

@<SCITEGIC>MOL_PROPERTY
VdW12
SciTegic.value.DoubleValue
10.453

@<SCITEGIC>MOL_PROPERTY
Bond
SciTegic.value.DoubleValue
0.315

@<SCITEGIC>MOL_PROPERTY
Angle
SciTegic.value.DoubleValue
2.523

@<SCITEGIC>MOL_PROPERTY
Pdih
SciTegic.value.DoubleValue
3.440

@<SCITEGIC>MOL_PROPERTY
Idih
SciTegic.value.DoubleValue
0.000

@<SCITEGIC>MOL_PROPERTY
Tether
SciTegic.value.DoubleValue
0.000

@<TRIPOS>MOLECULE
guest-s13_vm2.mol2 : vm2 ligand conformer 76
          26          25           1
SMALL
USER_CHARGES
 
@<TRIPOS>ATOM
       1    C1      19.167709   18.376754   19.810026 C.3        1 MOL1        -0.2398
       2    H1      18.513493   18.908078   19.106686 H          1 MOL1         0.0972
       3    H2      19.981694   17.919166   19.232765 H          1 MOL1         0.0972
       4    H3      18.581990   17.571802   20.272773 H          1 MOL1         0.0972
       5    C2      19.720086   19.344576   20.877626 C.3        1 MOL1        -0.1383
       6    H4      18.878539   19.812240   21.404257 H          1 MOL1         0.0961
       7    H5      20.273269   20.155338   20.383393 H          1 MOL1         0.0961
       8    C3      20.647941   18.617877   21.879740 C.3        1 MOL1        -0.1407
       9    H6      20.110755   17.799926   22.373533 H          1 MOL1         0.0961
      10    H7      21.461512   18.137873   21.318425 H          1 MOL1         0.0961
      11    C4      21.280584   19.560261   22.934037 C.3        1 MOL1        -0.1407
      12    H8      21.905826   20.292656   22.404979 H          1 MOL1         0.0961
      13    H9      21.979485   18.982554   23.553390 H          1 MOL1         0.0961
      14    C5      20.297209   20.343117   23.853989 C.3        1 MOL1        -0.1472
      15    H10     20.906913   21.002042   24.485870 H          1 MOL1         0.0961
      16    H11     19.677922   21.023527   23.256091 H          1 MOL1         0.0961
      17    C6      19.396537   19.514663   24.807539 C.3        1 MOL1         0.1190
      18    H12     19.130925   20.177288   25.637089 H          1 MOL1         0.0923
      19    C7      18.068817   19.083796   24.158222 C.3        1 MOL1        -0.2463
      20    H13     18.212231   18.348387   23.361262 H          1 MOL1         0.0972
      21    H14     17.543260   19.948789   23.735404 H          1 MOL1         0.0972
      22    H15     17.407505   18.633328   24.908431 H          1 MOL1         0.0972
      23    N1      20.109119   18.346955   25.432823 N.4        1 MOL1        -0.5974
      24    H16     20.947516   18.647803   25.937721 H          1 MOL1         0.3625
      25    H17     19.508837   17.854916   26.100573 H          1 MOL1         0.3625
      26    H18     20.402167   17.671618   24.722723 H          1 MOL1         0.3625
@<TRIPOS>BOND
    1     1     2    1
    2     1     3    1
    3     1     4    1
    4     1     5    1
    5     5     6    1
    6     5     7    1
    7     5     8    1
    8     8     9    1
    9     8    10    1
   10     8    11    1
   11    11    12    1
   12    11    13    1
   13    11    14    1
   14    14    15    1
   15    14    16    1
   16    14    17    1
   17    17    18    1
   18    17    19    1
   19    19    20    1
   20    19    21    1
   21    19    22    1
   22    17    23    1
   23    23    24    1
   24    23    25    1
   25    23    26    1
@<TRIPOS>SUBSTRUCTURE
       1 MOL1            1 RESIDUE      1      MOL     
@<SCITEGIC>MOL_PROPERTY
VM2 Rank
SciTegic.value.IntegerValue
76

@<SCITEGIC>MOL_PROPERTY
Conf_Id
SciTegic.value.IntegerValue
544

@<SCITEGIC>MOL_PROPERTY
Probability
SciTegic.value.DoubleValue
0.01

@<SCITEGIC>MOL_PROPERTY
Sum Probability
SciTegic.value.DoubleValue
99.97

@<SCITEGIC>MOL_PROPERTY
Delta G
SciTegic.value.DoubleValue
4.734

@<SCITEGIC>MOL_PROPERTY
G
SciTegic.value.DoubleValue
28.444

@<SCITEGIC>MOL_PROPERTY
E
SciTegic.value.DoubleValue
-5.154

@<SCITEGIC>MOL_PROPERTY
-TS
SciTegic.value.DoubleValue
33.598

@<SCITEGIC>MOL_PROPERTY
U+W
SciTegic.value.DoubleValue
-26.616

@<SCITEGIC>MOL_PROPERTY
U
SciTegic.value.DoubleValue
27.716

@<SCITEGIC>MOL_PROPERTY
W
SciTegic.value.DoubleValue
-54.332

@<SCITEGIC>MOL_PROPERTY
W(PB)
SciTegic.value.DoubleValue
-56.532

@<SCITEGIC>MOL_PROPERTY
W(SA)
SciTegic.value.DoubleValue
2.201

@<SCITEGIC>MOL_PROPERTY
Valence
SciTegic.value.DoubleValue
6.453

@<SCITEGIC>MOL_PROPERTY
Coulomb
SciTegic.value.DoubleValue
20.600

@<SCITEGIC>MOL_PROPERTY
VdW
SciTegic.value.DoubleValue
0.663

@<SCITEGIC>MOL_PROPERTY
VdW6
SciTegic.value.DoubleValue
-9.987

@<SCITEGIC>MOL_PROPERTY
VdW12
SciTegic.value.DoubleValue
10.650

@<SCITEGIC>MOL_PROPERTY
Bond
SciTegic.value.DoubleValue
0.338

@<SCITEGIC>MOL_PROPERTY
Angle
SciTegic.value.DoubleValue
3.006

@<SCITEGIC>MOL_PROPERTY
Pdih
SciTegic.value.DoubleValue
3.109

@<SCITEGIC>MOL_PROPERTY
Idih
SciTegic.value.DoubleValue
0.000

@<SCITEGIC>MOL_PROPERTY
Tether
SciTegic.value.DoubleValue
0.000

@<TRIPOS>MOLECULE
guest-s13_vm2.mol2 : vm2 ligand conformer 77
          26          25           1
SMALL
USER_CHARGES
 
@<TRIPOS>ATOM
       1    C1      19.651404   18.268144   19.964409 C.3        1 MOL1        -0.2398
       2    H1      20.022462   18.930696   19.171766 H          1 MOL1         0.0972
       3    H2      19.514877   17.269100   19.530693 H          1 MOL1         0.0972
       4    H3      18.664750   18.629235   20.280341 H          1 MOL1         0.0972
       5    C2      20.640278   18.213219   21.150477 C.3        1 MOL1        -0.1383
       6    H4      21.574811   17.746459   20.809041 H          1 MOL1         0.0961
       7    H5      20.239925   17.552287   21.929546 H          1 MOL1         0.0961
       8    C3      20.970141   19.610164   21.736199 C.3        1 MOL1        -0.1407
       9    H6      21.735564   19.512543   22.515292 H          1 MOL1         0.0961
      10    H7      21.442594   20.213868   20.948958 H          1 MOL1         0.0961
      11    C4      19.754012   20.400815   22.289067 C.3        1 MOL1        -0.1407
      12    H8      19.100445   20.671069   21.448895 H          1 MOL1         0.0961
      13    H9      20.112439   21.356581   22.695572 H          1 MOL1         0.0961
      14    C5      18.893390   19.689521   23.369444 C.3        1 MOL1        -0.1472
      15    H10     18.018449   20.328104   23.549958 H          1 MOL1         0.0961
      16    H11     18.491120   18.743054   22.987062 H          1 MOL1         0.0961
      17    C6      19.612143   19.459771   24.720058 C.3        1 MOL1         0.1190
      18    H12     20.188516   20.358783   24.959000 H          1 MOL1         0.0923
      19    C7      18.584678   19.234888   25.841724 C.3        1 MOL1        -0.2463
      20    H13     17.919035   20.101270   25.941849 H          1 MOL1         0.0972
      21    H14     19.087293   19.090966   26.806148 H          1 MOL1         0.0972
      22    H15     17.966907   18.350250   25.642409 H          1 MOL1         0.0972
      23    N1      20.581954   18.311477   24.682623 N.4        1 MOL1        -0.5974
      24    H16     20.099068   17.423658   24.522933 H          1 MOL1         0.3625
      25    H17     21.267569   18.429984   23.933219 H          1 MOL1         0.3625
      26    H18     21.095658   18.226761   25.564412 H          1 MOL1         0.3625
@<TRIPOS>BOND
    1     1     2    1
    2     1     3    1
    3     1     4    1
    4     1     5    1
    5     5     6    1
    6     5     7    1
    7     5     8    1
    8     8     9    1
    9     8    10    1
   10     8    11    1
   11    11    12    1
   12    11    13    1
   13    11    14    1
   14    14    15    1
   15    14    16    1
   16    14    17    1
   17    17    18    1
   18    17    19    1
   19    19    20    1
   20    19    21    1
   21    19    22    1
   22    17    23    1
   23    23    24    1
   24    23    25    1
   25    23    26    1
@<TRIPOS>SUBSTRUCTURE
       1 MOL1            1 RESIDUE      1      MOL     
@<SCITEGIC>MOL_PROPERTY
VM2 Rank
SciTegic.value.IntegerValue
77

@<SCITEGIC>MOL_PROPERTY
Conf_Id
SciTegic.value.IntegerValue
1298

@<SCITEGIC>MOL_PROPERTY
Probability
SciTegic.value.DoubleValue
0.01

@<SCITEGIC>MOL_PROPERTY
Sum Probability
SciTegic.value.DoubleValue
99.98

@<SCITEGIC>MOL_PROPERTY
Delta G
SciTegic.value.DoubleValue
4.740

@<SCITEGIC>MOL_PROPERTY
G
SciTegic.value.DoubleValue
28.450

@<SCITEGIC>MOL_PROPERTY
E
SciTegic.value.DoubleValue
-4.948

@<SCITEGIC>MOL_PROPERTY
-TS
SciTegic.value.DoubleValue
33.398

@<SCITEGIC>MOL_PROPERTY
U+W
SciTegic.value.DoubleValue
-26.410

@<SCITEGIC>MOL_PROPERTY
U
SciTegic.value.DoubleValue
27.564

@<SCITEGIC>MOL_PROPERTY
W
SciTegic.value.DoubleValue
-53.974

@<SCITEGIC>MOL_PROPERTY
W(PB)
SciTegic.value.DoubleValue
-56.203

@<SCITEGIC>MOL_PROPERTY
W(SA)
SciTegic.value.DoubleValue
2.228

@<SCITEGIC>MOL_PROPERTY
Valence
SciTegic.value.DoubleValue
5.430

@<SCITEGIC>MOL_PROPERTY
Coulomb
SciTegic.value.DoubleValue
21.472

@<SCITEGIC>MOL_PROPERTY
VdW
SciTegic.value.DoubleValue
0.662

@<SCITEGIC>MOL_PROPERTY
VdW6
SciTegic.value.DoubleValue
-9.933

@<SCITEGIC>MOL_PROPERTY
VdW12
SciTegic.value.DoubleValue
10.595

@<SCITEGIC>MOL_PROPERTY
Bond
SciTegic.value.DoubleValue
0.322

@<SCITEGIC>MOL_PROPERTY
Angle
SciTegic.value.DoubleValue
2.461

@<SCITEGIC>MOL_PROPERTY
Pdih
SciTegic.value.DoubleValue
2.647

@<SCITEGIC>MOL_PROPERTY
Idih
SciTegic.value.DoubleValue
0.000

@<SCITEGIC>MOL_PROPERTY
Tether
SciTegic.value.DoubleValue
0.000

@<TRIPOS>MOLECULE
guest-s13_vm2.mol2 : vm2 ligand conformer 78
          26          25           1
SMALL
USER_CHARGES
 
@<TRIPOS>ATOM
       1    C1      20.956409   17.782530   20.083784 C.3        1 MOL1        -0.2398
       2    H1      21.285228   18.430933   19.261143 H          1 MOL1         0.0972
       3    H2      21.836619   17.521282   20.685426 H          1 MOL1         0.0972
       4    H3      20.561767   16.856927   19.644913 H          1 MOL1         0.0972
       5    C2      19.880687   18.479381   20.943256 C.3        1 MOL1        -0.1383
       6    H4      19.544150   17.786275   21.724340 H          1 MOL1         0.0961
       7    H5      19.002728   18.698721   20.319620 H          1 MOL1         0.0961
       8    C3      20.412497   19.791651   21.567008 C.3        1 MOL1        -0.1407
       9    H6      21.308172   19.597206   22.169169 H          1 MOL1         0.0961
      10    H7      20.746532   20.453282   20.755662 H          1 MOL1         0.0961
      11    C4      19.356486   20.555885   22.405827 C.3        1 MOL1        -0.1407
      12    H8      18.540018   20.864638   21.738471 H          1 MOL1         0.0961
      13    H9      19.808363   21.488374   22.771428 H          1 MOL1         0.0961
      14    C5      18.740497   19.794808   23.612392 C.3        1 MOL1        -0.1472
      15    H10     17.981963   20.456281   24.051819 H          1 MOL1         0.0961
      16    H11     18.192369   18.906512   23.274103 H          1 MOL1         0.0961
      17    C6      19.752598   19.408507   24.717109 C.3        1 MOL1         0.1190
      18    H12     20.457359   20.236393   24.841490 H          1 MOL1         0.0923
      19    C7      19.028781   19.187091   26.055551 C.3        1 MOL1        -0.2463
      20    H13     18.294699   18.375060   25.980138 H          1 MOL1         0.0972
      21    H14     18.501728   20.096470   26.370168 H          1 MOL1         0.0972
      22    H15     19.744137   18.929323   26.846299 H          1 MOL1         0.0972
      23    N1      20.560047   18.188146   24.369072 N.4        1 MOL1        -0.5974
      24    H16     19.967553   17.355686   24.313212 H          1 MOL1         0.3625
      25    H17     21.025074   18.297087   23.464168 H          1 MOL1         0.3625
      26    H18     21.281671   18.003601   25.071912 H          1 MOL1         0.3625
@<TRIPOS>BOND
    1     1     2    1
    2     1     3    1
    3     1     4    1
    4     1     5    1
    5     5     6    1
    6     5     7    1
    7     5     8    1
    8     8     9    1
    9     8    10    1
   10     8    11    1
   11    11    12    1
   12    11    13    1
   13    11    14    1
   14    14    15    1
   15    14    16    1
   16    14    17    1
   17    17    18    1
   18    17    19    1
   19    19    20    1
   20    19    21    1
   21    19    22    1
   22    17    23    1
   23    23    24    1
   24    23    25    1
   25    23    26    1
@<TRIPOS>SUBSTRUCTURE
       1 MOL1            1 RESIDUE      1      MOL     
@<SCITEGIC>MOL_PROPERTY
VM2 Rank
SciTegic.value.IntegerValue
78

@<SCITEGIC>MOL_PROPERTY
Conf_Id
SciTegic.value.IntegerValue
749

@<SCITEGIC>MOL_PROPERTY
Probability
SciTegic.value.DoubleValue
0.01

@<SCITEGIC>MOL_PROPERTY
Sum Probability
SciTegic.value.DoubleValue
99.98

@<SCITEGIC>MOL_PROPERTY
Delta G
SciTegic.value.DoubleValue
4.844

@<SCITEGIC>MOL_PROPERTY
G
SciTegic.value.DoubleValue
28.553

@<SCITEGIC>MOL_PROPERTY
E
SciTegic.value.DoubleValue
-4.669

@<SCITEGIC>MOL_PROPERTY
-TS
SciTegic.value.DoubleValue
33.223

@<SCITEGIC>MOL_PROPERTY
U+W
SciTegic.value.DoubleValue
-26.131

@<SCITEGIC>MOL_PROPERTY
U
SciTegic.value.DoubleValue
27.025

@<SCITEGIC>MOL_PROPERTY
W
SciTegic.value.DoubleValue
-53.156

@<SCITEGIC>MOL_PROPERTY
W(PB)
SciTegic.value.DoubleValue
-55.402

@<SCITEGIC>MOL_PROPERTY
W(SA)
SciTegic.value.DoubleValue
2.245

@<SCITEGIC>MOL_PROPERTY
Valence
SciTegic.value.DoubleValue
5.027

@<SCITEGIC>MOL_PROPERTY
Coulomb
SciTegic.value.DoubleValue
21.327

@<SCITEGIC>MOL_PROPERTY
VdW
SciTegic.value.DoubleValue
0.671

@<SCITEGIC>MOL_PROPERTY
VdW6
SciTegic.value.DoubleValue
-9.248

@<SCITEGIC>MOL_PROPERTY
VdW12
SciTegic.value.DoubleValue
9.920

@<SCITEGIC>MOL_PROPERTY
Bond
SciTegic.value.DoubleValue
0.272

@<SCITEGIC>MOL_PROPERTY
Angle
SciTegic.value.DoubleValue
2.161

@<SCITEGIC>MOL_PROPERTY
Pdih
SciTegic.value.DoubleValue
2.594

@<SCITEGIC>MOL_PROPERTY
Idih
SciTegic.value.DoubleValue
0.000

@<SCITEGIC>MOL_PROPERTY
Tether
SciTegic.value.DoubleValue
0.000

@<TRIPOS>MOLECULE
guest-s13_vm2.mol2 : vm2 ligand conformer 79
          26          25           1
SMALL
USER_CHARGES
 
@<TRIPOS>ATOM
       1    C1      20.661723   17.745188   20.099814 C.3        1 MOL1        -0.2398
       2    H1      21.657822   17.630397   19.652959 H          1 MOL1         0.0972
       3    H2      20.431873   16.824251   20.651180 H          1 MOL1         0.0972
       4    H3      19.935851   17.843992   19.282127 H          1 MOL1         0.0972
       5    C2      20.620705   18.976160   21.029601 C.3        1 MOL1        -0.1383
       6    H4      20.885775   19.874860   20.455269 H          1 MOL1         0.0961
       7    H5      21.387980   18.863301   21.805536 H          1 MOL1         0.0961
       8    C3      19.223013   19.162748   21.666037 C.3        1 MOL1        -0.1407
       9    H6      18.483423   19.266905   20.860032 H          1 MOL1         0.0961
      10    H7      18.928872   18.261671   22.217005 H          1 MOL1         0.0961
      11    C4      19.118189   20.410104   22.580202 C.3        1 MOL1        -0.1407
      12    H8      18.080046   20.511274   22.923727 H          1 MOL1         0.0961
      13    H9      19.306963   21.303124   21.968648 H          1 MOL1         0.0961
      14    C5      20.074541   20.451948   23.808400 C.3        1 MOL1        -0.1472
      15    H10     21.116101   20.507486   23.468107 H          1 MOL1         0.0961
      16    H11     19.896317   21.400292   24.332170 H          1 MOL1         0.0961
      17    C6      19.940412   19.314602   24.853630 C.3        1 MOL1         0.1190
      18    H12     20.516160   19.622143   25.732078 H          1 MOL1         0.0923
      19    C7      18.486251   19.105738   25.311252 C.3        1 MOL1        -0.2463
      20    H13     17.861206   18.703515   24.505162 H          1 MOL1         0.0972
      21    H14     18.045664   20.051794   25.649449 H          1 MOL1         0.0972
      22    H15     18.445339   18.400981   26.150720 H          1 MOL1         0.0972
      23    N1      20.563166   18.021512   24.405064 N.4        1 MOL1        -0.5974
      24    H16     21.562831   18.134711   24.215269 H          1 MOL1         0.3625
      25    H17     20.468437   17.293599   25.119052 H          1 MOL1         0.3625
      26    H18     20.123718   17.678094   23.548047 H          1 MOL1         0.3625
@<TRIPOS>BOND
    1     1     2    1
    2     1     3    1
    3     1     4    1
    4     1     5    1
    5     5     6    1
    6     5     7    1
    7     5     8    1
    8     8     9    1
    9     8    10    1
   10     8    11    1
   11    11    12    1
   12    11    13    1
   13    11    14    1
   14    14    15    1
   15    14    16    1
   16    14    17    1
   17    17    18    1
   18    17    19    1
   19    19    20    1
   20    19    21    1
   21    19    22    1
   22    17    23    1
   23    23    24    1
   24    23    25    1
   25    23    26    1
@<TRIPOS>SUBSTRUCTURE
       1 MOL1            1 RESIDUE      1      MOL     
@<SCITEGIC>MOL_PROPERTY
VM2 Rank
SciTegic.value.IntegerValue
79

@<SCITEGIC>MOL_PROPERTY
Conf_Id
SciTegic.value.IntegerValue
150

@<SCITEGIC>MOL_PROPERTY
Probability
SciTegic.value.DoubleValue
0.00

@<SCITEGIC>MOL_PROPERTY
Sum Probability
SciTegic.value.DoubleValue
99.99

@<SCITEGIC>MOL_PROPERTY
Delta G
SciTegic.value.DoubleValue
4.904

@<SCITEGIC>MOL_PROPERTY
G
SciTegic.value.DoubleValue
28.614

@<SCITEGIC>MOL_PROPERTY
E
SciTegic.value.DoubleValue
-5.029

@<SCITEGIC>MOL_PROPERTY
-TS
SciTegic.value.DoubleValue
33.643

@<SCITEGIC>MOL_PROPERTY
U+W
SciTegic.value.DoubleValue
-26.491

@<SCITEGIC>MOL_PROPERTY
U
SciTegic.value.DoubleValue
27.281

@<SCITEGIC>MOL_PROPERTY
W
SciTegic.value.DoubleValue
-53.772

@<SCITEGIC>MOL_PROPERTY
W(PB)
SciTegic.value.DoubleValue
-55.968

@<SCITEGIC>MOL_PROPERTY
W(SA)
SciTegic.value.DoubleValue
2.197

@<SCITEGIC>MOL_PROPERTY
Valence
SciTegic.value.DoubleValue
5.160

@<SCITEGIC>MOL_PROPERTY
Coulomb
SciTegic.value.DoubleValue
21.564

@<SCITEGIC>MOL_PROPERTY
VdW
SciTegic.value.DoubleValue
0.558

@<SCITEGIC>MOL_PROPERTY
VdW6
SciTegic.value.DoubleValue
-10.215

@<SCITEGIC>MOL_PROPERTY
VdW12
SciTegic.value.DoubleValue
10.773

@<SCITEGIC>MOL_PROPERTY
Bond
SciTegic.value.DoubleValue
0.332

@<SCITEGIC>MOL_PROPERTY
Angle
SciTegic.value.DoubleValue
2.658

@<SCITEGIC>MOL_PROPERTY
Pdih
SciTegic.value.DoubleValue
2.170

@<SCITEGIC>MOL_PROPERTY
Idih
SciTegic.value.DoubleValue
0.000

@<SCITEGIC>MOL_PROPERTY
Tether
SciTegic.value.DoubleValue
0.000

@<TRIPOS>MOLECULE
guest-s13_vm2.mol2 : vm2 ligand conformer 80
          26          25           1
SMALL
USER_CHARGES
 
@<TRIPOS>ATOM
       1    C1      20.199336   19.077978   19.445033 C.3        1 MOL1        -0.2398
       2    H1      20.898429   19.902117   19.631908 H          1 MOL1         0.0972
       3    H2      20.518293   18.580404   18.520037 H          1 MOL1         0.0972
       4    H3      19.203141   19.504384   19.269615 H          1 MOL1         0.0972
       5    C2      20.174727   18.071659   20.618223 C.3        1 MOL1        -0.1383
       6    H4      21.187929   17.685606   20.797487 H          1 MOL1         0.0961
       7    H5      19.564315   17.206300   20.324260 H          1 MOL1         0.0961
       8    C3      19.597087   18.660914   21.928123 C.3        1 MOL1        -0.1407
       9    H6      18.594514   19.067584   21.736901 H          1 MOL1         0.0961
      10    H7      19.473728   17.833205   22.635998 H          1 MOL1         0.0961
      11    C4      20.496108   19.750087   22.564191 C.3        1 MOL1        -0.1407
      12    H8      20.707478   20.523350   21.815055 H          1 MOL1         0.0961
      13    H9      21.471048   19.317078   22.824716 H          1 MOL1         0.0961
      14    C5      19.883188   20.466751   23.801307 C.3        1 MOL1        -0.1472
      15    H10     20.594877   21.242516   24.112711 H          1 MOL1         0.0961
      16    H11     18.978955   21.011727   23.499657 H          1 MOL1         0.0961
      17    C6      19.575148   19.602276   25.051657 C.3        1 MOL1         0.1190
      18    H12     19.616268   20.275165   25.913822 H          1 MOL1         0.0923
      19    C7      18.151508   19.014984   25.031188 C.3        1 MOL1        -0.2463
      20    H13     18.009313   18.285061   24.229024 H          1 MOL1         0.0972
      21    H14     17.406156   19.809524   24.902549 H          1 MOL1         0.0972
      22    H15     17.933051   18.511919   25.981103 H          1 MOL1         0.0972
      23    N1      20.610898   18.543352   25.314278 N.4        1 MOL1        -0.5974
      24    H16     20.651977   17.869299   24.546079 H          1 MOL1         0.3625
      25    H17     21.544238   18.951869   25.416279 H          1 MOL1         0.3625
      26    H18     20.407832   18.024435   26.173292 H          1 MOL1         0.3625
@<TRIPOS>BOND
    1     1     2    1
    2     1     3    1
    3     1     4    1
    4     1     5    1
    5     5     6    1
    6     5     7    1
    7     5     8    1
    8     8     9    1
    9     8    10    1
   10     8    11    1
   11    11    12    1
   12    11    13    1
   13    11    14    1
   14    14    15    1
   15    14    16    1
   16    14    17    1
   17    17    18    1
   18    17    19    1
   19    19    20    1
   20    19    21    1
   21    19    22    1
   22    17    23    1
   23    23    24    1
   24    23    25    1
   25    23    26    1
@<TRIPOS>SUBSTRUCTURE
       1 MOL1            1 RESIDUE      1      MOL     
@<SCITEGIC>MOL_PROPERTY
VM2 Rank
SciTegic.value.IntegerValue
80

@<SCITEGIC>MOL_PROPERTY
Conf_Id
SciTegic.value.IntegerValue
241

@<SCITEGIC>MOL_PROPERTY
Probability
SciTegic.value.DoubleValue
0.00

@<SCITEGIC>MOL_PROPERTY
Sum Probability
SciTegic.value.DoubleValue
99.99

@<SCITEGIC>MOL_PROPERTY
Delta G
SciTegic.value.DoubleValue
4.932

@<SCITEGIC>MOL_PROPERTY
G
SciTegic.value.DoubleValue
28.642

@<SCITEGIC>MOL_PROPERTY
E
SciTegic.value.DoubleValue
-4.460

@<SCITEGIC>MOL_PROPERTY
-TS
SciTegic.value.DoubleValue
33.102

@<SCITEGIC>MOL_PROPERTY
U+W
SciTegic.value.DoubleValue
-25.922

@<SCITEGIC>MOL_PROPERTY
U
SciTegic.value.DoubleValue
28.238

@<SCITEGIC>MOL_PROPERTY
W
SciTegic.value.DoubleValue
-54.160

@<SCITEGIC>MOL_PROPERTY
W(PB)
SciTegic.value.DoubleValue
-56.416

@<SCITEGIC>MOL_PROPERTY
W(SA)
SciTegic.value.DoubleValue
2.256

@<SCITEGIC>MOL_PROPERTY
Valence
SciTegic.value.DoubleValue
6.520

@<SCITEGIC>MOL_PROPERTY
Coulomb
SciTegic.value.DoubleValue
20.564

@<SCITEGIC>MOL_PROPERTY
VdW
SciTegic.value.DoubleValue
1.154

@<SCITEGIC>MOL_PROPERTY
VdW6
SciTegic.value.DoubleValue
-9.254

@<SCITEGIC>MOL_PROPERTY
VdW12
SciTegic.value.DoubleValue
10.408

@<SCITEGIC>MOL_PROPERTY
Bond
SciTegic.value.DoubleValue
0.327

@<SCITEGIC>MOL_PROPERTY
Angle
SciTegic.value.DoubleValue
2.699

@<SCITEGIC>MOL_PROPERTY
Pdih
SciTegic.value.DoubleValue
3.494

@<SCITEGIC>MOL_PROPERTY
Idih
SciTegic.value.DoubleValue
0.000

@<SCITEGIC>MOL_PROPERTY
Tether
SciTegic.value.DoubleValue
0.000

@<TRIPOS>MOLECULE
guest-s13_vm2.mol2 : vm2 ligand conformer 81
          26          25           1
SMALL
USER_CHARGES
 
@<TRIPOS>ATOM
       1    C1      20.793581   19.184610   19.961617 C.3        1 MOL1        -0.2398
       2    H1      21.768920   19.034566   19.480960 H          1 MOL1         0.0972
       3    H2      20.015770   18.974024   19.216237 H          1 MOL1         0.0972
       4    H3      20.723201   20.242709   20.242842 H          1 MOL1         0.0972
       5    C2      20.648627   18.261259   21.192068 C.3        1 MOL1        -0.1383
       6    H4      21.428810   18.504762   21.923885 H          1 MOL1         0.0961
       7    H5      20.839384   17.225114   20.879405 H          1 MOL1         0.0961
       8    C3      19.245035   18.329700   21.846884 C.3        1 MOL1        -0.1407
       9    H6      18.499403   18.013433   21.104389 H          1 MOL1         0.0961
      10    H7      19.177845   17.588680   22.652331 H          1 MOL1         0.0961
      11    C4      18.834504   19.726539   22.384352 C.3        1 MOL1        -0.1407
      12    H8      17.819464   19.662055   22.797811 H          1 MOL1         0.0961
      13    H9      18.747042   20.417600   21.535637 H          1 MOL1         0.0961
      14    C5      19.784191   20.367066   23.438651 C.3        1 MOL1        -0.1472
      15    H10     20.773622   20.534745   22.995152 H          1 MOL1         0.0961
      16    H11     19.398809   21.370489   23.662232 H          1 MOL1         0.0961
      17    C6      19.949386   19.625478   24.790409 C.3        1 MOL1         0.1190
      18    H12     20.468478   20.312179   25.466209 H          1 MOL1         0.0923
      19    C7      18.598211   19.279552   25.440032 C.3        1 MOL1        -0.2463
      20    H13     17.960963   20.169787   25.510166 H          1 MOL1         0.0972
      21    H14     18.747991   18.896695   26.456918 H          1 MOL1         0.0972
      22    H15     18.059274   18.513556   24.869762 H          1 MOL1         0.0972
      23    N1      20.834465   18.413796   24.699988 N.4        1 MOL1        -0.5974
      24    H16     21.770877   18.659297   24.367061 H          1 MOL1         0.3625
      25    H17     20.943173   17.961905   25.612421 H          1 MOL1         0.3625
      26    H18     20.447581   17.722234   24.054266 H          1 MOL1         0.3625
@<TRIPOS>BOND
    1     1     2    1
    2     1     3    1
    3     1     4    1
    4     1     5    1
    5     5     6    1
    6     5     7    1
    7     5     8    1
    8     8     9    1
    9     8    10    1
   10     8    11    1
   11    11    12    1
   12    11    13    1
   13    11    14    1
   14    14    15    1
   15    14    16    1
   16    14    17    1
   17    17    18    1
   18    17    19    1
   19    19    20    1
   20    19    21    1
   21    19    22    1
   22    17    23    1
   23    23    24    1
   24    23    25    1
   25    23    26    1
@<TRIPOS>SUBSTRUCTURE
       1 MOL1            1 RESIDUE      1      MOL     
@<SCITEGIC>MOL_PROPERTY
VM2 Rank
SciTegic.value.IntegerValue
81

@<SCITEGIC>MOL_PROPERTY
Conf_Id
SciTegic.value.IntegerValue
1237

@<SCITEGIC>MOL_PROPERTY
Probability
SciTegic.value.DoubleValue
0.00

@<SCITEGIC>MOL_PROPERTY
Sum Probability
SciTegic.value.DoubleValue
99.99

@<SCITEGIC>MOL_PROPERTY
Delta G
SciTegic.value.DoubleValue
5.060

@<SCITEGIC>MOL_PROPERTY
G
SciTegic.value.DoubleValue
28.770

@<SCITEGIC>MOL_PROPERTY
E
SciTegic.value.DoubleValue
-5.031

@<SCITEGIC>MOL_PROPERTY
-TS
SciTegic.value.DoubleValue
33.801

@<SCITEGIC>MOL_PROPERTY
U+W
SciTegic.value.DoubleValue
-26.493

@<SCITEGIC>MOL_PROPERTY
U
SciTegic.value.DoubleValue
27.883

@<SCITEGIC>MOL_PROPERTY
W
SciTegic.value.DoubleValue
-54.375

@<SCITEGIC>MOL_PROPERTY
W(PB)
SciTegic.value.DoubleValue
-56.572

@<SCITEGIC>MOL_PROPERTY
W(SA)
SciTegic.value.DoubleValue
2.197

@<SCITEGIC>MOL_PROPERTY
Valence
SciTegic.value.DoubleValue
5.604

@<SCITEGIC>MOL_PROPERTY
Coulomb
SciTegic.value.DoubleValue
21.671

@<SCITEGIC>MOL_PROPERTY
VdW
SciTegic.value.DoubleValue
0.608

@<SCITEGIC>MOL_PROPERTY
VdW6
SciTegic.value.DoubleValue
-10.842

@<SCITEGIC>MOL_PROPERTY
VdW12
SciTegic.value.DoubleValue
11.450

@<SCITEGIC>MOL_PROPERTY
Bond
SciTegic.value.DoubleValue
0.377

@<SCITEGIC>MOL_PROPERTY
Angle
SciTegic.value.DoubleValue
2.942

@<SCITEGIC>MOL_PROPERTY
Pdih
SciTegic.value.DoubleValue
2.285

@<SCITEGIC>MOL_PROPERTY
Idih
SciTegic.value.DoubleValue
0.000

@<SCITEGIC>MOL_PROPERTY
Tether
SciTegic.value.DoubleValue
0.000

@<TRIPOS>MOLECULE
guest-s13_vm2.mol2 : vm2 ligand conformer 82
          26          25           1
SMALL
USER_CHARGES
 
@<TRIPOS>ATOM
       1    C1      19.836835   19.487762   19.836537 C.3        1 MOL1        -0.2398
       2    H1      20.618488   18.940911   19.293503 H          1 MOL1         0.0972
       3    H2      19.058649   19.766934   19.114523 H          1 MOL1         0.0972
       4    H3      20.273724   20.415379   20.226729 H          1 MOL1         0.0972
       5    C2      19.239235   18.623428   20.969552 C.3        1 MOL1        -0.1383
       6    H4      18.716463   17.766682   20.522072 H          1 MOL1         0.0961
       7    H5      18.472534   19.198623   21.503779 H          1 MOL1         0.0961
       8    C3      20.304425   18.088948   21.960889 C.3        1 MOL1        -0.1407
       9    H6      19.827800   17.418616   22.685597 H          1 MOL1         0.0961
      10    H7      21.009270   17.455080   21.405386 H          1 MOL1         0.0961
      11    C4      21.115351   19.178945   22.709496 C.3        1 MOL1        -0.1407
      12    H8      21.722686   19.724498   21.975161 H          1 MOL1         0.0961
      13    H9      21.846364   18.688741   23.365721 H          1 MOL1         0.0961
      14    C5      20.296480   20.220589   23.528098 C.3        1 MOL1        -0.1472
      15    H10     21.009776   20.969068   23.896999 H          1 MOL1         0.0961
      16    H11     19.622042   20.778059   22.866018 H          1 MOL1         0.0961
      17    C6      19.512220   19.703567   24.762853 C.3        1 MOL1         0.1190
      18    H12     19.368767   20.565523   25.421799 H          1 MOL1         0.0923
      19    C7      18.104464   19.189375   24.412740 C.3        1 MOL1        -0.2463
      20    H13     17.536503   18.984532   25.328458 H          1 MOL1         0.0972
      21    H14     18.131804   18.264871   23.828793 H          1 MOL1         0.0972
      22    H15     17.545594   19.940867   23.841693 H          1 MOL1         0.0972
      23    N1      20.278990   18.695386   25.573834 N.4        1 MOL1        -0.5974
      24    H16     19.763454   18.419776   26.414398 H          1 MOL1         0.3625
      25    H17     20.461303   17.848218   25.030385 H          1 MOL1         0.3625
      26    H18     21.182907   19.068853   25.876746 H          1 MOL1         0.3625
@<TRIPOS>BOND
    1     1     2    1
    2     1     3    1
    3     1     4    1
    4     1     5    1
    5     5     6    1
    6     5     7    1
    7     5     8    1
    8     8     9    1
    9     8    10    1
   10     8    11    1
   11    11    12    1
   12    11    13    1
   13    11    14    1
   14    14    15    1
   15    14    16    1
   16    14    17    1
   17    17    18    1
   18    17    19    1
   19    19    20    1
   20    19    21    1
   21    19    22    1
   22    17    23    1
   23    23    24    1
   24    23    25    1
   25    23    26    1
@<TRIPOS>SUBSTRUCTURE
       1 MOL1            1 RESIDUE      1      MOL     
@<SCITEGIC>MOL_PROPERTY
VM2 Rank
SciTegic.value.IntegerValue
82

@<SCITEGIC>MOL_PROPERTY
Conf_Id
SciTegic.value.IntegerValue
76

@<SCITEGIC>MOL_PROPERTY
Probability
SciTegic.value.DoubleValue
0.00

@<SCITEGIC>MOL_PROPERTY
Sum Probability
SciTegic.value.DoubleValue
100.00

@<SCITEGIC>MOL_PROPERTY
Delta G
SciTegic.value.DoubleValue
5.265

@<SCITEGIC>MOL_PROPERTY
G
SciTegic.value.DoubleValue
28.975

@<SCITEGIC>MOL_PROPERTY
E
SciTegic.value.DoubleValue
-4.847

@<SCITEGIC>MOL_PROPERTY
-TS
SciTegic.value.DoubleValue
33.822

@<SCITEGIC>MOL_PROPERTY
U+W
SciTegic.value.DoubleValue
-26.309

@<SCITEGIC>MOL_PROPERTY
U
SciTegic.value.DoubleValue
28.161

@<SCITEGIC>MOL_PROPERTY
W
SciTegic.value.DoubleValue
-54.470

@<SCITEGIC>MOL_PROPERTY
W(PB)
SciTegic.value.DoubleValue
-56.647

@<SCITEGIC>MOL_PROPERTY
W(SA)
SciTegic.value.DoubleValue
2.177

@<SCITEGIC>MOL_PROPERTY
Valence
SciTegic.value.DoubleValue
6.893

@<SCITEGIC>MOL_PROPERTY
Coulomb
SciTegic.value.DoubleValue
20.537

@<SCITEGIC>MOL_PROPERTY
VdW
SciTegic.value.DoubleValue
0.732

@<SCITEGIC>MOL_PROPERTY
VdW6
SciTegic.value.DoubleValue
-10.681

@<SCITEGIC>MOL_PROPERTY
VdW12
SciTegic.value.DoubleValue
11.413

@<SCITEGIC>MOL_PROPERTY
Bond
SciTegic.value.DoubleValue
0.380

@<SCITEGIC>MOL_PROPERTY
Angle
SciTegic.value.DoubleValue
3.328

@<SCITEGIC>MOL_PROPERTY
Pdih
SciTegic.value.DoubleValue
3.184

@<SCITEGIC>MOL_PROPERTY
Idih
SciTegic.value.DoubleValue
0.000

@<SCITEGIC>MOL_PROPERTY
Tether
SciTegic.value.DoubleValue
0.000

@<TRIPOS>MOLECULE
guest-s13_vm2.mol2 : vm2 ligand conformer 83
          26          25           1
SMALL
USER_CHARGES
 
@<TRIPOS>ATOM
       1    C1      21.403530   18.318254   20.671313 C.3        1 MOL1        -0.2398
       2    H1      22.470714   18.504808   20.493977 H          1 MOL1         0.0972
       3    H2      21.329342   17.536237   21.435364 H          1 MOL1         0.0972
       4    H3      20.975051   17.926296   19.739683 H          1 MOL1         0.0972
       5    C2      20.692440   19.622349   21.100724 C.3        1 MOL1        -0.1383
       6    H4      20.895697   20.390228   20.341172 H          1 MOL1         0.0961
       7    H5      21.138560   20.002921   22.025659 H          1 MOL1         0.0961
       8    C3      19.154002   19.475608   21.237114 C.3        1 MOL1        -0.1407
       9    H6      18.707129   20.464794   21.406984 H          1 MOL1         0.0961
      10    H7      18.763049   19.141303   20.266115 H          1 MOL1         0.0961
      11    C4      18.650460   18.490116   22.327780 C.3        1 MOL1        -0.1407
      12    H8      19.257733   17.577689   22.348576 H          1 MOL1         0.0961
      13    H9      17.648015   18.154029   22.028673 H          1 MOL1         0.0961
      14    C5      18.517050   19.094262   23.752426 C.3        1 MOL1        -0.1472
      15    H10     17.816181   19.938703   23.713791 H          1 MOL1         0.0961
      16    H11     18.050567   18.344716   24.405521 H          1 MOL1         0.0961
      17    C6      19.834794   19.569217   24.400993 C.3        1 MOL1         0.1190
      18    H12     20.249934   20.372565   23.787128 H          1 MOL1         0.0923
      19    C7      19.565786   20.138317   25.803081 C.3        1 MOL1        -0.2463
      20    H13     18.852678   20.970733   25.755305 H          1 MOL1         0.0972
      21    H14     20.491712   20.518705   26.251747 H          1 MOL1         0.0972
      22    H15     19.152373   19.372103   26.470829 H          1 MOL1         0.0972
      23    N1      20.869938   18.479877   24.460569 N.4        1 MOL1        -0.5974
      24    H16     20.546114   17.689318   25.024276 H          1 MOL1         0.3625
      25    H17     21.084059   18.128340   23.523257 H          1 MOL1         0.3625
      26    H18     21.744201   18.815604   24.874836 H          1 MOL1         0.3625
@<TRIPOS>BOND
    1     1     2    1
    2     1     3    1
    3     1     4    1
    4     1     5    1
    5     5     6    1
    6     5     7    1
    7     5     8    1
    8     8     9    1
    9     8    10    1
   10     8    11    1
   11    11    12    1
   12    11    13    1
   13    11    14    1
   14    14    15    1
   15    14    16    1
   16    14    17    1
   17    17    18    1
   18    17    19    1
   19    19    20    1
   20    19    21    1
   21    19    22    1
   22    17    23    1
   23    23    24    1
   24    23    25    1
   25    23    26    1
@<TRIPOS>SUBSTRUCTURE
       1 MOL1            1 RESIDUE      1      MOL     
@<SCITEGIC>MOL_PROPERTY
VM2 Rank
SciTegic.value.IntegerValue
83

@<SCITEGIC>MOL_PROPERTY
Conf_Id
SciTegic.value.IntegerValue
1073

@<SCITEGIC>MOL_PROPERTY
Probability
SciTegic.value.DoubleValue
0.00

@<SCITEGIC>MOL_PROPERTY
Sum Probability
SciTegic.value.DoubleValue
100.00

@<SCITEGIC>MOL_PROPERTY
Delta G
SciTegic.value.DoubleValue
5.339

@<SCITEGIC>MOL_PROPERTY
G
SciTegic.value.DoubleValue
29.049

@<SCITEGIC>MOL_PROPERTY
E
SciTegic.value.DoubleValue
-4.379

@<SCITEGIC>MOL_PROPERTY
-TS
SciTegic.value.DoubleValue
33.428

@<SCITEGIC>MOL_PROPERTY
U+W
SciTegic.value.DoubleValue
-25.841

@<SCITEGIC>MOL_PROPERTY
U
SciTegic.value.DoubleValue
27.602

@<SCITEGIC>MOL_PROPERTY
W
SciTegic.value.DoubleValue
-53.443

@<SCITEGIC>MOL_PROPERTY
W(PB)
SciTegic.value.DoubleValue
-55.679

@<SCITEGIC>MOL_PROPERTY
W(SA)
SciTegic.value.DoubleValue
2.236

@<SCITEGIC>MOL_PROPERTY
Valence
SciTegic.value.DoubleValue
6.052

@<SCITEGIC>MOL_PROPERTY
Coulomb
SciTegic.value.DoubleValue
21.011

@<SCITEGIC>MOL_PROPERTY
VdW
SciTegic.value.DoubleValue
0.540

@<SCITEGIC>MOL_PROPERTY
VdW6
SciTegic.value.DoubleValue
-9.881

@<SCITEGIC>MOL_PROPERTY
VdW12
SciTegic.value.DoubleValue
10.420

@<SCITEGIC>MOL_PROPERTY
Bond
SciTegic.value.DoubleValue
0.319

@<SCITEGIC>MOL_PROPERTY
Angle
SciTegic.value.DoubleValue
2.619

@<SCITEGIC>MOL_PROPERTY
Pdih
SciTegic.value.DoubleValue
3.114

@<SCITEGIC>MOL_PROPERTY
Idih
SciTegic.value.DoubleValue
0.000

@<SCITEGIC>MOL_PROPERTY
Tether
SciTegic.value.DoubleValue
0.000

@<TRIPOS>MOLECULE
guest-s13_vm2.mol2 : vm2 ligand conformer 84
          26          25           1
SMALL
USER_CHARGES
 
@<TRIPOS>ATOM
       1    C1      20.003774   20.464395   20.804811 C.3        1 MOL1        -0.2398
       2    H1      19.333272   20.695863   21.639415 H          1 MOL1         0.0972
       3    H2      20.693308   21.309645   20.682412 H          1 MOL1         0.0972
       4    H3      19.392666   20.399376   19.895181 H          1 MOL1         0.0972
       5    C2      20.788829   19.151278   21.031864 C.3        1 MOL1        -0.1383
       6    H4      21.500766   19.259931   21.860911 H          1 MOL1         0.0961
       7    H5      21.400941   18.966988   20.137816 H          1 MOL1         0.0961
       8    C3      19.869563   17.925365   21.261875 C.3        1 MOL1        -0.1407
       9    H6      18.904863   18.076073   20.757985 H          1 MOL1         0.0961
      10    H7      20.327979   17.061714   20.760409 H          1 MOL1         0.0961
      11    C4      19.637188   17.527280   22.744506 C.3        1 MOL1        -0.1407
      12    H8      20.591781   17.251203   23.210186 H          1 MOL1         0.0961
      13    H9      19.039513   16.605251   22.742597 H          1 MOL1         0.0961
      14    C5      18.884580   18.573385   23.610036 C.3        1 MOL1        -0.1472
      15    H10     18.086313   19.028676   23.009322 H          1 MOL1         0.0961
      16    H11     18.378867   18.050581   24.432724 H          1 MOL1         0.0961
      17    C6      19.783885   19.674793   24.217507 C.3        1 MOL1         0.1190
      18    H12     20.347116   20.152682   23.412636 H          1 MOL1         0.0923
      19    C7      18.922708   20.748912   24.900721 C.3        1 MOL1        -0.2463
      20    H13     18.224483   21.201966   24.185967 H          1 MOL1         0.0972
      21    H14     19.551579   21.551630   25.305100 H          1 MOL1         0.0972
      22    H15     18.338282   20.323638   25.726246 H          1 MOL1         0.0972
      23    N1      20.797474   19.122591   25.182681 N.4        1 MOL1        -0.5974
      24    H16     21.395500   19.862255   25.561648 H          1 MOL1         0.3625
      25    H17     20.344236   18.659985   25.975067 H          1 MOL1         0.3625
      26    H18     21.407805   18.435351   24.732971 H          1 MOL1         0.3625
@<TRIPOS>BOND
    1     1     2    1
    2     1     3    1
    3     1     4    1
    4     1     5    1
    5     5     6    1
    6     5     7    1
    7     5     8    1
    8     8     9    1
    9     8    10    1
   10     8    11    1
   11    11    12    1
   12    11    13    1
   13    11    14    1
   14    14    15    1
   15    14    16    1
   16    14    17    1
   17    17    18    1
   18    17    19    1
   19    19    20    1
   20    19    21    1
   21    19    22    1
   22    17    23    1
   23    23    24    1
   24    23    25    1
   25    23    26    1
@<TRIPOS>SUBSTRUCTURE
       1 MOL1            1 RESIDUE      1      MOL     
@<SCITEGIC>MOL_PROPERTY
VM2 Rank
SciTegic.value.IntegerValue
84

@<SCITEGIC>MOL_PROPERTY
Conf_Id
SciTegic.value.IntegerValue
369

@<SCITEGIC>MOL_PROPERTY
Probability
SciTegic.value.DoubleValue
0.00

@<SCITEGIC>MOL_PROPERTY
Sum Probability
SciTegic.value.DoubleValue
100.00

@<SCITEGIC>MOL_PROPERTY
Delta G
SciTegic.value.DoubleValue
5.964

@<SCITEGIC>MOL_PROPERTY
G
SciTegic.value.DoubleValue
29.674

@<SCITEGIC>MOL_PROPERTY
E
SciTegic.value.DoubleValue
-3.801

@<SCITEGIC>MOL_PROPERTY
-TS
SciTegic.value.DoubleValue
33.476

@<SCITEGIC>MOL_PROPERTY
U+W
SciTegic.value.DoubleValue
-25.263

@<SCITEGIC>MOL_PROPERTY
U
SciTegic.value.DoubleValue
29.018

@<SCITEGIC>MOL_PROPERTY
W
SciTegic.value.DoubleValue
-54.281

@<SCITEGIC>MOL_PROPERTY
W(PB)
SciTegic.value.DoubleValue
-56.489

@<SCITEGIC>MOL_PROPERTY
W(SA)
SciTegic.value.DoubleValue
2.207

@<SCITEGIC>MOL_PROPERTY
Valence
SciTegic.value.DoubleValue
7.756

@<SCITEGIC>MOL_PROPERTY
Coulomb
SciTegic.value.DoubleValue
20.779

@<SCITEGIC>MOL_PROPERTY
VdW
SciTegic.value.DoubleValue
0.484

@<SCITEGIC>MOL_PROPERTY
VdW6
SciTegic.value.DoubleValue
-10.173

@<SCITEGIC>MOL_PROPERTY
VdW12
SciTegic.value.DoubleValue
10.657

@<SCITEGIC>MOL_PROPERTY
Bond
SciTegic.value.DoubleValue
0.300

@<SCITEGIC>MOL_PROPERTY
Angle
SciTegic.value.DoubleValue
2.387

@<SCITEGIC>MOL_PROPERTY
Pdih
SciTegic.value.DoubleValue
5.069

@<SCITEGIC>MOL_PROPERTY
Idih
SciTegic.value.DoubleValue
0.000

@<SCITEGIC>MOL_PROPERTY
Tether
SciTegic.value.DoubleValue
0.000

@<TRIPOS>MOLECULE
guest-s13_vm2.mol2 : vm2 ligand conformer 85
          26          25           1
SMALL
USER_CHARGES
 
@<TRIPOS>ATOM
       1    C1      19.122800   18.451375   20.212759 C.3        1 MOL1        -0.2398
       2    H1      18.800317   17.595279   20.819260 H          1 MOL1         0.0972
       3    H2      18.544572   19.332315   20.518074 H          1 MOL1         0.0972
       4    H3      18.867786   18.236448   19.166993 H          1 MOL1         0.0972
       5    C2      20.640761   18.696600   20.358928 C.3        1 MOL1        -0.1383
       6    H4      20.928244   19.574070   19.762982 H          1 MOL1         0.0961
       7    H5      21.179484   17.843432   19.923441 H          1 MOL1         0.0961
       8    C3      21.112994   18.884377   21.823035 C.3        1 MOL1        -0.1407
       9    H6      20.903102   17.971744   22.393578 H          1 MOL1         0.0961
      10    H7      22.207151   18.984499   21.808595 H          1 MOL1         0.0961
      11    C4      20.520006   20.134632   22.528851 C.3        1 MOL1        -0.1407
      12    H8      20.304527   20.901531   21.772106 H          1 MOL1         0.0961
      13    H9      21.282109   20.581531   23.182299 H          1 MOL1         0.0961
      14    C5      19.238012   19.864009   23.363009 C.3        1 MOL1        -0.1472
      15    H10     18.625412   20.775185   23.346038 H          1 MOL1         0.0961
      16    H11     18.628023   19.080300   22.898121 H          1 MOL1         0.0961
      17    C6      19.517606   19.508289   24.841706 C.3        1 MOL1         0.1190
      18    H12     20.100924   20.323188   25.281367 H          1 MOL1         0.0923
      19    C7      18.197616   19.389042   25.620319 C.3        1 MOL1        -0.2463
      20    H13     18.389228   19.180030   26.680025 H          1 MOL1         0.0972
      21    H14     17.572265   18.581150   25.220163 H          1 MOL1         0.0972
      22    H15     17.625597   20.323566   25.564107 H          1 MOL1         0.0972
      23    N1      20.338205   18.259677   25.005393 N.4        1 MOL1        -0.5974
      24    H16     21.232319   18.339817   24.513415 H          1 MOL1         0.3625
      25    H17     20.543458   18.072870   25.991033 H          1 MOL1         0.3625
      26    H18     19.849586   17.441742   24.632309 H          1 MOL1         0.3625
@<TRIPOS>BOND
    1     1     2    1
    2     1     3    1
    3     1     4    1
    4     1     5    1
    5     5     6    1
    6     5     7    1
    7     5     8    1
    8     8     9    1
    9     8    10    1
   10     8    11    1
   11    11    12    1
   12    11    13    1
   13    11    14    1
   14    14    15    1
   15    14    16    1
   16    14    17    1
   17    17    18    1
   18    17    19    1
   19    19    20    1
   20    19    21    1
   21    19    22    1
   22    17    23    1
   23    23    24    1
   24    23    25    1
   25    23    26    1
@<TRIPOS>SUBSTRUCTURE
       1 MOL1            1 RESIDUE      1      MOL     
@<SCITEGIC>MOL_PROPERTY
VM2 Rank
SciTegic.value.IntegerValue
85

@<SCITEGIC>MOL_PROPERTY
Conf_Id
SciTegic.value.IntegerValue
825

@<SCITEGIC>MOL_PROPERTY
Probability
SciTegic.value.DoubleValue
0.00

@<SCITEGIC>MOL_PROPERTY
Sum Probability
SciTegic.value.DoubleValue
100.00

@<SCITEGIC>MOL_PROPERTY
Delta G
SciTegic.value.DoubleValue
6.148

@<SCITEGIC>MOL_PROPERTY
G
SciTegic.value.DoubleValue
29.858

@<SCITEGIC>MOL_PROPERTY
E
SciTegic.value.DoubleValue
-3.254

@<SCITEGIC>MOL_PROPERTY
-TS
SciTegic.value.DoubleValue
33.111

@<SCITEGIC>MOL_PROPERTY
U+W
SciTegic.value.DoubleValue
-24.715

@<SCITEGIC>MOL_PROPERTY
U
SciTegic.value.DoubleValue
29.339

@<SCITEGIC>MOL_PROPERTY
W
SciTegic.value.DoubleValue
-54.054

@<SCITEGIC>MOL_PROPERTY
W(PB)
SciTegic.value.DoubleValue
-56.307

@<SCITEGIC>MOL_PROPERTY
W(SA)
SciTegic.value.DoubleValue
2.253

@<SCITEGIC>MOL_PROPERTY
Valence
SciTegic.value.DoubleValue
7.538

@<SCITEGIC>MOL_PROPERTY
Coulomb
SciTegic.value.DoubleValue
20.791

@<SCITEGIC>MOL_PROPERTY
VdW
SciTegic.value.DoubleValue
1.011

@<SCITEGIC>MOL_PROPERTY
VdW6
SciTegic.value.DoubleValue
-9.264

@<SCITEGIC>MOL_PROPERTY
VdW12
SciTegic.value.DoubleValue
10.275

@<SCITEGIC>MOL_PROPERTY
Bond
SciTegic.value.DoubleValue
0.315

@<SCITEGIC>MOL_PROPERTY
Angle
SciTegic.value.DoubleValue
1.806

@<SCITEGIC>MOL_PROPERTY
Pdih
SciTegic.value.DoubleValue
5.416

@<SCITEGIC>MOL_PROPERTY
Idih
SciTegic.value.DoubleValue
0.000

@<SCITEGIC>MOL_PROPERTY
Tether
SciTegic.value.DoubleValue
0.000

@<TRIPOS>MOLECULE
guest-s13_vm2.mol2 : vm2 ligand conformer 86
          26          25           1
SMALL
USER_CHARGES
 
@<TRIPOS>ATOM
       1    C1      21.506327   18.580007   21.144628 C.3        1 MOL1        -0.2398
       2    H1      21.398666   18.044933   22.094238 H          1 MOL1         0.0972
       3    H2      21.456030   17.837707   20.337415 H          1 MOL1         0.0972
       4    H3      22.507513   19.029434   21.121541 H          1 MOL1         0.0972
       5    C2      20.418887   19.663922   20.959490 C.3        1 MOL1        -0.1383
       6    H4      20.557528   20.114022   19.966439 H          1 MOL1         0.0961
       7    H5      20.556734   20.483192   21.677850 H          1 MOL1         0.0961
       8    C3      18.979395   19.098418   21.050285 C.3        1 MOL1        -0.1407
       9    H6      18.368044   19.609942   20.293915 H          1 MOL1         0.0961
      10    H7      18.969762   18.037826   20.763333 H          1 MOL1         0.0961
      11    C4      18.270445   19.284383   22.418952 C.3        1 MOL1        -0.1407
      12    H8      17.241985   18.915690   22.302295 H          1 MOL1         0.0961
      13    H9      18.166818   20.353069   22.642170 H          1 MOL1         0.0961
      14    C5      18.906114   18.524108   23.614992 C.3        1 MOL1        -0.1472
      15    H10     18.131795   18.357428   24.375573 H          1 MOL1         0.0961
      16    H11     19.207618   17.524947   23.274638 H          1 MOL1         0.0961
      17    C6      20.107634   19.226115   24.293671 C.3        1 MOL1         0.1190
      18    H12     20.841261   19.488441   23.528145 H          1 MOL1         0.0923
      19    C7      19.691340   20.514736   25.026046 C.3        1 MOL1        -0.2463
      20    H13     19.309505   21.268485   24.328659 H          1 MOL1         0.0972
      21    H14     20.550972   20.959420   25.542380 H          1 MOL1         0.0972
      22    H15     18.914047   20.313339   25.773631 H          1 MOL1         0.0972
      23    N1      20.807857   18.296312   25.245937 N.4        1 MOL1        -0.5974
      24    H16     21.132503   17.446803   24.775667 H          1 MOL1         0.3625
      25    H17     21.626397   18.741921   25.670075 H          1 MOL1         0.3625
      26    H18     20.189199   18.007802   26.008573 H          1 MOL1         0.3625
@<TRIPOS>BOND
    1     1     2    1
    2     1     3    1
    3     1     4    1
    4     1     5    1
    5     5     6    1
    6     5     7    1
    7     5     8    1
    8     8     9    1
    9     8    10    1
   10     8    11    1
   11    11    12    1
   12    11    13    1
   13    11    14    1
   14    14    15    1
   15    14    16    1
   16    14    17    1
   17    17    18    1
   18    17    19    1
   19    19    20    1
   20    19    21    1
   21    19    22    1
   22    17    23    1
   23    23    24    1
   24    23    25    1
   25    23    26    1
@<TRIPOS>SUBSTRUCTURE
       1 MOL1            1 RESIDUE      1      MOL     
@<SCITEGIC>MOL_PROPERTY
VM2 Rank
SciTegic.value.IntegerValue
86

@<SCITEGIC>MOL_PROPERTY
Conf_Id
SciTegic.value.IntegerValue
390

@<SCITEGIC>MOL_PROPERTY
Probability
SciTegic.value.DoubleValue
0.00

@<SCITEGIC>MOL_PROPERTY
Sum Probability
SciTegic.value.DoubleValue
100.00

@<SCITEGIC>MOL_PROPERTY
Delta G
SciTegic.value.DoubleValue
6.573

@<SCITEGIC>MOL_PROPERTY
G
SciTegic.value.DoubleValue
30.282

@<SCITEGIC>MOL_PROPERTY
E
SciTegic.value.DoubleValue
-3.100

@<SCITEGIC>MOL_PROPERTY
-TS
SciTegic.value.DoubleValue
33.382

@<SCITEGIC>MOL_PROPERTY
U+W
SciTegic.value.DoubleValue
-24.562

@<SCITEGIC>MOL_PROPERTY
U
SciTegic.value.DoubleValue
29.944

@<SCITEGIC>MOL_PROPERTY
W
SciTegic.value.DoubleValue
-54.506

@<SCITEGIC>MOL_PROPERTY
W(PB)
SciTegic.value.DoubleValue
-56.701

@<SCITEGIC>MOL_PROPERTY
W(SA)
SciTegic.value.DoubleValue
2.195

@<SCITEGIC>MOL_PROPERTY
Valence
SciTegic.value.DoubleValue
8.447

@<SCITEGIC>MOL_PROPERTY
Coulomb
SciTegic.value.DoubleValue
20.858

@<SCITEGIC>MOL_PROPERTY
VdW
SciTegic.value.DoubleValue
0.639

@<SCITEGIC>MOL_PROPERTY
VdW6
SciTegic.value.DoubleValue
-10.246

@<SCITEGIC>MOL_PROPERTY
VdW12
SciTegic.value.DoubleValue
10.886

@<SCITEGIC>MOL_PROPERTY
Bond
SciTegic.value.DoubleValue
0.318

@<SCITEGIC>MOL_PROPERTY
Angle
SciTegic.value.DoubleValue
2.793

@<SCITEGIC>MOL_PROPERTY
Pdih
SciTegic.value.DoubleValue
5.337

@<SCITEGIC>MOL_PROPERTY
Idih
SciTegic.value.DoubleValue
0.000

@<SCITEGIC>MOL_PROPERTY
Tether
SciTegic.value.DoubleValue
0.000

@<TRIPOS>MOLECULE
guest-s13_vm2.mol2 : vm2 ligand conformer 87
          26          25           1
SMALL
USER_CHARGES
 
@<TRIPOS>ATOM
       1    C1      21.442456   18.096663   20.336083 C.3        1 MOL1        -0.2398
       2    H1      20.937013   17.884871   19.384729 H          1 MOL1         0.0972
       3    H2      22.484170   18.360362   20.111363 H          1 MOL1         0.0972
       4    H3      21.449625   17.174063   20.930696 H          1 MOL1         0.0972
       5    C2      20.740915   19.245035   21.091253 C.3        1 MOL1        -0.1383
       6    H4      20.783722   20.157823   20.480365 H          1 MOL1         0.0961
       7    H5      21.295986   19.471942   22.009332 H          1 MOL1         0.0961
       8    C3      19.261389   18.907860   21.398766 C.3        1 MOL1        -0.1407
       9    H6      18.721982   18.860986   20.442387 H          1 MOL1         0.0961
      10    H7      19.163275   17.906982   21.839454 H          1 MOL1         0.0961
      11    C4      18.571739   19.962652   22.301283 C.3        1 MOL1        -0.1407
      12    H8      17.536609   20.081214   21.952034 H          1 MOL1         0.0961
      13    H9      19.041555   20.946078   22.160974 H          1 MOL1         0.0961
      14    C5      18.511872   19.616041   23.814498 C.3        1 MOL1        -0.1472
      15    H10     17.935027   20.412306   24.303689 H          1 MOL1         0.0961
      16    H11     17.933446   18.694984   23.965376 H          1 MOL1         0.0961
      17    C6      19.881402   19.493046   24.522661 C.3        1 MOL1         0.1190
      18    H12     20.539081   20.280584   24.142276 H          1 MOL1         0.0923
      19    C7      19.721312   19.690054   26.039147 C.3        1 MOL1        -0.2463
      20    H13     19.054877   18.932091   26.469670 H          1 MOL1         0.0972
      21    H14     19.303582   20.679587   26.262920 H          1 MOL1         0.0972
      22    H15     20.692142   19.618974   26.544993 H          1 MOL1         0.0972
      23    N1      20.556913   18.176650   24.250308 N.4        1 MOL1        -0.5974
      24    H16     20.676673   18.028508   23.243699 H          1 MOL1         0.3625
      25    H17     21.482568   18.133065   24.686363 H          1 MOL1         0.3625
      26    H18     20.007936   17.394531   24.617164 H          1 MOL1         0.3625
@<TRIPOS>BOND
    1     1     2    1
    2     1     3    1
    3     1     4    1
    4     1     5    1
    5     5     6    1
    6     5     7    1
    7     5     8    1
    8     8     9    1
    9     8    10    1
   10     8    11    1
   11    11    12    1
   12    11    13    1
   13    11    14    1
   14    14    15    1
   15    14    16    1
   16    14    17    1
   17    17    18    1
   18    17    19    1
   19    19    20    1
   20    19    21    1
   21    19    22    1
   22    17    23    1
   23    23    24    1
   24    23    25    1
   25    23    26    1
@<TRIPOS>SUBSTRUCTURE
       1 MOL1            1 RESIDUE      1      MOL     
@<SCITEGIC>MOL_PROPERTY
VM2 Rank
SciTegic.value.IntegerValue
87

@<SCITEGIC>MOL_PROPERTY
Conf_Id
SciTegic.value.IntegerValue
293

@<SCITEGIC>MOL_PROPERTY
Probability
SciTegic.value.DoubleValue
0.00

@<SCITEGIC>MOL_PROPERTY
Sum Probability
SciTegic.value.DoubleValue
100.00

@<SCITEGIC>MOL_PROPERTY
Delta G
SciTegic.value.DoubleValue
7.071

@<SCITEGIC>MOL_PROPERTY
G
SciTegic.value.DoubleValue
30.781

@<SCITEGIC>MOL_PROPERTY
E
SciTegic.value.DoubleValue
-2.480

@<SCITEGIC>MOL_PROPERTY
-TS
SciTegic.value.DoubleValue
33.261

@<SCITEGIC>MOL_PROPERTY
U+W
SciTegic.value.DoubleValue
-23.942

@<SCITEGIC>MOL_PROPERTY
U
SciTegic.value.DoubleValue
28.935

@<SCITEGIC>MOL_PROPERTY
W
SciTegic.value.DoubleValue
-52.876

@<SCITEGIC>MOL_PROPERTY
W(PB)
SciTegic.value.DoubleValue
-55.147

@<SCITEGIC>MOL_PROPERTY
W(SA)
SciTegic.value.DoubleValue
2.271

@<SCITEGIC>MOL_PROPERTY
Valence
SciTegic.value.DoubleValue
7.029

@<SCITEGIC>MOL_PROPERTY
Coulomb
SciTegic.value.DoubleValue
21.124

@<SCITEGIC>MOL_PROPERTY
VdW
SciTegic.value.DoubleValue
0.782

@<SCITEGIC>MOL_PROPERTY
VdW6
SciTegic.value.DoubleValue
-9.551

@<SCITEGIC>MOL_PROPERTY
VdW12
SciTegic.value.DoubleValue
10.332

@<SCITEGIC>MOL_PROPERTY
Bond
SciTegic.value.DoubleValue
0.264

@<SCITEGIC>MOL_PROPERTY
Angle
SciTegic.value.DoubleValue
2.108

@<SCITEGIC>MOL_PROPERTY
Pdih
SciTegic.value.DoubleValue
4.656

@<SCITEGIC>MOL_PROPERTY
Idih
SciTegic.value.DoubleValue
0.000

@<SCITEGIC>MOL_PROPERTY
Tether
SciTegic.value.DoubleValue
0.000

@<TRIPOS>MOLECULE
guest-s13_vm2.mol2 : vm2 ligand conformer 88
          26          25           1
SMALL
USER_CHARGES
 
@<TRIPOS>ATOM
       1    C1      19.475575   17.670407   20.635108 C.3        1 MOL1        -0.2398
       2    H1      19.898176   16.892973   19.985566 H          1 MOL1         0.0972
       3    H2      19.489175   17.289688   21.662491 H          1 MOL1         0.0972
       4    H3      18.427644   17.815858   20.342190 H          1 MOL1         0.0972
       5    C2      20.275286   18.986366   20.495507 C.3        1 MOL1        -0.1383
       6    H4      20.234835   19.300483   19.443059 H          1 MOL1         0.0961
       7    H5      21.337383   18.809819   20.715357 H          1 MOL1         0.0961
       8    C3      19.719325   20.133196   21.379442 C.3        1 MOL1        -0.1407
       9    H6      19.684374   21.044854   20.767036 H          1 MOL1         0.0961
      10    H7      18.676538   19.931722   21.649058 H          1 MOL1         0.0961
      11    C4      20.577002   20.453760   22.635102 C.3        1 MOL1        -0.1407
      12    H8      20.178583   21.348819   23.132426 H          1 MOL1         0.0961
      13    H9      21.580486   20.736833   22.288159 H          1 MOL1         0.0961
      14    C5      20.729718   19.310575   23.676290 C.3        1 MOL1        -0.1472
      15    H10     20.776813   18.334856   23.181730 H          1 MOL1         0.0961
      16    H11     21.709101   19.437432   24.156143 H          1 MOL1         0.0961
      17    C6      19.672151   19.293083   24.806989 C.3        1 MOL1         0.1190
      18    H12     19.717170   20.253927   25.328857 H          1 MOL1         0.0923
      19    C7      18.236239   19.097248   24.293696 C.3        1 MOL1        -0.2463
      20    H13     17.540839   18.960978   25.131012 H          1 MOL1         0.0972
      21    H14     18.160467   18.218649   23.641675 H          1 MOL1         0.0972
      22    H15     17.896489   19.978519   23.738857 H          1 MOL1         0.0972
      23    N1      20.002705   18.243364   25.831867 N.4        1 MOL1        -0.5974
      24    H16     20.937283   18.382335   26.226616 H          1 MOL1         0.3625
      25    H17     19.338463   18.259353   26.610914 H          1 MOL1         0.3625
      26    H18     19.975981   17.303732   25.427260 H          1 MOL1         0.3625
@<TRIPOS>BOND
    1     1     2    1
    2     1     3    1
    3     1     4    1
    4     1     5    1
    5     5     6    1
    6     5     7    1
    7     5     8    1
    8     8     9    1
    9     8    10    1
   10     8    11    1
   11    11    12    1
   12    11    13    1
   13    11    14    1
   14    14    15    1
   15    14    16    1
   16    14    17    1
   17    17    18    1
   18    17    19    1
   19    19    20    1
   20    19    21    1
   21    19    22    1
   22    17    23    1
   23    23    24    1
   24    23    25    1
   25    23    26    1
@<TRIPOS>SUBSTRUCTURE
       1 MOL1            1 RESIDUE      1      MOL     
@<SCITEGIC>MOL_PROPERTY
VM2 Rank
SciTegic.value.IntegerValue
88

@<SCITEGIC>MOL_PROPERTY
Conf_Id
SciTegic.value.IntegerValue
735

@<SCITEGIC>MOL_PROPERTY
Probability
SciTegic.value.DoubleValue
0.00

@<SCITEGIC>MOL_PROPERTY
Sum Probability
SciTegic.value.DoubleValue
100.00

@<SCITEGIC>MOL_PROPERTY
Delta G
SciTegic.value.DoubleValue
7.219

@<SCITEGIC>MOL_PROPERTY
G
SciTegic.value.DoubleValue
30.929

@<SCITEGIC>MOL_PROPERTY
E
SciTegic.value.DoubleValue
-2.287

@<SCITEGIC>MOL_PROPERTY
-TS
SciTegic.value.DoubleValue
33.216

@<SCITEGIC>MOL_PROPERTY
U+W
SciTegic.value.DoubleValue
-23.749

@<SCITEGIC>MOL_PROPERTY
U
SciTegic.value.DoubleValue
30.750

@<SCITEGIC>MOL_PROPERTY
W
SciTegic.value.DoubleValue
-54.498

@<SCITEGIC>MOL_PROPERTY
W(PB)
SciTegic.value.DoubleValue
-56.711

@<SCITEGIC>MOL_PROPERTY
W(SA)
SciTegic.value.DoubleValue
2.212

@<SCITEGIC>MOL_PROPERTY
Valence
SciTegic.value.DoubleValue
9.482

@<SCITEGIC>MOL_PROPERTY
Coulomb
SciTegic.value.DoubleValue
20.298

@<SCITEGIC>MOL_PROPERTY
VdW
SciTegic.value.DoubleValue
0.970

@<SCITEGIC>MOL_PROPERTY
VdW6
SciTegic.value.DoubleValue
-9.658

@<SCITEGIC>MOL_PROPERTY
VdW12
SciTegic.value.DoubleValue
10.628

@<SCITEGIC>MOL_PROPERTY
Bond
SciTegic.value.DoubleValue
0.353

@<SCITEGIC>MOL_PROPERTY
Angle
SciTegic.value.DoubleValue
2.952

@<SCITEGIC>MOL_PROPERTY
Pdih
SciTegic.value.DoubleValue
6.177

@<SCITEGIC>MOL_PROPERTY
Idih
SciTegic.value.DoubleValue
0.000

@<SCITEGIC>MOL_PROPERTY
Tether
SciTegic.value.DoubleValue
0.000

@<TRIPOS>MOLECULE
guest-s13_vm2.mol2 : vm2 ligand conformer 89
          26          25           1
SMALL
USER_CHARGES
 
@<TRIPOS>ATOM
       1    C1      20.918013   19.574775   19.955333 C.3        1 MOL1        -0.2398
       2    H1      20.557884   18.970405   19.112663 H          1 MOL1         0.0972
       3    H2      20.247585   20.435411   20.068542 H          1 MOL1         0.0972
       4    H3      21.910607   19.960701   19.689272 H          1 MOL1         0.0972
       5    C2      20.993564   18.733709   21.250074 C.3        1 MOL1        -0.1383
       6    H4      21.381233   19.361178   22.061872 H          1 MOL1         0.0961
       7    H5      21.726942   17.928989   21.099723 H          1 MOL1         0.0961
       8    C3      19.630732   18.103000   21.637612 C.3        1 MOL1        -0.1407
       9    H6      19.205330   17.631682   20.740643 H          1 MOL1         0.0961
      10    H7      19.778675   17.279149   22.348128 H          1 MOL1         0.0961
      11    C4      18.597753   19.111586   22.207887 C.3        1 MOL1        -0.1407
      12    H8      17.605575   18.824465   21.833080 H          1 MOL1         0.0961
      13    H9      18.778375   20.118060   21.809331 H          1 MOL1         0.0961
      14    C5      18.505157   19.175228   23.756923 C.3        1 MOL1        -0.1472
      15    H10     17.680346   19.858086   24.000830 H          1 MOL1         0.0961
      16    H11     18.208468   18.196716   24.157093 H          1 MOL1         0.0961
      17    C6      19.783012   19.668875   24.474516 C.3        1 MOL1         0.1190
      18    H12     20.224439   20.473955   23.879093 H          1 MOL1         0.0923
      19    C7      19.437018   20.230635   25.863408 C.3        1 MOL1        -0.2463
      20    H13     18.740086   21.074039   25.781473 H          1 MOL1         0.0972
      21    H14     20.338692   20.595055   26.370976 H          1 MOL1         0.0972
      22    H15     18.973602   19.464215   26.497320 H          1 MOL1         0.0972
      23    N1      20.822750   18.590192   24.608247 N.4        1 MOL1        -0.5974
      24    H16     21.681307   18.947985   25.036780 H          1 MOL1         0.3625
      25    H17     20.486230   17.820584   25.193098 H          1 MOL1         0.3625
      26    H18     21.067342   18.201025   23.693651 H          1 MOL1         0.3625
@<TRIPOS>BOND
    1     1     2    1
    2     1     3    1
    3     1     4    1
    4     1     5    1
    5     5     6    1
    6     5     7    1
    7     5     8    1
    8     8     9    1
    9     8    10    1
   10     8    11    1
   11    11    12    1
   12    11    13    1
   13    11    14    1
   14    14    15    1
   15    14    16    1
   16    14    17    1
   17    17    18    1
   18    17    19    1
   19    19    20    1
   20    19    21    1
   21    19    22    1
   22    17    23    1
   23    23    24    1
   24    23    25    1
   25    23    26    1
@<TRIPOS>SUBSTRUCTURE
       1 MOL1            1 RESIDUE      1      MOL     
@<SCITEGIC>MOL_PROPERTY
VM2 Rank
SciTegic.value.IntegerValue
89

@<SCITEGIC>MOL_PROPERTY
Conf_Id
SciTegic.value.IntegerValue
1090

@<SCITEGIC>MOL_PROPERTY
Probability
SciTegic.value.DoubleValue
0.00

@<SCITEGIC>MOL_PROPERTY
Sum Probability
SciTegic.value.DoubleValue
100.00

@<SCITEGIC>MOL_PROPERTY
Delta G
SciTegic.value.DoubleValue
7.300

@<SCITEGIC>MOL_PROPERTY
G
SciTegic.value.DoubleValue
31.010

@<SCITEGIC>MOL_PROPERTY
E
SciTegic.value.DoubleValue
-2.223

@<SCITEGIC>MOL_PROPERTY
-TS
SciTegic.value.DoubleValue
33.233

@<SCITEGIC>MOL_PROPERTY
U+W
SciTegic.value.DoubleValue
-23.685

@<SCITEGIC>MOL_PROPERTY
U
SciTegic.value.DoubleValue
30.033

@<SCITEGIC>MOL_PROPERTY
W
SciTegic.value.DoubleValue
-53.719

@<SCITEGIC>MOL_PROPERTY
W(PB)
SciTegic.value.DoubleValue
-55.956

@<SCITEGIC>MOL_PROPERTY
W(SA)
SciTegic.value.DoubleValue
2.237

@<SCITEGIC>MOL_PROPERTY
Valence
SciTegic.value.DoubleValue
7.748

@<SCITEGIC>MOL_PROPERTY
Coulomb
SciTegic.value.DoubleValue
21.341

@<SCITEGIC>MOL_PROPERTY
VdW
SciTegic.value.DoubleValue
0.945

@<SCITEGIC>MOL_PROPERTY
VdW6
SciTegic.value.DoubleValue
-9.748

@<SCITEGIC>MOL_PROPERTY
VdW12
SciTegic.value.DoubleValue
10.694

@<SCITEGIC>MOL_PROPERTY
Bond
SciTegic.value.DoubleValue
0.311

@<SCITEGIC>MOL_PROPERTY
Angle
SciTegic.value.DoubleValue
2.245

@<SCITEGIC>MOL_PROPERTY
Pdih
SciTegic.value.DoubleValue
5.192

@<SCITEGIC>MOL_PROPERTY
Idih
SciTegic.value.DoubleValue
0.000

@<SCITEGIC>MOL_PROPERTY
Tether
SciTegic.value.DoubleValue
0.000

@<TRIPOS>MOLECULE
guest-s13_vm2.mol2 : vm2 ligand conformer 90
          26          25           1
SMALL
USER_CHARGES
 
@<TRIPOS>ATOM
       1    C1      19.526793   17.856015   20.028921 C.3        1 MOL1        -0.2398
       2    H1      19.677241   18.473052   19.133451 H          1 MOL1         0.0972
       3    H2      19.829919   16.829460   19.785354 H          1 MOL1         0.0972
       4    H3      18.453603   17.844647   20.259825 H          1 MOL1         0.0972
       5    C2      20.344741   18.397919   21.219924 C.3        1 MOL1        -0.1383
       6    H4      21.414378   18.363644   20.969430 H          1 MOL1         0.0961
       7    H5      20.204766   17.736008   22.082312 H          1 MOL1         0.0961
       8    C3      19.942826   19.849711   21.573680 C.3        1 MOL1        -0.1407
       9    H6      20.155618   20.482460   20.700758 H          1 MOL1         0.0961
      10    H7      18.859622   19.927003   21.735103 H          1 MOL1         0.0961
      11    C4      20.714752   20.418965   22.791650 C.3        1 MOL1        -0.1407
      12    H8      21.051090   21.429947   22.522697 H          1 MOL1         0.0961
      13    H9      21.639786   19.853351   22.965116 H          1 MOL1         0.0961
      14    C5      19.894563   20.551328   24.108064 C.3        1 MOL1        -0.1472
      15    H10     20.506279   21.128787   24.813531 H          1 MOL1         0.0961
      16    H11     19.005322   21.169881   23.928550 H          1 MOL1         0.0961
      17    C6      19.479958   19.247310   24.836346 C.3        1 MOL1         0.1190
      18    H12     19.255922   19.528062   25.870161 H          1 MOL1         0.0923
      19    C7      18.190264   18.625481   24.271042 C.3        1 MOL1        -0.2463
      20    H13     18.323215   18.233386   23.259178 H          1 MOL1         0.0972
      21    H14     17.380672   19.365210   24.246175 H          1 MOL1         0.0972
      22    H15     17.857581   17.795764   24.906591 H          1 MOL1         0.0972
      23    N1      20.594103   18.241271   24.924372 N.4        1 MOL1        -0.5974
      24    H16     20.309514   17.411979   25.453365 H          1 MOL1         0.3625
      25    H17     20.885999   17.933649   23.994188 H          1 MOL1         0.3625
      26    H18     21.415890   18.635307   25.391331 H          1 MOL1         0.3625
@<TRIPOS>BOND
    1     1     2    1
    2     1     3    1
    3     1     4    1
    4     1     5    1
    5     5     6    1
    6     5     7    1
    7     5     8    1
    8     8     9    1
    9     8    10    1
   10     8    11    1
   11    11    12    1
   12    11    13    1
   13    11    14    1
   14    14    15    1
   15    14    16    1
   16    14    17    1
   17    17    18    1
   18    17    19    1
   19    19    20    1
   20    19    21    1
   21    19    22    1
   22    17    23    1
   23    23    24    1
   24    23    25    1
   25    23    26    1
@<TRIPOS>SUBSTRUCTURE
       1 MOL1            1 RESIDUE      1      MOL     
@<SCITEGIC>MOL_PROPERTY
VM2 Rank
SciTegic.value.IntegerValue
90

@<SCITEGIC>MOL_PROPERTY
Conf_Id
SciTegic.value.IntegerValue
550

@<SCITEGIC>MOL_PROPERTY
Probability
SciTegic.value.DoubleValue
0.00

@<SCITEGIC>MOL_PROPERTY
Sum Probability
SciTegic.value.DoubleValue
100.00

@<SCITEGIC>MOL_PROPERTY
Delta G
SciTegic.value.DoubleValue
7.526

@<SCITEGIC>MOL_PROPERTY
G
SciTegic.value.DoubleValue
31.236

@<SCITEGIC>MOL_PROPERTY
E
SciTegic.value.DoubleValue
-2.127

@<SCITEGIC>MOL_PROPERTY
-TS
SciTegic.value.DoubleValue
33.363

@<SCITEGIC>MOL_PROPERTY
U+W
SciTegic.value.DoubleValue
-23.589

@<SCITEGIC>MOL_PROPERTY
U
SciTegic.value.DoubleValue
30.698

@<SCITEGIC>MOL_PROPERTY
W
SciTegic.value.DoubleValue
-54.287

@<SCITEGIC>MOL_PROPERTY
W(PB)
SciTegic.value.DoubleValue
-56.480

@<SCITEGIC>MOL_PROPERTY
W(SA)
SciTegic.value.DoubleValue
2.193

@<SCITEGIC>MOL_PROPERTY
Valence
SciTegic.value.DoubleValue
8.810

@<SCITEGIC>MOL_PROPERTY
Coulomb
SciTegic.value.DoubleValue
21.309

@<SCITEGIC>MOL_PROPERTY
VdW
SciTegic.value.DoubleValue
0.579

@<SCITEGIC>MOL_PROPERTY
VdW6
SciTegic.value.DoubleValue
-9.948

@<SCITEGIC>MOL_PROPERTY
VdW12
SciTegic.value.DoubleValue
10.527

@<SCITEGIC>MOL_PROPERTY
Bond
SciTegic.value.DoubleValue
0.332

@<SCITEGIC>MOL_PROPERTY
Angle
SciTegic.value.DoubleValue
3.013

@<SCITEGIC>MOL_PROPERTY
Pdih
SciTegic.value.DoubleValue
5.465

@<SCITEGIC>MOL_PROPERTY
Idih
SciTegic.value.DoubleValue
0.000

@<SCITEGIC>MOL_PROPERTY
Tether
SciTegic.value.DoubleValue
0.000

@<TRIPOS>MOLECULE
guest-s13_vm2.mol2 : vm2 ligand conformer 91
          26          25           1
SMALL
USER_CHARGES
 
@<TRIPOS>ATOM
       1    C1      19.744633   17.494359   21.007017 C.3        1 MOL1        -0.2398
       2    H1      19.251458   16.963915   20.182117 H          1 MOL1         0.0972
       3    H2      20.610416   16.893796   21.314386 H          1 MOL1         0.0972
       4    H3      19.034260   17.530281   21.838478 H          1 MOL1         0.0972
       5    C2      20.179638   18.905656   20.549462 C.3        1 MOL1        -0.1383
       6    H4      19.303411   19.492761   20.241099 H          1 MOL1         0.0961
       7    H5      20.794499   18.788048   19.646044 H          1 MOL1         0.0961
       8    C3      21.009293   19.686168   21.602135 C.3        1 MOL1        -0.1407
       9    H6      21.621213   19.003030   22.200822 H          1 MOL1         0.0961
      10    H7      21.737125   20.300238   21.053595 H          1 MOL1         0.0961
      11    C4      20.193197   20.659540   22.496588 C.3        1 MOL1        -0.1407
      12    H8      19.710162   21.394665   21.838090 H          1 MOL1         0.0961
      13    H9      20.890870   21.239557   23.116409 H          1 MOL1         0.0961
      14    C5      19.100592   20.049370   23.415671 C.3        1 MOL1        -0.1472
      15    H10     18.480468   20.885172   23.766130 H          1 MOL1         0.0961
      16    H11     18.420057   19.408230   22.845076 H          1 MOL1         0.0961
      17    C6      19.637482   19.311832   24.665763 C.3        1 MOL1         0.1190
      18    H12     20.381631   19.954433   25.146199 H          1 MOL1         0.0923
      19    C7      18.497486   19.066589   25.667926 C.3        1 MOL1        -0.2463
      20    H13     17.715268   18.432667   25.231817 H          1 MOL1         0.0972
      21    H14     18.037278   20.013552   25.976413 H          1 MOL1         0.0972
      22    H15     18.874118   18.571966   26.571771 H          1 MOL1         0.0972
      23    N1      20.325679   18.014486   24.349439 N.4        1 MOL1        -0.5974
      24    H16     21.096110   18.157037   23.692888 H          1 MOL1         0.3625
      25    H17     20.712555   17.581253   25.192816 H          1 MOL1         0.3625
      26    H18     19.678361   17.344555   23.927181 H          1 MOL1         0.3625
@<TRIPOS>BOND
    1     1     2    1
    2     1     3    1
    3     1     4    1
    4     1     5    1
    5     5     6    1
    6     5     7    1
    7     5     8    1
    8     8     9    1
    9     8    10    1
   10     8    11    1
   11    11    12    1
   12    11    13    1
   13    11    14    1
   14    14    15    1
   15    14    16    1
   16    14    17    1
   17    17    18    1
   18    17    19    1
   19    19    20    1
   20    19    21    1
   21    19    22    1
   22    17    23    1
   23    23    24    1
   24    23    25    1
   25    23    26    1
@<TRIPOS>SUBSTRUCTURE
       1 MOL1            1 RESIDUE      1      MOL     
@<SCITEGIC>MOL_PROPERTY
VM2 Rank
SciTegic.value.IntegerValue
91

@<SCITEGIC>MOL_PROPERTY
Conf_Id
SciTegic.value.IntegerValue
1004

@<SCITEGIC>MOL_PROPERTY
Probability
SciTegic.value.DoubleValue
0.00

@<SCITEGIC>MOL_PROPERTY
Sum Probability
SciTegic.value.DoubleValue
100.00

@<SCITEGIC>MOL_PROPERTY
Delta G
SciTegic.value.DoubleValue
7.609

@<SCITEGIC>MOL_PROPERTY
G
SciTegic.value.DoubleValue
31.319

@<SCITEGIC>MOL_PROPERTY
E
SciTegic.value.DoubleValue
-1.648

@<SCITEGIC>MOL_PROPERTY
-TS
SciTegic.value.DoubleValue
32.967

@<SCITEGIC>MOL_PROPERTY
U+W
SciTegic.value.DoubleValue
-23.110

@<SCITEGIC>MOL_PROPERTY
U
SciTegic.value.DoubleValue
30.162

@<SCITEGIC>MOL_PROPERTY
W
SciTegic.value.DoubleValue
-53.272

@<SCITEGIC>MOL_PROPERTY
W(PB)
SciTegic.value.DoubleValue
-55.469

@<SCITEGIC>MOL_PROPERTY
W(SA)
SciTegic.value.DoubleValue
2.197

@<SCITEGIC>MOL_PROPERTY
Valence
SciTegic.value.DoubleValue
7.945

@<SCITEGIC>MOL_PROPERTY
Coulomb
SciTegic.value.DoubleValue
21.781

@<SCITEGIC>MOL_PROPERTY
VdW
SciTegic.value.DoubleValue
0.435

@<SCITEGIC>MOL_PROPERTY
VdW6
SciTegic.value.DoubleValue
-10.033

@<SCITEGIC>MOL_PROPERTY
VdW12
SciTegic.value.DoubleValue
10.468

@<SCITEGIC>MOL_PROPERTY
Bond
SciTegic.value.DoubleValue
0.353

@<SCITEGIC>MOL_PROPERTY
Angle
SciTegic.value.DoubleValue
3.282

@<SCITEGIC>MOL_PROPERTY
Pdih
SciTegic.value.DoubleValue
4.310

@<SCITEGIC>MOL_PROPERTY
Idih
SciTegic.value.DoubleValue
0.000

@<SCITEGIC>MOL_PROPERTY
Tether
SciTegic.value.DoubleValue
0.000

@<TRIPOS>MOLECULE
guest-s13_vm2.mol2 : vm2 ligand conformer 92
          26          25           1
SMALL
USER_CHARGES
 
@<TRIPOS>ATOM
       1    C1      20.464891   17.630807   20.230006 C.3        1 MOL1        -0.2398
       2    H1      19.893861   16.759432   19.883875 H          1 MOL1         0.0972
       3    H2      20.804068   18.183599   19.344143 H          1 MOL1         0.0972
       4    H3      21.351646   17.262664   20.762148 H          1 MOL1         0.0972
       5    C2      19.597163   18.524004   21.141161 C.3        1 MOL1        -0.1383
       6    H4      19.233127   17.930624   21.987293 H          1 MOL1         0.0961
       7    H5      18.704351   18.846449   20.586984 H          1 MOL1         0.0961
       8    C3      20.375763   19.770345   21.626767 C.3        1 MOL1        -0.1407
       9    H6      21.344292   19.485057   22.058140 H          1 MOL1         0.0961
      10    H7      20.617728   20.380491   20.745289 H          1 MOL1         0.0961
      11    C4      19.574514   20.647385   22.624696 C.3        1 MOL1        -0.1407
      12    H8      18.496402   20.464767   22.524804 H          1 MOL1         0.0961
      13    H9      19.711990   21.695964   22.326329 H          1 MOL1         0.0961
      14    C5      20.018818   20.537163   24.112327 C.3        1 MOL1        -0.1472
      15    H10     21.086893   20.779389   24.188839 H          1 MOL1         0.0961
      16    H11     19.503061   21.325708   24.676096 H          1 MOL1         0.0961
      17    C6      19.755797   19.196318   24.841779 C.3        1 MOL1         0.1190
      18    H12     20.034202   19.345624   25.889614 H          1 MOL1         0.0923
      19    C7      18.267663   18.804408   24.822884 C.3        1 MOL1        -0.2463
      20    H13     17.915959   18.572515   23.811820 H          1 MOL1         0.0972
      21    H14     17.648516   19.618074   25.220468 H          1 MOL1         0.0972
      22    H15     18.095435   17.920633   25.449257 H          1 MOL1         0.0972
      23    N1      20.633392   18.077570   24.354381 N.4        1 MOL1        -0.5974
      24    H16     20.436329   17.202934   24.849238 H          1 MOL1         0.3625
      25    H17     20.494664   17.914226   23.353848 H          1 MOL1         0.3625
      26    H18     21.624373   18.293077   24.496520 H          1 MOL1         0.3625
@<TRIPOS>BOND
    1     1     2    1
    2     1     3    1
    3     1     4    1
    4     1     5    1
    5     5     6    1
    6     5     7    1
    7     5     8    1
    8     8     9    1
    9     8    10    1
   10     8    11    1
   11    11    12    1
   12    11    13    1
   13    11    14    1
   14    14    15    1
   15    14    16    1
   16    14    17    1
   17    17    18    1
   18    17    19    1
   19    19    20    1
   20    19    21    1
   21    19    22    1
   22    17    23    1
   23    23    24    1
   24    23    25    1
   25    23    26    1
@<TRIPOS>SUBSTRUCTURE
       1 MOL1            1 RESIDUE      1      MOL     
@<SCITEGIC>MOL_PROPERTY
VM2 Rank
SciTegic.value.IntegerValue
92

@<SCITEGIC>MOL_PROPERTY
Conf_Id
SciTegic.value.IntegerValue
764

@<SCITEGIC>MOL_PROPERTY
Probability
SciTegic.value.DoubleValue
0.00

@<SCITEGIC>MOL_PROPERTY
Sum Probability
SciTegic.value.DoubleValue
100.00

@<SCITEGIC>MOL_PROPERTY
Delta G
SciTegic.value.DoubleValue
7.754

@<SCITEGIC>MOL_PROPERTY
G
SciTegic.value.DoubleValue
31.464

@<SCITEGIC>MOL_PROPERTY
E
SciTegic.value.DoubleValue
-2.237

@<SCITEGIC>MOL_PROPERTY
-TS
SciTegic.value.DoubleValue
33.701

@<SCITEGIC>MOL_PROPERTY
U+W
SciTegic.value.DoubleValue
-23.699

@<SCITEGIC>MOL_PROPERTY
U
SciTegic.value.DoubleValue
29.525

@<SCITEGIC>MOL_PROPERTY
W
SciTegic.value.DoubleValue
-53.224

@<SCITEGIC>MOL_PROPERTY
W(PB)
SciTegic.value.DoubleValue
-55.435

@<SCITEGIC>MOL_PROPERTY
W(SA)
SciTegic.value.DoubleValue
2.211

@<SCITEGIC>MOL_PROPERTY
Valence
SciTegic.value.DoubleValue
7.633

@<SCITEGIC>MOL_PROPERTY
Coulomb
SciTegic.value.DoubleValue
21.335

@<SCITEGIC>MOL_PROPERTY
VdW
SciTegic.value.DoubleValue
0.556

@<SCITEGIC>MOL_PROPERTY
VdW6
SciTegic.value.DoubleValue
-10.324

@<SCITEGIC>MOL_PROPERTY
VdW12
SciTegic.value.DoubleValue
10.880

@<SCITEGIC>MOL_PROPERTY
Bond
SciTegic.value.DoubleValue
0.326

@<SCITEGIC>MOL_PROPERTY
Angle
SciTegic.value.DoubleValue
2.670

@<SCITEGIC>MOL_PROPERTY
Pdih
SciTegic.value.DoubleValue
4.637

@<SCITEGIC>MOL_PROPERTY
Idih
SciTegic.value.DoubleValue
0.000

@<SCITEGIC>MOL_PROPERTY
Tether
SciTegic.value.DoubleValue
0.000

@<TRIPOS>MOLECULE
guest-s13_vm2.mol2 : vm2 ligand conformer 93
          26          25           1
SMALL
USER_CHARGES
 
@<TRIPOS>ATOM
       1    C1      18.870717   19.333495   20.489002 C.3        1 MOL1        -0.2398
       2    H1      19.063948   20.388199   20.714685 H          1 MOL1         0.0972
       3    H2      18.447805   19.293589   19.476879 H          1 MOL1         0.0972
       4    H3      18.110897   18.954991   21.183713 H          1 MOL1         0.0972
       5    C2      20.166403   18.497335   20.560960 C.3        1 MOL1        -0.1383
       6    H4      20.942348   18.975096   19.946745 H          1 MOL1         0.0961
       7    H5      19.974089   17.519863   20.096914 H          1 MOL1         0.0961
       8    C3      20.711140   18.253283   21.992186 C.3        1 MOL1        -0.1407
       9    H6      19.990463   17.680068   22.582273 H          1 MOL1         0.0961
      10    H7      21.580844   17.589548   21.889508 H          1 MOL1         0.0961
      11    C4      21.186253   19.521091   22.752902 C.3        1 MOL1        -0.1407
      12    H8      21.683059   20.192980   22.039708 H          1 MOL1         0.0961
      13    H9      21.977640   19.224749   23.454246 H          1 MOL1         0.0961
      14    C5      20.114750   20.333834   23.541836 C.3        1 MOL1        -0.1472
      15    H10     20.634976   21.194951   23.981109 H          1 MOL1         0.0961
      16    H11     19.380425   20.776050   22.861287 H          1 MOL1         0.0961
      17    C6      19.380617   19.618906   24.707556 C.3        1 MOL1         0.1190
      18    H12     19.150890   20.391049   25.448367 H          1 MOL1         0.0923
      19    C7      18.027199   19.021102   24.280570 C.3        1 MOL1        -0.2463
      20    H13     17.395962   19.785376   23.810673 H          1 MOL1         0.0972
      21    H14     17.485285   18.642304   25.155750 H          1 MOL1         0.0972
      22    H15     18.137429   18.192287   23.575697 H          1 MOL1         0.0972
      23    N1      20.230921   18.608954   25.428988 N.4        1 MOL1        -0.5974
      24    H16     20.509950   17.849269   24.803430 H          1 MOL1         0.3625
      25    H17     21.085937   19.035948   25.796293 H          1 MOL1         0.3625
      26    H18     19.730935   18.193650   26.220123 H          1 MOL1         0.3625
@<TRIPOS>BOND
    1     1     2    1
    2     1     3    1
    3     1     4    1
    4     1     5    1
    5     5     6    1
    6     5     7    1
    7     5     8    1
    8     8     9    1
    9     8    10    1
   10     8    11    1
   11    11    12    1
   12    11    13    1
   13    11    14    1
   14    14    15    1
   15    14    16    1
   16    14    17    1
   17    17    18    1
   18    17    19    1
   19    19    20    1
   20    19    21    1
   21    19    22    1
   22    17    23    1
   23    23    24    1
   24    23    25    1
   25    23    26    1
@<TRIPOS>SUBSTRUCTURE
       1 MOL1            1 RESIDUE      1      MOL     
@<SCITEGIC>MOL_PROPERTY
VM2 Rank
SciTegic.value.IntegerValue
93

@<SCITEGIC>MOL_PROPERTY
Conf_Id
SciTegic.value.IntegerValue
223

@<SCITEGIC>MOL_PROPERTY
Probability
SciTegic.value.DoubleValue
0.00

@<SCITEGIC>MOL_PROPERTY
Sum Probability
SciTegic.value.DoubleValue
100.00

@<SCITEGIC>MOL_PROPERTY
Delta G
SciTegic.value.DoubleValue
8.060

@<SCITEGIC>MOL_PROPERTY
G
SciTegic.value.DoubleValue
31.770

@<SCITEGIC>MOL_PROPERTY
E
SciTegic.value.DoubleValue
-1.720

@<SCITEGIC>MOL_PROPERTY
-TS
SciTegic.value.DoubleValue
33.490

@<SCITEGIC>MOL_PROPERTY
U+W
SciTegic.value.DoubleValue
-23.182

@<SCITEGIC>MOL_PROPERTY
U
SciTegic.value.DoubleValue
31.350

@<SCITEGIC>MOL_PROPERTY
W
SciTegic.value.DoubleValue
-54.532

@<SCITEGIC>MOL_PROPERTY
W(PB)
SciTegic.value.DoubleValue
-56.674

@<SCITEGIC>MOL_PROPERTY
W(SA)
SciTegic.value.DoubleValue
2.142

@<SCITEGIC>MOL_PROPERTY
Valence
SciTegic.value.DoubleValue
9.658

@<SCITEGIC>MOL_PROPERTY
Coulomb
SciTegic.value.DoubleValue
20.873

@<SCITEGIC>MOL_PROPERTY
VdW
SciTegic.value.DoubleValue
0.819

@<SCITEGIC>MOL_PROPERTY
VdW6
SciTegic.value.DoubleValue
-10.581

@<SCITEGIC>MOL_PROPERTY
VdW12
SciTegic.value.DoubleValue
11.401

@<SCITEGIC>MOL_PROPERTY
Bond
SciTegic.value.DoubleValue
0.428

@<SCITEGIC>MOL_PROPERTY
Angle
SciTegic.value.DoubleValue
4.179

@<SCITEGIC>MOL_PROPERTY
Pdih
SciTegic.value.DoubleValue
5.051

@<SCITEGIC>MOL_PROPERTY
Idih
SciTegic.value.DoubleValue
0.000

@<SCITEGIC>MOL_PROPERTY
Tether
SciTegic.value.DoubleValue
0.000

@<TRIPOS>MOLECULE
guest-s13_vm2.mol2 : vm2 ligand conformer 94
          26          25           1
SMALL
USER_CHARGES
 
@<TRIPOS>ATOM
       1    C1      20.775656   18.002292   20.323223 C.3        1 MOL1        -0.2398
       2    H1      20.828566   16.942958   20.040341 H          1 MOL1         0.0972
       3    H2      20.737964   18.592625   19.398482 H          1 MOL1         0.0972
       4    H3      21.706139   18.250457   20.847592 H          1 MOL1         0.0972
       5    C2      19.529650   18.265941   21.199741 C.3        1 MOL1        -0.1383
       6    H4      19.584013   17.655065   22.107626 H          1 MOL1         0.0961
       7    H5      18.641569   17.918095   20.653709 H          1 MOL1         0.0961
       8    C3      19.334136   19.763430   21.551155 C.3        1 MOL1        -0.1407
       9    H6      19.352669   20.336085   20.613492 H          1 MOL1         0.0961
      10    H7      18.329070   19.924228   21.962816 H          1 MOL1         0.0961
      11    C4      20.398741   20.355329   22.513797 C.3        1 MOL1        -0.1407
      12    H8      20.669623   21.347858   22.127984 H          1 MOL1         0.0961
      13    H9      21.331209   19.779920   22.479021 H          1 MOL1         0.0961
      14    C5      19.940444   20.556319   23.987876 C.3        1 MOL1        -0.1472
      15    H10     20.724772   21.134498   24.493707 H          1 MOL1         0.0961
      16    H11     19.050260   21.198526   24.014728 H          1 MOL1         0.0961
      17    C6      19.693479   19.289263   24.845498 C.3        1 MOL1         0.1190
      18    H12     19.779480   19.599745   25.891435 H          1 MOL1         0.0923
      19    C7      18.271125   18.723811   24.681573 C.3        1 MOL1        -0.2463
      20    H13     17.520783   19.497998   24.883856 H          1 MOL1         0.0972
      21    H14     18.100712   17.907564   25.394138 H          1 MOL1         0.0972
      22    H15     18.089310   18.331088   23.677757 H          1 MOL1         0.0972
      23    N1      20.744768   18.231615   24.651137 N.4        1 MOL1        -0.5974
      24    H16     20.577668   17.420734   25.253729 H          1 MOL1         0.3625
      25    H17     20.760997   17.905318   23.681964 H          1 MOL1         0.3625
      26    H18     21.678344   18.590200   24.871393 H          1 MOL1         0.3625
@<TRIPOS>BOND
    1     1     2    1
    2     1     3    1
    3     1     4    1
    4     1     5    1
    5     5     6    1
    6     5     7    1
    7     5     8    1
    8     8     9    1
    9     8    10    1
   10     8    11    1
   11    11    12    1
   12    11    13    1
   13    11    14    1
   14    14    15    1
   15    14    16    1
   16    14    17    1
   17    17    18    1
   18    17    19    1
   19    19    20    1
   20    19    21    1
   21    19    22    1
   22    17    23    1
   23    23    24    1
   24    23    25    1
   25    23    26    1
@<TRIPOS>SUBSTRUCTURE
       1 MOL1            1 RESIDUE      1      MOL     
@<SCITEGIC>MOL_PROPERTY
VM2 Rank
SciTegic.value.IntegerValue
94

@<SCITEGIC>MOL_PROPERTY
Conf_Id
SciTegic.value.IntegerValue
822

@<SCITEGIC>MOL_PROPERTY
Probability
SciTegic.value.DoubleValue
0.00

@<SCITEGIC>MOL_PROPERTY
Sum Probability
SciTegic.value.DoubleValue
100.00

@<SCITEGIC>MOL_PROPERTY
Delta G
SciTegic.value.DoubleValue
8.655

@<SCITEGIC>MOL_PROPERTY
G
SciTegic.value.DoubleValue
32.365

@<SCITEGIC>MOL_PROPERTY
E
SciTegic.value.DoubleValue
-0.991

@<SCITEGIC>MOL_PROPERTY
-TS
SciTegic.value.DoubleValue
33.356

@<SCITEGIC>MOL_PROPERTY
U+W
SciTegic.value.DoubleValue
-22.453

@<SCITEGIC>MOL_PROPERTY
U
SciTegic.value.DoubleValue
31.359

@<SCITEGIC>MOL_PROPERTY
W
SciTegic.value.DoubleValue
-53.812

@<SCITEGIC>MOL_PROPERTY
W(PB)
SciTegic.value.DoubleValue
-56.007

@<SCITEGIC>MOL_PROPERTY
W(SA)
SciTegic.value.DoubleValue
2.195

@<SCITEGIC>MOL_PROPERTY
Valence
SciTegic.value.DoubleValue
9.442

@<SCITEGIC>MOL_PROPERTY
Coulomb
SciTegic.value.DoubleValue
21.140

@<SCITEGIC>MOL_PROPERTY
VdW
SciTegic.value.DoubleValue
0.777

@<SCITEGIC>MOL_PROPERTY
VdW6
SciTegic.value.DoubleValue
-10.521

@<SCITEGIC>MOL_PROPERTY
VdW12
SciTegic.value.DoubleValue
11.299

@<SCITEGIC>MOL_PROPERTY
Bond
SciTegic.value.DoubleValue
0.381

@<SCITEGIC>MOL_PROPERTY
Angle
SciTegic.value.DoubleValue
3.342

@<SCITEGIC>MOL_PROPERTY
Pdih
SciTegic.value.DoubleValue
5.718

@<SCITEGIC>MOL_PROPERTY
Idih
SciTegic.value.DoubleValue
0.000

@<SCITEGIC>MOL_PROPERTY
Tether
SciTegic.value.DoubleValue
0.000

