VeraChem MOL file


 26 25  0  0  0  0  0  0  0  0999 V2000     
   20.2414   18.6563   18.8060 C   0  0  0  0  0  0  0  0  0  0  0  0
   19.6046   19.4973   18.5017 H   0  0  0  0  0  0  0  0  0  0  0  0
   21.0557   18.5687   18.0750 H   0  0  0  0  0  0  0  0  0  0  0  0
   19.6424   17.7378   18.7548 H   0  0  0  0  0  0  0  0  0  0  0  0
   20.8051   18.8728   20.2264 C   0  0  0  0  0  0  0  0  0  0  0  0
   21.4265   19.7792   20.2377 H   0  0  0  0  0  0  0  0  0  0  0  0
   21.4641   18.0333   20.4887 H   0  0  0  0  0  0  0  0  0  0  0  0
   19.6785   18.9995   21.2757 C   0  0  0  0  0  0  0  0  0  0  0  0
   19.0208   19.8377   21.0067 H   0  0  0  0  0  0  0  0  0  0  0  0
   19.0591   18.0919   21.2594 H   0  0  0  0  0  0  0  0  0  0  0  0
   20.2389   19.2172   22.6994 C   0  0  0  0  0  0  0  0  0  0  0  0
   20.8551   20.1271   22.7151 H   0  0  0  0  0  0  0  0  0  0  0  0
   20.8998   18.3791   22.9576 H   0  0  0  0  0  0  0  0  0  0  0  0
   19.1076   19.3423   23.7488 C   0  0  0  0  0  0  0  0  0  0  0  0
   18.4280   20.1492   23.4433 H   0  0  0  0  0  0  0  0  0  0  0  0
   18.5118   18.4200   23.7646 H   0  0  0  0  0  0  0  0  0  0  0  0
   19.6331   19.6456   25.1688 C   0  0  1  0  0  0  0  0  0  0  0  0
   20.2419   20.5539   25.1223 H   0  0  0  0  0  0  0  0  0  0  0  0
   18.4605   19.8996   26.1296 C   0  0  0  0  0  0  0  0  0  0  0  0
   17.8446   20.7377   25.7803 H   0  0  0  0  0  0  0  0  0  0  0  0
   18.8276   20.1521   27.1321 H   0  0  0  0  0  0  0  0  0  0  0  0
   17.8173   19.0147   26.2138 H   0  0  0  0  0  0  0  0  0  0  0  0
   20.5229   18.5546   25.6994 N   0  3  0  0  0  0  0  0  0  0  0  0
   21.3337   18.4049   25.0931 H   0  0  0  0  0  0  0  0  0  0  0  0
   20.8769   18.7814   26.6330 H   0  0  0  0  0  0  0  0  0  0  0  0
   20.0217   17.6651   25.7696 H   0  0  0  0  0  0  0  0  0  0  0  0
  1  2  1  0  0  0  0
  1  3  1  0  0  0  0
  1  4  1  0  0  0  0
  1  5  1  0  0  0  0
  5  6  1  0  0  0  0
  5  7  1  0  0  0  0
  5  8  1  0  0  0  0
  8  9  1  0  0  0  0
  8 10  1  0  0  0  0
  8 11  1  0  0  0  0
 11 12  1  0  0  0  0
 11 13  1  0  0  0  0
 11 14  1  0  0  0  0
 14 15  1  0  0  0  0
 14 16  1  0  0  0  0
 14 17  1  0  0  0  0
 17 18  1  0  0  0  0
 17 19  1  0  0  0  0
 19 20  1  0  0  0  0
 19 21  1  0  0  0  0
 19 22  1  0  0  0  0
 17 23  1  0  0  0  0
 23 24  1  0  0  0  0
 23 25  1  0  0  0  0
 23 26  1  0  0  0  0
M  END
> <VM2 Rank>
1

> <Conf_Id>
326

> <Probability>
16.98

> <Sum Probability>
16.98

> <Delta G>
0.000

> <G>
23.710

> <E>
-8.843

> <-TS>
32.553

> <U+W>
-30.305

> <U>
23.517

> <W>
-53.813

> <W(PB)>
-56.159

> <W(SA)>
2.346

> <Valence>
2.737

> <Coulomb>
19.862

> <VdW>
0.919

> <VdW6>
-6.793

> <VdW12>
7.712

> <Bond>
0.171

> <Angle>
0.873

> <Pdih>
1.693

> <Idih>
0.000

> <Tether>
0.000

$$$$
VeraChem MOL file


 26 25  0  0  0  0  0  0  0  0999 V2000     
   20.2648   18.6437   18.8026 C   0  0  0  0  0  0  0  0  0  0  0  0
   20.3175   19.2783   17.9084 H   0  0  0  0  0  0  0  0  0  0  0  0
   21.1735   18.0284   18.8331 H   0  0  0  0  0  0  0  0  0  0  0  0
   19.4021   17.9742   18.6902 H   0  0  0  0  0  0  0  0  0  0  0  0
   20.1357   19.5062   20.0760 C   0  0  0  0  0  0  0  0  0  0  0  0
   19.2371   20.1345   20.0009 H   0  0  0  0  0  0  0  0  0  0  0  0
   20.9948   20.1883   20.1429 H   0  0  0  0  0  0  0  0  0  0  0  0
   20.0595   18.6366   21.3505 C   0  0  0  0  0  0  0  0  0  0  0  0
   19.2005   17.9552   21.2782 H   0  0  0  0  0  0  0  0  0  0  0  0
   20.9585   18.0084   21.4186 H   0  0  0  0  0  0  0  0  0  0  0  0
   19.9305   19.4968   22.6282 C   0  0  0  0  0  0  0  0  0  0  0  0
   19.0346   20.1260   22.5455 H   0  0  0  0  0  0  0  0  0  0  0  0
   20.7923   20.1745   22.7022 H   0  0  0  0  0  0  0  0  0  0  0  0
   19.8499   18.6222   23.9036 C   0  0  0  0  0  0  0  0  0  0  0  0
   18.9531   17.9897   23.8630 H   0  0  0  0  0  0  0  0  0  0  0  0
   20.7109   17.9408   23.9148 H   0  0  0  0  0  0  0  0  0  0  0  0
   19.8535   19.4355   25.2183 C   0  0  1  0  0  0  0  0  0  0  0  0
   20.7326   20.0873   25.2161 H   0  0  0  0  0  0  0  0  0  0  0  0
   18.5968   20.3130   25.3618 C   0  0  0  0  0  0  0  0  0  0  0  0
   17.6825   19.7092   25.3054 H   0  0  0  0  0  0  0  0  0  0  0  0
   18.5528   21.0781   24.5782 H   0  0  0  0  0  0  0  0  0  0  0  0
   18.5995   20.8367   26.3256 H   0  0  0  0  0  0  0  0  0  0  0  0
   19.9974   18.5340   26.4131 N   0  3  0  0  0  0  0  0  0  0  0  0
   19.2077   17.8877   26.4919 H   0  0  0  0  0  0  0  0  0  0  0  0
   20.8513   17.9713   26.3608 H   0  0  0  0  0  0  0  0  0  0  0  0
   20.0403   19.0710   27.2839 H   0  0  0  0  0  0  0  0  0  0  0  0
  1  2  1  0  0  0  0
  1  3  1  0  0  0  0
  1  4  1  0  0  0  0
  1  5  1  0  0  0  0
  5  6  1  0  0  0  0
  5  7  1  0  0  0  0
  5  8  1  0  0  0  0
  8  9  1  0  0  0  0
  8 10  1  0  0  0  0
  8 11  1  0  0  0  0
 11 12  1  0  0  0  0
 11 13  1  0  0  0  0
 11 14  1  0  0  0  0
 14 15  1  0  0  0  0
 14 16  1  0  0  0  0
 14 17  1  0  0  0  0
 17 18  1  0  0  0  0
 17 19  1  0  0  0  0
 19 20  1  0  0  0  0
 19 21  1  0  0  0  0
 19 22  1  0  0  0  0
 17 23  1  0  0  0  0
 23 24  1  0  0  0  0
 23 25  1  0  0  0  0
 23 26  1  0  0  0  0
M  END
> <VM2 Rank>
2

> <Conf_Id>
54

> <Probability>
7.67

> <Sum Probability>
24.64

> <Delta G>
0.474

> <G>
24.184

> <E>
-8.383

> <-TS>
32.567

> <U+W>
-29.845

> <U>
23.817

> <W>
-53.663

> <W(PB)>
-56.021

> <W(SA)>
2.358

> <Valence>
3.277

> <Coulomb>
19.492

> <VdW>
1.049

> <VdW6>
-6.949

> <VdW12>
7.998

> <Bond>
0.183

> <Angle>
1.152

> <Pdih>
1.942

> <Idih>
0.000

> <Tether>
0.000

$$$$
VeraChem MOL file


 26 25  0  0  0  0  0  0  0  0999 V2000     
   20.3611   18.7665   18.8988 C   0  0  0  0  0  0  0  0  0  0  0  0
   21.3565   19.2250   18.8337 H   0  0  0  0  0  0  0  0  0  0  0  0
   20.3289   17.9289   18.1899 H   0  0  0  0  0  0  0  0  0  0  0  0
   19.6205   19.5098   18.5761 H   0  0  0  0  0  0  0  0  0  0  0  0
   20.0681   18.2779   20.3333 C   0  0  0  0  0  0  0  0  0  0  0  0
   20.8041   17.5118   20.6147 H   0  0  0  0  0  0  0  0  0  0  0  0
   19.0815   17.7944   20.3591 H   0  0  0  0  0  0  0  0  0  0  0  0
   20.1074   19.4385   21.3521 C   0  0  0  0  0  0  0  0  0  0  0  0
   21.0946   19.9199   21.3202 H   0  0  0  0  0  0  0  0  0  0  0  0
   19.3718   20.2026   21.0648 H   0  0  0  0  0  0  0  0  0  0  0  0
   19.8143   18.9534   22.7899 C   0  0  0  0  0  0  0  0  0  0  0  0
   20.5515   18.1893   23.0694 H   0  0  0  0  0  0  0  0  0  0  0  0
   18.8286   18.4702   22.8098 H   0  0  0  0  0  0  0  0  0  0  0  0
   19.8523   20.1238   23.8070 C   0  0  0  0  0  0  0  0  0  0  0  0
   20.8255   20.6277   23.7405 H   0  0  0  0  0  0  0  0  0  0  0  0
   19.1035   20.8754   23.5235 H   0  0  0  0  0  0  0  0  0  0  0  0
   19.6133   19.7157   25.2800 C   0  0  1  0  0  0  0  0  0  0  0  0
   19.6966   20.6232   25.8860 H   0  0  0  0  0  0  0  0  0  0  0  0
   18.2040   19.1383   25.4994 C   0  0  0  0  0  0  0  0  0  0  0  0
   18.0785   18.1718   24.9971 H   0  0  0  0  0  0  0  0  0  0  0  0
   17.4376   19.8255   25.1201 H   0  0  0  0  0  0  0  0  0  0  0  0
   18.0141   18.9866   26.5690 H   0  0  0  0  0  0  0  0  0  0  0  0
   20.6676   18.7739   25.7936 N   0  3  0  0  0  0  0  0  0  0  0  0
   20.6509   17.8853   25.2872 H   0  0  0  0  0  0  0  0  0  0  0  0
   21.6065   19.1695   25.6919 H   0  0  0  0  0  0  0  0  0  0  0  0
   20.5303   18.5640   26.7863 H   0  0  0  0  0  0  0  0  0  0  0  0
  1  2  1  0  0  0  0
  1  3  1  0  0  0  0
  1  4  1  0  0  0  0
  1  5  1  0  0  0  0
  5  6  1  0  0  0  0
  5  7  1  0  0  0  0
  5  8  1  0  0  0  0
  8  9  1  0  0  0  0
  8 10  1  0  0  0  0
  8 11  1  0  0  0  0
 11 12  1  0  0  0  0
 11 13  1  0  0  0  0
 11 14  1  0  0  0  0
 14 15  1  0  0  0  0
 14 16  1  0  0  0  0
 14 17  1  0  0  0  0
 17 18  1  0  0  0  0
 17 19  1  0  0  0  0
 19 20  1  0  0  0  0
 19 21  1  0  0  0  0
 19 22  1  0  0  0  0
 17 23  1  0  0  0  0
 23 24  1  0  0  0  0
 23 25  1  0  0  0  0
 23 26  1  0  0  0  0
M  END
> <VM2 Rank>
3

> <Conf_Id>
130

> <Probability>
7.18

> <Sum Probability>
31.82

> <Delta G>
0.513

> <G>
24.223

> <E>
-8.475

> <-TS>
32.698

> <U+W>
-29.937

> <U>
24.060

> <W>
-53.997

> <W(PB)>
-56.328

> <W(SA)>
2.332

> <Valence>
3.249

> <Coulomb>
19.781

> <VdW>
1.030

> <VdW6>
-7.421

> <VdW12>
8.450

> <Bond>
0.207

> <Angle>
1.205

> <Pdih>
1.837

> <Idih>
0.000

> <Tether>
0.000

$$$$
VeraChem MOL file


 26 25  0  0  0  0  0  0  0  0999 V2000     
   21.0486   19.5370   19.5912 C   0  0  0  0  0  0  0  0  0  0  0  0
   20.3772   20.3642   19.3263 H   0  0  0  0  0  0  0  0  0  0  0  0
   21.7415   19.8901   20.3648 H   0  0  0  0  0  0  0  0  0  0  0  0
   21.6443   19.2907   18.7027 H   0  0  0  0  0  0  0  0  0  0  0  0
   20.2490   18.3022   20.0653 C   0  0  0  0  0  0  0  0  0  0  0  0
   20.9433   17.5003   20.3525 H   0  0  0  0  0  0  0  0  0  0  0  0
   19.6636   17.9137   19.2202 H   0  0  0  0  0  0  0  0  0  0  0  0
   19.2859   18.6061   21.2382 C   0  0  0  0  0  0  0  0  0  0  0  0
   18.5788   19.3915   20.9375 H   0  0  0  0  0  0  0  0  0  0  0  0
   18.6844   17.7082   21.4369 H   0  0  0  0  0  0  0  0  0  0  0  0
   20.0116   19.0260   22.5390 C   0  0  0  0  0  0  0  0  0  0  0  0
   20.5568   19.9650   22.3753 H   0  0  0  0  0  0  0  0  0  0  0  0
   20.7570   18.2623   22.7973 H   0  0  0  0  0  0  0  0  0  0  0  0
   19.0190   19.2156   23.7118 C   0  0  0  0  0  0  0  0  0  0  0  0
   18.2493   19.9390   23.4112 H   0  0  0  0  0  0  0  0  0  0  0  0
   18.4984   18.2702   23.9150 H   0  0  0  0  0  0  0  0  0  0  0  0
   19.7001   19.7209   25.0022 C   0  0  1  0  0  0  0  0  0  0  0  0
   20.2300   20.6496   24.7690 H   0  0  0  0  0  0  0  0  0  0  0  0
   18.6461   20.0244   26.0791 C   0  0  0  0  0  0  0  0  0  0  0  0
   18.0852   19.1216   26.3515 H   0  0  0  0  0  0  0  0  0  0  0  0
   17.9309   20.7767   25.7237 H   0  0  0  0  0  0  0  0  0  0  0  0
   19.1203   20.4189   26.9863 H   0  0  0  0  0  0  0  0  0  0  0  0
   20.7278   18.7558   25.5272 N   0  3  0  0  0  0  0  0  0  0  0  0
   21.1825   19.1157   26.3711 H   0  0  0  0  0  0  0  0  0  0  0  0
   20.3058   17.8549   25.7672 H   0  0  0  0  0  0  0  0  0  0  0  0
   21.4618   18.5785   24.8364 H   0  0  0  0  0  0  0  0  0  0  0  0
  1  2  1  0  0  0  0
  1  3  1  0  0  0  0
  1  4  1  0  0  0  0
  1  5  1  0  0  0  0
  5  6  1  0  0  0  0
  5  7  1  0  0  0  0
  5  8  1  0  0  0  0
  8  9  1  0  0  0  0
  8 10  1  0  0  0  0
  8 11  1  0  0  0  0
 11 12  1  0  0  0  0
 11 13  1  0  0  0  0
 11 14  1  0  0  0  0
 14 15  1  0  0  0  0
 14 16  1  0  0  0  0
 14 17  1  0  0  0  0
 17 18  1  0  0  0  0
 17 19  1  0  0  0  0
 19 20  1  0  0  0  0
 19 21  1  0  0  0  0
 19 22  1  0  0  0  0
 17 23  1  0  0  0  0
 23 24  1  0  0  0  0
 23 25  1  0  0  0  0
 23 26  1  0  0  0  0
M  END
> <VM2 Rank>
4

> <Conf_Id>
772

> <Probability>
6.42

> <Sum Probability>
38.24

> <Delta G>
0.580

> <G>
24.290

> <E>
-8.375

> <-TS>
32.665

> <U+W>
-29.837

> <U>
24.148

> <W>
-53.985

> <W(PB)>
-56.298

> <W(SA)>
2.313

> <Valence>
3.242

> <Coulomb>
19.863

> <VdW>
1.043

> <VdW6>
-7.422

> <VdW12>
8.465

> <Bond>
0.206

> <Angle>
1.112

> <Pdih>
1.924

> <Idih>
0.000

> <Tether>
0.000

$$$$
VeraChem MOL file


 26 25  0  0  0  0  0  0  0  0999 V2000     
   21.0698   18.0177   19.8285 C   0  0  0  0  0  0  0  0  0  0  0  0
   20.4117   17.1391   19.8177 H   0  0  0  0  0  0  0  0  0  0  0  0
   21.6580   18.0077   18.9018 H   0  0  0  0  0  0  0  0  0  0  0  0
   21.7716   17.9121   20.6650 H   0  0  0  0  0  0  0  0  0  0  0  0
   20.2510   19.3243   19.9349 C   0  0  0  0  0  0  0  0  0  0  0  0
   19.6582   19.4458   19.0175 H   0  0  0  0  0  0  0  0  0  0  0  0
   20.9326   20.1853   19.9765 H   0  0  0  0  0  0  0  0  0  0  0  0
   19.2943   19.3545   21.1513 C   0  0  0  0  0  0  0  0  0  0  0  0
   18.6763   20.2606   21.0853 H   0  0  0  0  0  0  0  0  0  0  0  0
   18.6017   18.5034   21.0943 H   0  0  0  0  0  0  0  0  0  0  0  0
   20.0282   19.3401   22.5138 C   0  0  0  0  0  0  0  0  0  0  0  0
   20.7543   20.1641   22.5471 H   0  0  0  0  0  0  0  0  0  0  0  0
   20.5965   18.4070   22.6136 H   0  0  0  0  0  0  0  0  0  0  0  0
   19.0396   19.4756   23.6975 C   0  0  0  0  0  0  0  0  0  0  0  0
   18.4434   20.3875   23.5598 H   0  0  0  0  0  0  0  0  0  0  0  0
   18.3330   18.6349   23.6892 H   0  0  0  0  0  0  0  0  0  0  0  0
   19.7463   19.5467   25.0687 C   0  0  1  0  0  0  0  0  0  0  0  0
   20.4617   20.3746   25.0430 H   0  0  0  0  0  0  0  0  0  0  0  0
   18.7246   19.8266   26.1825 C   0  0  0  0  0  0  0  0  0  0  0  0
   17.9822   19.0217   26.2517 H   0  0  0  0  0  0  0  0  0  0  0  0
   18.1920   20.7675   25.9957 H   0  0  0  0  0  0  0  0  0  0  0  0
   19.2246   19.9151   27.1549 H   0  0  0  0  0  0  0  0  0  0  0  0
   20.5343   18.3027   25.3768 N   0  3  0  0  0  0  0  0  0  0  0  0
   21.0103   18.3757   26.2804 H   0  0  0  0  0  0  0  0  0  0  0  0
   19.9298   17.4778   25.4149 H   0  0  0  0  0  0  0  0  0  0  0  0
   21.2507   18.1281   24.6671 H   0  0  0  0  0  0  0  0  0  0  0  0
  1  2  1  0  0  0  0
  1  3  1  0  0  0  0
  1  4  1  0  0  0  0
  1  5  1  0  0  0  0
  5  6  1  0  0  0  0
  5  7  1  0  0  0  0
  5  8  1  0  0  0  0
  8  9  1  0  0  0  0
  8 10  1  0  0  0  0
  8 11  1  0  0  0  0
 11 12  1  0  0  0  0
 11 13  1  0  0  0  0
 11 14  1  0  0  0  0
 14 15  1  0  0  0  0
 14 16  1  0  0  0  0
 14 17  1  0  0  0  0
 17 18  1  0  0  0  0
 17 19  1  0  0  0  0
 19 20  1  0  0  0  0
 19 21  1  0  0  0  0
 19 22  1  0  0  0  0
 17 23  1  0  0  0  0
 23 24  1  0  0  0  0
 23 25  1  0  0  0  0
 23 26  1  0  0  0  0
M  END
> <VM2 Rank>
5

> <Conf_Id>
1321

> <Probability>
6.02

> <Sum Probability>
44.26

> <Delta G>
0.618

> <G>
24.327

> <E>
-8.331

> <-TS>
32.658

> <U+W>
-29.792

> <U>
24.259

> <W>
-54.052

> <W(PB)>
-56.355

> <W(SA)>
2.304

> <Valence>
3.240

> <Coulomb>
19.971

> <VdW>
1.049

> <VdW6>
-7.432

> <VdW12>
8.481

> <Bond>
0.208

> <Angle>
1.110

> <Pdih>
1.922

> <Idih>
0.000

> <Tether>
0.000

$$$$
VeraChem MOL file


 26 25  0  0  0  0  0  0  0  0999 V2000     
   19.9267   18.4376   19.0849 C   0  0  0  0  0  0  0  0  0  0  0  0
   19.5852   17.4794   18.6721 H   0  0  0  0  0  0  0  0  0  0  0  0
   19.2237   19.2150   18.7584 H   0  0  0  0  0  0  0  0  0  0  0  0
   20.9095   18.6605   18.6494 H   0  0  0  0  0  0  0  0  0  0  0  0
   20.0037   18.3710   20.6250 C   0  0  0  0  0  0  0  0  0  0  0  0
   20.6908   17.5659   20.9207 H   0  0  0  0  0  0  0  0  0  0  0  0
   19.0139   18.1065   21.0198 H   0  0  0  0  0  0  0  0  0  0  0  0
   20.4794   19.7128   21.2304 C   0  0  0  0  0  0  0  0  0  0  0  0
   21.4336   19.9963   20.7649 H   0  0  0  0  0  0  0  0  0  0  0  0
   19.7649   20.5078   20.9760 H   0  0  0  0  0  0  0  0  0  0  0  0
   20.6775   19.6633   22.7653 C   0  0  0  0  0  0  0  0  0  0  0  0
   21.1157   20.6173   23.0902 H   0  0  0  0  0  0  0  0  0  0  0  0
   21.4128   18.8849   23.0087 H   0  0  0  0  0  0  0  0  0  0  0  0
   19.3623   19.4202   23.5489 C   0  0  0  0  0  0  0  0  0  0  0  0
   18.6079   20.1427   23.2099 H   0  0  0  0  0  0  0  0  0  0  0  0
   18.9663   18.4218   23.3241 H   0  0  0  0  0  0  0  0  0  0  0  0
   19.5397   19.5652   25.0758 C   0  0  1  0  0  0  0  0  0  0  0  0
   19.9496   20.5591   25.2804 H   0  0  0  0  0  0  0  0  0  0  0  0
   18.1814   19.4482   25.7856 C   0  0  0  0  0  0  0  0  0  0  0  0
   17.7268   18.4644   25.6139 H   0  0  0  0  0  0  0  0  0  0  0  0
   17.4847   20.2144   25.4231 H   0  0  0  0  0  0  0  0  0  0  0  0
   18.2954   19.5878   26.8677 H   0  0  0  0  0  0  0  0  0  0  0  0
   20.5173   18.5696   25.6383 N   0  3  0  0  0  0  0  0  0  0  0  0
   20.2019   17.6084   25.4838 H   0  0  0  0  0  0  0  0  0  0  0  0
   21.4394   18.6653   25.2049 H   0  0  0  0  0  0  0  0  0  0  0  0
   20.6391   18.6938   26.6473 H   0  0  0  0  0  0  0  0  0  0  0  0
  1  2  1  0  0  0  0
  1  3  1  0  0  0  0
  1  4  1  0  0  0  0
  1  5  1  0  0  0  0
  5  6  1  0  0  0  0
  5  7  1  0  0  0  0
  5  8  1  0  0  0  0
  8  9  1  0  0  0  0
  8 10  1  0  0  0  0
  8 11  1  0  0  0  0
 11 12  1  0  0  0  0
 11 13  1  0  0  0  0
 11 14  1  0  0  0  0
 14 15  1  0  0  0  0
 14 16  1  0  0  0  0
 14 17  1  0  0  0  0
 17 18  1  0  0  0  0
 17 19  1  0  0  0  0
 19 20  1  0  0  0  0
 19 21  1  0  0  0  0
 19 22  1  0  0  0  0
 17 23  1  0  0  0  0
 23 24  1  0  0  0  0
 23 25  1  0  0  0  0
 23 26  1  0  0  0  0
M  END
> <VM2 Rank>
6

> <Conf_Id>
470

> <Probability>
5.28

> <Sum Probability>
49.54

> <Delta G>
0.696

> <G>
24.406

> <E>
-8.262

> <-TS>
32.668

> <U+W>
-29.724

> <U>
24.276

> <W>
-54.000

> <W(PB)>
-56.312

> <W(SA)>
2.312

> <Valence>
3.269

> <Coulomb>
20.007

> <VdW>
1.000

> <VdW6>
-7.483

> <VdW12>
8.483

> <Bond>
0.211

> <Angle>
1.103

> <Pdih>
1.955

> <Idih>
0.000

> <Tether>
0.000

$$$$
VeraChem MOL file


 26 25  0  0  0  0  0  0  0  0999 V2000     
   20.8972   19.5642   19.3398 C   0  0  0  0  0  0  0  0  0  0  0  0
   21.3063   19.0768   18.4453 H   0  0  0  0  0  0  0  0  0  0  0  0
   20.0620   20.2026   19.0235 H   0  0  0  0  0  0  0  0  0  0  0  0
   21.6802   20.2088   19.7601 H   0  0  0  0  0  0  0  0  0  0  0  0
   20.4325   18.5123   20.3692 C   0  0  0  0  0  0  0  0  0  0  0  0
   21.2808   17.8685   20.6407 H   0  0  0  0  0  0  0  0  0  0  0  0
   19.6756   17.8618   19.9088 H   0  0  0  0  0  0  0  0  0  0  0  0
   19.8510   19.1725   21.6388 C   0  0  0  0  0  0  0  0  0  0  0  0
   20.6120   19.8274   22.0832 H   0  0  0  0  0  0  0  0  0  0  0  0
   19.0023   19.8130   21.3614 H   0  0  0  0  0  0  0  0  0  0  0  0
   19.3867   18.1186   22.6727 C   0  0  0  0  0  0  0  0  0  0  0  0
   20.2365   17.4901   22.9709 H   0  0  0  0  0  0  0  0  0  0  0  0
   18.6630   17.4430   22.1960 H   0  0  0  0  0  0  0  0  0  0  0  0
   18.7225   18.7436   23.9263 C   0  0  0  0  0  0  0  0  0  0  0  0
   17.8185   19.2834   23.6145 H   0  0  0  0  0  0  0  0  0  0  0  0
   18.3840   17.9379   24.5912 H   0  0  0  0  0  0  0  0  0  0  0  0
   19.6370   19.7072   24.7157 C   0  0  1  0  0  0  0  0  0  0  0  0
   19.9487   20.5136   24.0454 H   0  0  0  0  0  0  0  0  0  0  0  0
   18.8679   20.3323   25.8904 C   0  0  0  0  0  0  0  0  0  0  0  0
   17.9833   20.8739   25.5327 H   0  0  0  0  0  0  0  0  0  0  0  0
   19.4996   21.0475   26.4314 H   0  0  0  0  0  0  0  0  0  0  0  0
   18.5348   19.5651   26.6005 H   0  0  0  0  0  0  0  0  0  0  0  0
   20.8933   19.0374   25.2012 N   0  3  0  0  0  0  0  0  0  0  0  0
   20.6821   18.2684   25.8424 H   0  0  0  0  0  0  0  0  0  0  0  0
   21.4331   18.6507   24.4222 H   0  0  0  0  0  0  0  0  0  0  0  0
   21.5000   19.6946   25.6996 H   0  0  0  0  0  0  0  0  0  0  0  0
  1  2  1  0  0  0  0
  1  3  1  0  0  0  0
  1  4  1  0  0  0  0
  1  5  1  0  0  0  0
  5  6  1  0  0  0  0
  5  7  1  0  0  0  0
  5  8  1  0  0  0  0
  8  9  1  0  0  0  0
  8 10  1  0  0  0  0
  8 11  1  0  0  0  0
 11 12  1  0  0  0  0
 11 13  1  0  0  0  0
 11 14  1  0  0  0  0
 14 15  1  0  0  0  0
 14 16  1  0  0  0  0
 14 17  1  0  0  0  0
 17 18  1  0  0  0  0
 17 19  1  0  0  0  0
 19 20  1  0  0  0  0
 19 21  1  0  0  0  0
 19 22  1  0  0  0  0
 17 23  1  0  0  0  0
 23 24  1  0  0  0  0
 23 25  1  0  0  0  0
 23 26  1  0  0  0  0
M  END
> <VM2 Rank>
7

> <Conf_Id>
999

> <Probability>
5.27

> <Sum Probability>
54.81

> <Delta G>
0.697

> <G>
24.407

> <E>
-8.338

> <-TS>
32.745

> <U+W>
-29.800

> <U>
24.149

> <W>
-53.948

> <W(PB)>
-56.254

> <W(SA)>
2.306

> <Valence>
3.038

> <Coulomb>
20.324

> <VdW>
0.787

> <VdW6>
-7.686

> <VdW12>
8.473

> <Bond>
0.201

> <Angle>
1.089

> <Pdih>
1.748

> <Idih>
0.000

> <Tether>
0.000

$$$$
VeraChem MOL file


 26 25  0  0  0  0  0  0  0  0999 V2000     
   19.8817   18.9336   18.9777 C   0  0  0  0  0  0  0  0  0  0  0  0
   19.4717   19.7091   18.3177 H   0  0  0  0  0  0  0  0  0  0  0  0
   20.8781   18.6651   18.6031 H   0  0  0  0  0  0  0  0  0  0  0  0
   19.2368   18.0486   18.8990 H   0  0  0  0  0  0  0  0  0  0  0  0
   19.9533   19.4395   20.4341 C   0  0  0  0  0  0  0  0  0  0  0  0
   18.9467   19.7364   20.7566 H   0  0  0  0  0  0  0  0  0  0  0  0
   20.5807   20.3408   20.4757 H   0  0  0  0  0  0  0  0  0  0  0  0
   20.5245   18.3606   21.3845 C   0  0  0  0  0  0  0  0  0  0  0  0
   19.8658   17.4811   21.3856 H   0  0  0  0  0  0  0  0  0  0  0  0
   21.4927   18.0190   20.9930 H   0  0  0  0  0  0  0  0  0  0  0  0
   20.7319   18.8563   22.8371 C   0  0  0  0  0  0  0  0  0  0  0  0
   21.3922   19.7346   22.8344 H   0  0  0  0  0  0  0  0  0  0  0  0
   21.2643   18.0713   23.3900 H   0  0  0  0  0  0  0  0  0  0  0  0
   19.4088   19.1992   23.5693 C   0  0  0  0  0  0  0  0  0  0  0  0
   18.8913   20.0002   23.0273 H   0  0  0  0  0  0  0  0  0  0  0  0
   18.7406   18.3279   23.5570 H   0  0  0  0  0  0  0  0  0  0  0  0
   19.6294   19.6631   25.0258 C   0  0  1  0  0  0  0  0  0  0  0  0
   20.3254   20.5076   25.0149 H   0  0  0  0  0  0  0  0  0  0  0  0
   18.3037   20.1388   25.6415 C   0  0  0  0  0  0  0  0  0  0  0  0
   17.8754   20.9627   25.0571 H   0  0  0  0  0  0  0  0  0  0  0  0
   18.4592   20.5030   26.6645 H   0  0  0  0  0  0  0  0  0  0  0  0
   17.5677   19.3258   25.6762 H   0  0  0  0  0  0  0  0  0  0  0  0
   20.2547   18.5970   25.8840 N   0  3  0  0  0  0  0  0  0  0  0  0
   21.1621   18.3024   25.5137 H   0  0  0  0  0  0  0  0  0  0  0  0
   20.4082   18.9290   26.8403 H   0  0  0  0  0  0  0  0  0  0  0  0
   19.6598   17.7662   25.9400 H   0  0  0  0  0  0  0  0  0  0  0  0
  1  2  1  0  0  0  0
  1  3  1  0  0  0  0
  1  4  1  0  0  0  0
  1  5  1  0  0  0  0
  5  6  1  0  0  0  0
  5  7  1  0  0  0  0
  5  8  1  0  0  0  0
  8  9  1  0  0  0  0
  8 10  1  0  0  0  0
  8 11  1  0  0  0  0
 11 12  1  0  0  0  0
 11 13  1  0  0  0  0
 11 14  1  0  0  0  0
 14 15  1  0  0  0  0
 14 16  1  0  0  0  0
 14 17  1  0  0  0  0
 17 18  1  0  0  0  0
 17 19  1  0  0  0  0
 19 20  1  0  0  0  0
 19 21  1  0  0  0  0
 19 22  1  0  0  0  0
 17 23  1  0  0  0  0
 23 24  1  0  0  0  0
 23 25  1  0  0  0  0
 23 26  1  0  0  0  0
M  END
> <VM2 Rank>
8

> <Conf_Id>
1138

> <Probability>
4.36

> <Sum Probability>
59.17

> <Delta G>
0.810

> <G>
24.520

> <E>
-8.102

> <-TS>
32.622

> <U+W>
-29.564

> <U>
24.282

> <W>
-53.846

> <W(PB)>
-56.207

> <W(SA)>
2.361

> <Valence>
3.311

> <Coulomb>
19.887

> <VdW>
1.083

> <VdW6>
-7.444

> <VdW12>
8.527

> <Bond>
0.219

> <Angle>
1.167

> <Pdih>
1.926

> <Idih>
0.000

> <Tether>
0.000

$$$$
VeraChem MOL file


 26 25  0  0  0  0  0  0  0  0999 V2000     
   20.9636   19.5128   19.3554 C   0  0  0  0  0  0  0  0  0  0  0  0
   20.6615   19.6260   18.3061 H   0  0  0  0  0  0  0  0  0  0  0  0
   21.3652   20.4761   19.6961 H   0  0  0  0  0  0  0  0  0  0  0  0
   21.7725   18.7717   19.3950 H   0  0  0  0  0  0  0  0  0  0  0  0
   19.7653   19.0731   20.2230 C   0  0  0  0  0  0  0  0  0  0  0  0
   19.3642   18.1255   19.8367 H   0  0  0  0  0  0  0  0  0  0  0  0
   18.9605   19.8166   20.1369 H   0  0  0  0  0  0  0  0  0  0  0  0
   20.1639   18.9055   21.7059 C   0  0  0  0  0  0  0  0  0  0  0  0
   20.9670   18.1600   21.7867 H   0  0  0  0  0  0  0  0  0  0  0  0
   20.5714   19.8552   22.0772 H   0  0  0  0  0  0  0  0  0  0  0  0
   18.9622   18.4682   22.5775 C   0  0  0  0  0  0  0  0  0  0  0  0
   18.5327   17.5468   22.1607 H   0  0  0  0  0  0  0  0  0  0  0  0
   18.1669   19.2232   22.5214 H   0  0  0  0  0  0  0  0  0  0  0  0
   19.3438   18.2052   24.0573 C   0  0  0  0  0  0  0  0  0  0  0  0
   18.4478   17.8852   24.6056 H   0  0  0  0  0  0  0  0  0  0  0  0
   20.0395   17.3564   24.0899 H   0  0  0  0  0  0  0  0  0  0  0  0
   19.9904   19.4037   24.7916 C   0  0  1  0  0  0  0  0  0  0  0  0
   20.8837   19.7069   24.2377 H   0  0  0  0  0  0  0  0  0  0  0  0
   19.0389   20.6104   24.8790 C   0  0  0  0  0  0  0  0  0  0  0  0
   18.7979   20.9998   23.8830 H   0  0  0  0  0  0  0  0  0  0  0  0
   19.5027   21.4283   25.4439 H   0  0  0  0  0  0  0  0  0  0  0  0
   18.1006   20.3403   25.3792 H   0  0  0  0  0  0  0  0  0  0  0  0
   20.4600   19.0091   26.1643 N   0  3  0  0  0  0  0  0  0  0  0  0
   19.6794   18.7129   26.7562 H   0  0  0  0  0  0  0  0  0  0  0  0
   21.1283   18.2341   26.1264 H   0  0  0  0  0  0  0  0  0  0  0  0
   20.9245   19.7882   26.6394 H   0  0  0  0  0  0  0  0  0  0  0  0
  1  2  1  0  0  0  0
  1  3  1  0  0  0  0
  1  4  1  0  0  0  0
  1  5  1  0  0  0  0
  5  6  1  0  0  0  0
  5  7  1  0  0  0  0
  5  8  1  0  0  0  0
  8  9  1  0  0  0  0
  8 10  1  0  0  0  0
  8 11  1  0  0  0  0
 11 12  1  0  0  0  0
 11 13  1  0  0  0  0
 11 14  1  0  0  0  0
 14 15  1  0  0  0  0
 14 16  1  0  0  0  0
 14 17  1  0  0  0  0
 17 18  1  0  0  0  0
 17 19  1  0  0  0  0
 19 20  1  0  0  0  0
 19 21  1  0  0  0  0
 19 22  1  0  0  0  0
 17 23  1  0  0  0  0
 23 24  1  0  0  0  0
 23 25  1  0  0  0  0
 23 26  1  0  0  0  0
M  END
> <VM2 Rank>
9

> <Conf_Id>
1085

> <Probability>
3.73

> <Sum Probability>
62.90

> <Delta G>
0.903

> <G>
24.613

> <E>
-8.229

> <-TS>
32.842

> <U+W>
-29.691

> <U>
24.335

> <W>
-54.027

> <W(PB)>
-56.341

> <W(SA)>
2.315

> <Valence>
3.530

> <Coulomb>
19.945

> <VdW>
0.861

> <VdW6>
-7.915

> <VdW12>
8.775

> <Bond>
0.213

> <Angle>
1.415

> <Pdih>
1.902

> <Idih>
0.000

> <Tether>
0.000

$$$$
VeraChem MOL file


 26 25  0  0  0  0  0  0  0  0999 V2000     
   20.8062   19.7430   19.5402 C   0  0  0  0  0  0  0  0  0  0  0  0
   21.7813   19.2451   19.6195 H   0  0  0  0  0  0  0  0  0  0  0  0
   20.6854   20.0811   18.5029 H   0  0  0  0  0  0  0  0  0  0  0  0
   20.8225   20.6356   20.1778 H   0  0  0  0  0  0  0  0  0  0  0  0
   19.6592   18.7848   19.9336 C   0  0  0  0  0  0  0  0  0  0  0  0
   19.6074   17.9725   19.1952 H   0  0  0  0  0  0  0  0  0  0  0  0
   18.6983   19.3149   19.8750 H   0  0  0  0  0  0  0  0  0  0  0  0
   19.8305   18.1654   21.3418 C   0  0  0  0  0  0  0  0  0  0  0  0
   19.0362   17.4217   21.4945 H   0  0  0  0  0  0  0  0  0  0  0  0
   20.7811   17.6162   21.3869 H   0  0  0  0  0  0  0  0  0  0  0  0
   19.7736   19.2074   22.4847 C   0  0  0  0  0  0  0  0  0  0  0  0
   18.8476   19.7896   22.3910 H   0  0  0  0  0  0  0  0  0  0  0  0
   20.6090   19.9133   22.3885 H   0  0  0  0  0  0  0  0  0  0  0  0
   19.8384   18.5328   23.8772 C   0  0  0  0  0  0  0  0  0  0  0  0
   18.9671   17.8784   24.0131 H   0  0  0  0  0  0  0  0  0  0  0  0
   20.7234   17.8835   23.9095 H   0  0  0  0  0  0  0  0  0  0  0  0
   19.9241   19.5345   25.0515 C   0  0  1  0  0  0  0  0  0  0  0  0
   20.7748   20.1997   24.8736 H   0  0  0  0  0  0  0  0  0  0  0  0
   18.6525   20.3930   25.1764 C   0  0  0  0  0  0  0  0  0  0  0  0
   17.7600   19.7656   25.2928 H   0  0  0  0  0  0  0  0  0  0  0  0
   18.5129   21.0299   24.2954 H   0  0  0  0  0  0  0  0  0  0  0  0
   18.7180   21.0559   26.0479 H   0  0  0  0  0  0  0  0  0  0  0  0
   20.2035   18.8270   26.3485 N   0  3  0  0  0  0  0  0  0  0  0  0
   21.0702   18.2835   26.3029 H   0  0  0  0  0  0  0  0  0  0  0  0
   20.3009   19.4898   27.1229 H   0  0  0  0  0  0  0  0  0  0  0  0
   19.4482   18.1811   26.5930 H   0  0  0  0  0  0  0  0  0  0  0  0
  1  2  1  0  0  0  0
  1  3  1  0  0  0  0
  1  4  1  0  0  0  0
  1  5  1  0  0  0  0
  5  6  1  0  0  0  0
  5  7  1  0  0  0  0
  5  8  1  0  0  0  0
  8  9  1  0  0  0  0
  8 10  1  0  0  0  0
  8 11  1  0  0  0  0
 11 12  1  0  0  0  0
 11 13  1  0  0  0  0
 11 14  1  0  0  0  0
 14 15  1  0  0  0  0
 14 16  1  0  0  0  0
 14 17  1  0  0  0  0
 17 18  1  0  0  0  0
 17 19  1  0  0  0  0
 19 20  1  0  0  0  0
 19 21  1  0  0  0  0
 19 22  1  0  0  0  0
 17 23  1  0  0  0  0
 23 24  1  0  0  0  0
 23 25  1  0  0  0  0
 23 26  1  0  0  0  0
M  END
> <VM2 Rank>
10

> <Conf_Id>
242

> <Probability>
2.96

> <Sum Probability>
65.87

> <Delta G>
1.041

> <G>
24.751

> <E>
-7.930

> <-TS>
32.681

> <U+W>
-29.392

> <U>
24.442

> <W>
-53.834

> <W(PB)>
-56.129

> <W(SA)>
2.295

> <Valence>
3.781

> <Coulomb>
19.492

> <VdW>
1.170

> <VdW6>
-7.583

> <VdW12>
8.753

> <Bond>
0.218

> <Angle>
1.390

> <Pdih>
2.173

> <Idih>
0.000

> <Tether>
0.000

$$$$
VeraChem MOL file


 26 25  0  0  0  0  0  0  0  0999 V2000     
   19.3589   19.5422   19.4492 C   0  0  0  0  0  0  0  0  0  0  0  0
   19.5229   19.9146   18.4297 H   0  0  0  0  0  0  0  0  0  0  0  0
   18.5544   18.7965   19.4088 H   0  0  0  0  0  0  0  0  0  0  0  0
   19.0145   20.3879   20.0571 H   0  0  0  0  0  0  0  0  0  0  0  0
   20.6589   18.9273   20.0156 C   0  0  0  0  0  0  0  0  0  0  0  0
   21.4378   19.7002   20.0758 H   0  0  0  0  0  0  0  0  0  0  0  0
   21.0299   18.1718   19.3089 H   0  0  0  0  0  0  0  0  0  0  0  0
   20.4733   18.2619   21.4008 C   0  0  0  0  0  0  0  0  0  0  0  0
   19.7080   17.4766   21.3309 H   0  0  0  0  0  0  0  0  0  0  0  0
   21.4106   17.7567   21.6720 H   0  0  0  0  0  0  0  0  0  0  0  0
   20.0944   19.2619   22.5198 C   0  0  0  0  0  0  0  0  0  0  0  0
   19.1276   19.7227   22.2833 H   0  0  0  0  0  0  0  0  0  0  0  0
   20.8369   20.0710   22.5551 H   0  0  0  0  0  0  0  0  0  0  0  0
   20.0174   18.5705   23.9035 C   0  0  0  0  0  0  0  0  0  0  0  0
   19.2326   17.8025   23.8903 H   0  0  0  0  0  0  0  0  0  0  0  0
   20.9642   18.0447   24.0850 H   0  0  0  0  0  0  0  0  0  0  0  0
   19.7697   19.5474   25.0758 C   0  0  1  0  0  0  0  0  0  0  0  0
   20.5382   20.3258   25.0419 H   0  0  0  0  0  0  0  0  0  0  0  0
   18.3888   20.2221   24.9882 C   0  0  0  0  0  0  0  0  0  0  0  0
   17.5844   19.4769   24.9528 H   0  0  0  0  0  0  0  0  0  0  0  0
   18.3099   20.8562   24.0977 H   0  0  0  0  0  0  0  0  0  0  0  0
   18.2175   20.8659   25.8598 H   0  0  0  0  0  0  0  0  0  0  0  0
   19.9266   18.8546   26.4010 N   0  3  0  0  0  0  0  0  0  0  0  0
   19.8028   19.5064   27.1810 H   0  0  0  0  0  0  0  0  0  0  0  0
   19.2376   18.1066   26.5164 H   0  0  0  0  0  0  0  0  0  0  0  0
   20.8555   18.4352   26.5001 H   0  0  0  0  0  0  0  0  0  0  0  0
  1  2  1  0  0  0  0
  1  3  1  0  0  0  0
  1  4  1  0  0  0  0
  1  5  1  0  0  0  0
  5  6  1  0  0  0  0
  5  7  1  0  0  0  0
  5  8  1  0  0  0  0
  8  9  1  0  0  0  0
  8 10  1  0  0  0  0
  8 11  1  0  0  0  0
 11 12  1  0  0  0  0
 11 13  1  0  0  0  0
 11 14  1  0  0  0  0
 14 15  1  0  0  0  0
 14 16  1  0  0  0  0
 14 17  1  0  0  0  0
 17 18  1  0  0  0  0
 17 19  1  0  0  0  0
 19 20  1  0  0  0  0
 19 21  1  0  0  0  0
 19 22  1  0  0  0  0
 17 23  1  0  0  0  0
 23 24  1  0  0  0  0
 23 25  1  0  0  0  0
 23 26  1  0  0  0  0
M  END
> <VM2 Rank>
11

> <Conf_Id>
1295

> <Probability>
2.49

> <Sum Probability>
68.36

> <Delta G>
1.143

> <G>
24.853

> <E>
-7.821

> <-TS>
32.674

> <U+W>
-29.283

> <U>
24.454

> <W>
-53.737

> <W(PB)>
-56.067

> <W(SA)>
2.330

> <Valence>
3.783

> <Coulomb>
19.491

> <VdW>
1.181

> <VdW6>
-7.595

> <VdW12>
8.775

> <Bond>
0.221

> <Angle>
1.392

> <Pdih>
2.171

> <Idih>
0.000

> <Tether>
0.000

$$$$
VeraChem MOL file


 26 25  0  0  0  0  0  0  0  0999 V2000     
   20.5940   17.7672   19.9359 C   0  0  0  0  0  0  0  0  0  0  0  0
   20.3500   17.0744   20.7507 H   0  0  0  0  0  0  0  0  0  0  0  0
   20.3898   17.2485   18.9903 H   0  0  0  0  0  0  0  0  0  0  0  0
   21.6699   17.9811   19.9758 H   0  0  0  0  0  0  0  0  0  0  0  0
   19.7647   19.0682   20.0288 C   0  0  0  0  0  0  0  0  0  0  0  0
   18.6931   18.8249   20.0192 H   0  0  0  0  0  0  0  0  0  0  0  0
   19.9508   19.6714   19.1292 H   0  0  0  0  0  0  0  0  0  0  0  0
   20.0968   19.9223   21.2762 C   0  0  0  0  0  0  0  0  0  0  0  0
   21.1643   20.1824   21.2685 H   0  0  0  0  0  0  0  0  0  0  0  0
   19.5470   20.8710   21.2051 H   0  0  0  0  0  0  0  0  0  0  0  0
   19.7375   19.2287   22.6122 C   0  0  0  0  0  0  0  0  0  0  0  0
   20.3349   18.3155   22.7236 H   0  0  0  0  0  0  0  0  0  0  0  0
   18.6836   18.9228   22.5837 H   0  0  0  0  0  0  0  0  0  0  0  0
   19.9860   20.1640   23.8244 C   0  0  0  0  0  0  0  0  0  0  0  0
   21.0295   20.5052   23.8081 H   0  0  0  0  0  0  0  0  0  0  0  0
   19.3714   21.0676   23.7177 H   0  0  0  0  0  0  0  0  0  0  0  0
   19.7005   19.5302   25.2066 C   0  0  1  0  0  0  0  0  0  0  0  0
   19.9400   20.2826   25.9644 H   0  0  0  0  0  0  0  0  0  0  0  0
   18.2179   19.1553   25.3763 C   0  0  0  0  0  0  0  0  0  0  0  0
   17.9284   18.3331   24.7111 H   0  0  0  0  0  0  0  0  0  0  0  0
   17.5712   20.0153   25.1623 H   0  0  0  0  0  0  0  0  0  0  0  0
   18.0183   18.8378   26.4071 H   0  0  0  0  0  0  0  0  0  0  0  0
   20.5906   18.3522   25.4938 N   0  3  0  0  0  0  0  0  0  0  0  0
   20.4325   17.9851   26.4364 H   0  0  0  0  0  0  0  0  0  0  0  0
   20.4209   17.5886   24.8347 H   0  0  0  0  0  0  0  0  0  0  0  0
   21.5807   18.6044   25.4261 H   0  0  0  0  0  0  0  0  0  0  0  0
  1  2  1  0  0  0  0
  1  3  1  0  0  0  0
  1  4  1  0  0  0  0
  1  5  1  0  0  0  0
  5  6  1  0  0  0  0
  5  7  1  0  0  0  0
  5  8  1  0  0  0  0
  8  9  1  0  0  0  0
  8 10  1  0  0  0  0
  8 11  1  0  0  0  0
 11 12  1  0  0  0  0
 11 13  1  0  0  0  0
 11 14  1  0  0  0  0
 14 15  1  0  0  0  0
 14 16  1  0  0  0  0
 14 17  1  0  0  0  0
 17 18  1  0  0  0  0
 17 19  1  0  0  0  0
 19 20  1  0  0  0  0
 19 21  1  0  0  0  0
 19 22  1  0  0  0  0
 17 23  1  0  0  0  0
 23 24  1  0  0  0  0
 23 25  1  0  0  0  0
 23 26  1  0  0  0  0
M  END
> <VM2 Rank>
12

> <Conf_Id>
513

> <Probability>
2.40

> <Sum Probability>
70.76

> <Delta G>
1.167

> <G>
24.876

> <E>
-7.931

> <-TS>
32.807

> <U+W>
-29.392

> <U>
24.790

> <W>
-54.183

> <W(PB)>
-56.462

> <W(SA)>
2.279

> <Valence>
3.751

> <Coulomb>
19.894

> <VdW>
1.145

> <VdW6>
-8.074

> <VdW12>
9.219

> <Bond>
0.243

> <Angle>
1.440

> <Pdih>
2.068

> <Idih>
0.000

> <Tether>
0.000

$$$$
VeraChem MOL file


 26 25  0  0  0  0  0  0  0  0999 V2000     
   20.2618   18.3070   19.1275 C   0  0  0  0  0  0  0  0  0  0  0  0
   19.8384   17.3927   18.6919 H   0  0  0  0  0  0  0  0  0  0  0  0
   19.9750   19.1500   18.4853 H   0  0  0  0  0  0  0  0  0  0  0  0
   21.3557   18.2162   19.1043 H   0  0  0  0  0  0  0  0  0  0  0  0
   19.7528   18.5097   20.5704 C   0  0  0  0  0  0  0  0  0  0  0  0
   20.0229   17.6304   21.1702 H   0  0  0  0  0  0  0  0  0  0  0  0
   18.6554   18.5671   20.5647 H   0  0  0  0  0  0  0  0  0  0  0  0
   20.3400   19.7914   21.2073 C   0  0  0  0  0  0  0  0  0  0  0  0
   21.4347   19.7119   21.2575 H   0  0  0  0  0  0  0  0  0  0  0  0
   20.1234   20.6471   20.5529 H   0  0  0  0  0  0  0  0  0  0  0  0
   19.7754   20.0954   22.6167 C   0  0  0  0  0  0  0  0  0  0  0  0
   18.6848   20.2039   22.5496 H   0  0  0  0  0  0  0  0  0  0  0  0
   20.1653   21.0686   22.9459 H   0  0  0  0  0  0  0  0  0  0  0  0
   20.1429   19.0208   23.6724 C   0  0  0  0  0  0  0  0  0  0  0  0
   19.6464   18.0719   23.4332 H   0  0  0  0  0  0  0  0  0  0  0  0
   21.2231   18.8319   23.6184 H   0  0  0  0  0  0  0  0  0  0  0  0
   19.7891   19.4300   25.1204 C   0  0  1  0  0  0  0  0  0  0  0  0
   20.2631   20.3939   25.3300 H   0  0  0  0  0  0  0  0  0  0  0  0
   18.2708   19.5794   25.3249 C   0  0  0  0  0  0  0  0  0  0  0  0
   18.0439   19.8227   26.3702 H   0  0  0  0  0  0  0  0  0  0  0  0
   17.7426   18.6525   25.0691 H   0  0  0  0  0  0  0  0  0  0  0  0
   17.8632   20.3888   24.7082 H   0  0  0  0  0  0  0  0  0  0  0  0
   20.3552   18.4542   26.1144 N   0  3  0  0  0  0  0  0  0  0  0  0
   19.9586   17.5191   25.9890 H   0  0  0  0  0  0  0  0  0  0  0  0
   21.3720   18.3716   26.0251 H   0  0  0  0  0  0  0  0  0  0  0  0
   20.1573   18.7431   27.0766 H   0  0  0  0  0  0  0  0  0  0  0  0
  1  2  1  0  0  0  0
  1  3  1  0  0  0  0
  1  4  1  0  0  0  0
  1  5  1  0  0  0  0
  5  6  1  0  0  0  0
  5  7  1  0  0  0  0
  5  8  1  0  0  0  0
  8  9  1  0  0  0  0
  8 10  1  0  0  0  0
  8 11  1  0  0  0  0
 11 12  1  0  0  0  0
 11 13  1  0  0  0  0
 11 14  1  0  0  0  0
 14 15  1  0  0  0  0
 14 16  1  0  0  0  0
 14 17  1  0  0  0  0
 17 18  1  0  0  0  0
 17 19  1  0  0  0  0
 19 20  1  0  0  0  0
 19 21  1  0  0  0  0
 19 22  1  0  0  0  0
 17 23  1  0  0  0  0
 23 24  1  0  0  0  0
 23 25  1  0  0  0  0
 23 26  1  0  0  0  0
M  END
> <VM2 Rank>
13

> <Conf_Id>
1352

> <Probability>
2.40

> <Sum Probability>
73.16

> <Delta G>
1.167

> <G>
24.877

> <E>
-7.823

> <-TS>
32.700

> <U+W>
-29.285

> <U>
24.614

> <W>
-53.900

> <W(PB)>
-56.207

> <W(SA)>
2.307

> <Valence>
3.779

> <Coulomb>
19.717

> <VdW>
1.118

> <VdW6>
-7.653

> <VdW12>
8.772

> <Bond>
0.222

> <Angle>
1.351

> <Pdih>
2.206

> <Idih>
0.000

> <Tether>
0.000

$$$$
VeraChem MOL file


 26 25  0  0  0  0  0  0  0  0999 V2000     
   19.3886   18.1236   19.7280 C   0  0  0  0  0  0  0  0  0  0  0  0
   19.5637   17.4954   18.8451 H   0  0  0  0  0  0  0  0  0  0  0  0
   18.9720   17.4801   20.5126 H   0  0  0  0  0  0  0  0  0  0  0  0
   18.6337   18.8746   19.4612 H   0  0  0  0  0  0  0  0  0  0  0  0
   20.7043   18.7953   20.1829 C   0  0  0  0  0  0  0  0  0  0  0  0
   21.1451   19.3254   19.3271 H   0  0  0  0  0  0  0  0  0  0  0  0
   21.4313   18.0244   20.4743 H   0  0  0  0  0  0  0  0  0  0  0  0
   20.5132   19.8007   21.3442 C   0  0  0  0  0  0  0  0  0  0  0  0
   21.4706   20.3081   21.5261 H   0  0  0  0  0  0  0  0  0  0  0  0
   19.8026   20.5815   21.0397 H   0  0  0  0  0  0  0  0  0  0  0  0
   20.0322   19.1407   22.6588 C   0  0  0  0  0  0  0  0  0  0  0  0
   20.7188   18.3263   22.9249 H   0  0  0  0  0  0  0  0  0  0  0  0
   19.0448   18.6904   22.4998 H   0  0  0  0  0  0  0  0  0  0  0  0
   19.9548   20.1690   23.8175 C   0  0  0  0  0  0  0  0  0  0  0  0
   20.9354   20.6469   23.9421 H   0  0  0  0  0  0  0  0  0  0  0  0
   19.2598   20.9733   23.5426 H   0  0  0  0  0  0  0  0  0  0  0  0
   19.5216   19.5825   25.1821 C   0  0  1  0  0  0  0  0  0  0  0  0
   19.5400   20.4014   25.9079 H   0  0  0  0  0  0  0  0  0  0  0  0
   18.0870   19.0272   25.1448 C   0  0  0  0  0  0  0  0  0  0  0  0
   18.0124   18.1369   24.5092 H   0  0  0  0  0  0  0  0  0  0  0  0
   17.3866   19.7812   24.7647 H   0  0  0  0  0  0  0  0  0  0  0  0
   17.7583   18.7468   26.1531 H   0  0  0  0  0  0  0  0  0  0  0  0
   20.4863   18.5491   25.6956 N   0  3  0  0  0  0  0  0  0  0  0  0
   20.2189   18.2176   26.6267 H   0  0  0  0  0  0  0  0  0  0  0  0
   20.5217   17.7343   25.0783 H   0  0  0  0  0  0  0  0  0  0  0  0
   21.4364   18.9245   25.7660 H   0  0  0  0  0  0  0  0  0  0  0  0
  1  2  1  0  0  0  0
  1  3  1  0  0  0  0
  1  4  1  0  0  0  0
  1  5  1  0  0  0  0
  5  6  1  0  0  0  0
  5  7  1  0  0  0  0
  5  8  1  0  0  0  0
  8  9  1  0  0  0  0
  8 10  1  0  0  0  0
  8 11  1  0  0  0  0
 11 12  1  0  0  0  0
 11 13  1  0  0  0  0
 11 14  1  0  0  0  0
 14 15  1  0  0  0  0
 14 16  1  0  0  0  0
 14 17  1  0  0  0  0
 17 18  1  0  0  0  0
 17 19  1  0  0  0  0
 19 20  1  0  0  0  0
 19 21  1  0  0  0  0
 19 22  1  0  0  0  0
 17 23  1  0  0  0  0
 23 24  1  0  0  0  0
 23 25  1  0  0  0  0
 23 26  1  0  0  0  0
M  END
> <VM2 Rank>
14

> <Conf_Id>
235

> <Probability>
2.38

> <Sum Probability>
75.54

> <Delta G>
1.170

> <G>
24.880

> <E>
-7.928

> <-TS>
32.808

> <U+W>
-29.390

> <U>
24.690

> <W>
-54.080

> <W(PB)>
-56.374

> <W(SA)>
2.294

> <Valence>
3.755

> <Coulomb>
19.785

> <VdW>
1.150

> <VdW6>
-8.077

> <VdW12>
9.227

> <Bond>
0.244

> <Angle>
1.443

> <Pdih>
2.068

> <Idih>
0.000

> <Tether>
0.000

$$$$
VeraChem MOL file


 26 25  0  0  0  0  0  0  0  0999 V2000     
   20.5167   18.4103   19.0958 C   0  0  0  0  0  0  0  0  0  0  0  0
   21.4710   18.0327   18.7064 H   0  0  0  0  0  0  0  0  0  0  0  0
   19.7702   17.6122   18.9904 H   0  0  0  0  0  0  0  0  0  0  0  0
   20.2063   19.2542   18.4660 H   0  0  0  0  0  0  0  0  0  0  0  0
   20.6624   18.8417   20.5706 C   0  0  0  0  0  0  0  0  0  0  0  0
   21.4353   19.6192   20.6475 H   0  0  0  0  0  0  0  0  0  0  0  0
   21.0137   17.9834   21.1581 H   0  0  0  0  0  0  0  0  0  0  0  0
   19.3269   19.3737   21.1429 C   0  0  0  0  0  0  0  0  0  0  0  0
   18.9537   20.1727   20.4872 H   0  0  0  0  0  0  0  0  0  0  0  0
   18.5696   18.5780   21.1192 H   0  0  0  0  0  0  0  0  0  0  0  0
   19.4441   19.9374   22.5808 C   0  0  0  0  0  0  0  0  0  0  0  0
   18.4908   20.4208   22.8298 H   0  0  0  0  0  0  0  0  0  0  0  0
   20.2076   20.7272   22.6049 H   0  0  0  0  0  0  0  0  0  0  0  0
   19.7730   18.8580   23.6451 C   0  0  0  0  0  0  0  0  0  0  0  0
   19.0034   18.0750   23.6292 H   0  0  0  0  0  0  0  0  0  0  0  0
   20.7189   18.3708   23.3797 H   0  0  0  0  0  0  0  0  0  0  0  0
   19.9134   19.4195   25.0790 C   0  0  1  0  0  0  0  0  0  0  0  0
   20.6404   20.2372   25.0577 H   0  0  0  0  0  0  0  0  0  0  0  0
   18.5813   19.9650   25.6250 C   0  0  0  0  0  0  0  0  0  0  0  0
   17.7983   19.1969   25.6016 H   0  0  0  0  0  0  0  0  0  0  0  0
   18.2344   20.8280   25.0455 H   0  0  0  0  0  0  0  0  0  0  0  0
   18.6978   20.2995   26.6632 H   0  0  0  0  0  0  0  0  0  0  0  0
   20.4703   18.3824   26.0146 N   0  3  0  0  0  0  0  0  0  0  0  0
   20.6021   18.7609   26.9569 H   0  0  0  0  0  0  0  0  0  0  0  0
   19.8452   17.5759   26.0946 H   0  0  0  0  0  0  0  0  0  0  0  0
   21.3800   18.0362   25.6964 H   0  0  0  0  0  0  0  0  0  0  0  0
  1  2  1  0  0  0  0
  1  3  1  0  0  0  0
  1  4  1  0  0  0  0
  1  5  1  0  0  0  0
  5  6  1  0  0  0  0
  5  7  1  0  0  0  0
  5  8  1  0  0  0  0
  8  9  1  0  0  0  0
  8 10  1  0  0  0  0
  8 11  1  0  0  0  0
 11 12  1  0  0  0  0
 11 13  1  0  0  0  0
 11 14  1  0  0  0  0
 14 15  1  0  0  0  0
 14 16  1  0  0  0  0
 14 17  1  0  0  0  0
 17 18  1  0  0  0  0
 17 19  1  0  0  0  0
 19 20  1  0  0  0  0
 19 21  1  0  0  0  0
 19 22  1  0  0  0  0
 17 23  1  0  0  0  0
 23 24  1  0  0  0  0
 23 25  1  0  0  0  0
 23 26  1  0  0  0  0
M  END
> <VM2 Rank>
15

> <Conf_Id>
1033

> <Probability>
2.26

> <Sum Probability>
77.80

> <Delta G>
1.202

> <G>
24.912

> <E>
-7.677

> <-TS>
32.589

> <U+W>
-29.139

> <U>
24.912

> <W>
-54.051

> <W(PB)>
-56.345

> <W(SA)>
2.294

> <Valence>
3.916

> <Coulomb>
19.768

> <VdW>
1.228

> <VdW6>
-7.563

> <VdW12>
8.791

> <Bond>
0.234

> <Angle>
1.481

> <Pdih>
2.202

> <Idih>
0.000

> <Tether>
0.000

$$$$
VeraChem MOL file


 26 25  0  0  0  0  0  0  0  0999 V2000     
   20.2883   19.1207   19.0370 C   0  0  0  0  0  0  0  0  0  0  0  0
   19.9364   19.9125   18.3630 H   0  0  0  0  0  0  0  0  0  0  0  0
   21.3852   19.1055   18.9954 H   0  0  0  0  0  0  0  0  0  0  0  0
   19.9181   18.1616   18.6518 H   0  0  0  0  0  0  0  0  0  0  0  0
   19.7916   19.3701   20.4769 C   0  0  0  0  0  0  0  0  0  0  0  0
   18.6933   19.4092   20.4815 H   0  0  0  0  0  0  0  0  0  0  0  0
   20.1472   20.3539   20.8104 H   0  0  0  0  0  0  0  0  0  0  0  0
   20.2793   18.2680   21.4469 C   0  0  0  0  0  0  0  0  0  0  0  0
   19.9817   17.2873   21.0507 H   0  0  0  0  0  0  0  0  0  0  0  0
   21.3775   18.2650   21.4822 H   0  0  0  0  0  0  0  0  0  0  0  0
   19.7135   18.4094   22.8814 C   0  0  0  0  0  0  0  0  0  0  0  0
   20.0155   17.5241   23.4560 H   0  0  0  0  0  0  0  0  0  0  0  0
   18.6164   18.3914   22.8371 H   0  0  0  0  0  0  0  0  0  0  0  0
   20.1985   19.6922   23.6107 C   0  0  0  0  0  0  0  0  0  0  0  0
   21.2932   19.7499   23.5513 H   0  0  0  0  0  0  0  0  0  0  0  0
   19.8189   20.5797   23.0893 H   0  0  0  0  0  0  0  0  0  0  0  0
   19.7827   19.7900   25.0976 C   0  0  1  0  0  0  0  0  0  0  0  0
   20.1928   20.7265   25.4885 H   0  0  0  0  0  0  0  0  0  0  0  0
   18.2544   19.8445   25.2675 C   0  0  0  0  0  0  0  0  0  0  0  0
   17.7807   18.8980   24.9808 H   0  0  0  0  0  0  0  0  0  0  0  0
   17.8223   20.6452   24.6545 H   0  0  0  0  0  0  0  0  0  0  0  0
   17.9916   20.0475   26.3129 H   0  0  0  0  0  0  0  0  0  0  0  0
   20.3797   18.6931   25.9360 N   0  3  0  0  0  0  0  0  0  0  0  0
   20.1470   18.8103   26.9262 H   0  0  0  0  0  0  0  0  0  0  0  0
   20.0354   17.7744   25.6470 H   0  0  0  0  0  0  0  0  0  0  0  0
   21.4009   18.6772   25.8620 H   0  0  0  0  0  0  0  0  0  0  0  0
  1  2  1  0  0  0  0
  1  3  1  0  0  0  0
  1  4  1  0  0  0  0
  1  5  1  0  0  0  0
  5  6  1  0  0  0  0
  5  7  1  0  0  0  0
  5  8  1  0  0  0  0
  8  9  1  0  0  0  0
  8 10  1  0  0  0  0
  8 11  1  0  0  0  0
 11 12  1  0  0  0  0
 11 13  1  0  0  0  0
 11 14  1  0  0  0  0
 14 15  1  0  0  0  0
 14 16  1  0  0  0  0
 14 17  1  0  0  0  0
 17 18  1  0  0  0  0
 17 19  1  0  0  0  0
 19 20  1  0  0  0  0
 19 21  1  0  0  0  0
 19 22  1  0  0  0  0
 17 23  1  0  0  0  0
 23 24  1  0  0  0  0
 23 25  1  0  0  0  0
 23 26  1  0  0  0  0
M  END
> <VM2 Rank>
16

> <Conf_Id>
459

> <Probability>
1.93

> <Sum Probability>
79.73

> <Delta G>
1.295

> <G>
25.005

> <E>
-7.804

> <-TS>
32.809

> <U+W>
-29.265

> <U>
24.725

> <W>
-53.991

> <W(PB)>
-56.300

> <W(SA)>
2.309

> <Valence>
3.779

> <Coulomb>
19.804

> <VdW>
1.142

> <VdW6>
-8.104

> <VdW12>
9.246

> <Bond>
0.254

> <Angle>
1.437

> <Pdih>
2.089

> <Idih>
0.000

> <Tether>
0.000

$$$$
VeraChem MOL file


 26 25  0  0  0  0  0  0  0  0999 V2000     
   20.1932   20.0427   19.9067 C   0  0  0  0  0  0  0  0  0  0  0  0
   20.2070   20.7487   20.7464 H   0  0  0  0  0  0  0  0  0  0  0  0
   21.2222   19.9159   19.5462 H   0  0  0  0  0  0  0  0  0  0  0  0
   19.6082   20.5015   19.0992 H   0  0  0  0  0  0  0  0  0  0  0  0
   19.5777   18.6860   20.3177 C   0  0  0  0  0  0  0  0  0  0  0  0
   19.4745   18.0589   19.4212 H   0  0  0  0  0  0  0  0  0  0  0  0
   18.5574   18.8401   20.6935 H   0  0  0  0  0  0  0  0  0  0  0  0
   20.4245   17.9152   21.3626 C   0  0  0  0  0  0  0  0  0  0  0  0
   19.9312   16.9581   21.5810 H   0  0  0  0  0  0  0  0  0  0  0  0
   21.3927   17.6574   20.9116 H   0  0  0  0  0  0  0  0  0  0  0  0
   20.6828   18.6649   22.6954 C   0  0  0  0  0  0  0  0  0  0  0  0
   21.2692   19.5738   22.5056 H   0  0  0  0  0  0  0  0  0  0  0  0
   21.3138   18.0240   23.3248 H   0  0  0  0  0  0  0  0  0  0  0  0
   19.3857   19.0293   23.4625 C   0  0  0  0  0  0  0  0  0  0  0  0
   18.7711   19.6902   22.8387 H   0  0  0  0  0  0  0  0  0  0  0  0
   18.7923   18.1229   23.6414 H   0  0  0  0  0  0  0  0  0  0  0  0
   19.6598   19.7444   24.8035 C   0  0  1  0  0  0  0  0  0  0  0  0
   20.2826   20.6217   24.6031 H   0  0  0  0  0  0  0  0  0  0  0  0
   18.3415   20.2226   25.4330 C   0  0  0  0  0  0  0  0  0  0  0  0
   18.5313   20.7626   26.3688 H   0  0  0  0  0  0  0  0  0  0  0  0
   17.6777   19.3775   25.6544 H   0  0  0  0  0  0  0  0  0  0  0  0
   17.8115   20.9053   24.7571 H   0  0  0  0  0  0  0  0  0  0  0  0
   20.4229   18.8829   25.7726 N   0  3  0  0  0  0  0  0  0  0  0  0
   21.3257   18.5942   25.3866 H   0  0  0  0  0  0  0  0  0  0  0  0
   20.6096   19.3798   26.6481 H   0  0  0  0  0  0  0  0  0  0  0  0
   19.9021   18.0338   26.0073 H   0  0  0  0  0  0  0  0  0  0  0  0
  1  2  1  0  0  0  0
  1  3  1  0  0  0  0
  1  4  1  0  0  0  0
  1  5  1  0  0  0  0
  5  6  1  0  0  0  0
  5  7  1  0  0  0  0
  5  8  1  0  0  0  0
  8  9  1  0  0  0  0
  8 10  1  0  0  0  0
  8 11  1  0  0  0  0
 11 12  1  0  0  0  0
 11 13  1  0  0  0  0
 11 14  1  0  0  0  0
 14 15  1  0  0  0  0
 14 16  1  0  0  0  0
 14 17  1  0  0  0  0
 17 18  1  0  0  0  0
 17 19  1  0  0  0  0
 19 20  1  0  0  0  0
 19 21  1  0  0  0  0
 19 22  1  0  0  0  0
 17 23  1  0  0  0  0
 23 24  1  0  0  0  0
 23 25  1  0  0  0  0
 23 26  1  0  0  0  0
M  END
> <VM2 Rank>
17

> <Conf_Id>
1065

> <Probability>
1.90

> <Sum Probability>
81.63

> <Delta G>
1.305

> <G>
25.015

> <E>
-7.961

> <-TS>
32.975

> <U+W>
-29.422

> <U>
24.692

> <W>
-54.114

> <W(PB)>
-56.398

> <W(SA)>
2.284

> <Valence>
3.727

> <Coulomb>
19.918

> <VdW>
1.047

> <VdW6>
-8.393

> <VdW12>
9.440

> <Bond>
0.259

> <Angle>
1.567

> <Pdih>
1.900

> <Idih>
0.000

> <Tether>
0.000

$$$$
VeraChem MOL file


 26 25  0  0  0  0  0  0  0  0999 V2000     
   20.6672   19.8501   19.6718 C   0  0  0  0  0  0  0  0  0  0  0  0
   20.1128   20.5132   18.9950 H   0  0  0  0  0  0  0  0  0  0  0  0
   21.4907   20.4285   20.1106 H   0  0  0  0  0  0  0  0  0  0  0  0
   21.1005   19.0408   19.0698 H   0  0  0  0  0  0  0  0  0  0  0  0
   19.7372   19.2898   20.7685 C   0  0  0  0  0  0  0  0  0  0  0  0
   18.9079   18.7425   20.2988 H   0  0  0  0  0  0  0  0  0  0  0  0
   19.2931   20.1284   21.3212 H   0  0  0  0  0  0  0  0  0  0  0  0
   20.4977   18.3541   21.7374 C   0  0  0  0  0  0  0  0  0  0  0  0
   20.9916   17.5637   21.1553 H   0  0  0  0  0  0  0  0  0  0  0  0
   21.3033   18.9119   22.2330 H   0  0  0  0  0  0  0  0  0  0  0  0
   19.5840   17.6828   22.7953 C   0  0  0  0  0  0  0  0  0  0  0  0
   20.1902   17.0013   23.4071 H   0  0  0  0  0  0  0  0  0  0  0  0
   18.8511   17.0455   22.2816 H   0  0  0  0  0  0  0  0  0  0  0  0
   18.8236   18.6685   23.7224 C   0  0  0  0  0  0  0  0  0  0  0  0
   18.0803   19.2184   23.1310 H   0  0  0  0  0  0  0  0  0  0  0  0
   18.2513   18.0928   24.4618 H   0  0  0  0  0  0  0  0  0  0  0  0
   19.7358   19.6771   24.4552 C   0  0  1  0  0  0  0  0  0  0  0  0
   20.2957   20.2428   23.7044 H   0  0  0  0  0  0  0  0  0  0  0  0
   18.8915   20.6687   25.2711 C   0  0  0  0  0  0  0  0  0  0  0  0
   18.3094   20.1523   26.0447 H   0  0  0  0  0  0  0  0  0  0  0  0
   18.1923   21.2109   24.6223 H   0  0  0  0  0  0  0  0  0  0  0  0
   19.5320   21.4106   25.7635 H   0  0  0  0  0  0  0  0  0  0  0  0
   20.7510   18.9970   25.3323 N   0  3  0  0  0  0  0  0  0  0  0  0
   20.2995   18.4506   26.0704 H   0  0  0  0  0  0  0  0  0  0  0  0
   21.3400   18.3578   24.7919 H   0  0  0  0  0  0  0  0  0  0  0  0
   21.3687   19.6753   25.7869 H   0  0  0  0  0  0  0  0  0  0  0  0
  1  2  1  0  0  0  0
  1  3  1  0  0  0  0
  1  4  1  0  0  0  0
  1  5  1  0  0  0  0
  5  6  1  0  0  0  0
  5  7  1  0  0  0  0
  5  8  1  0  0  0  0
  8  9  1  0  0  0  0
  8 10  1  0  0  0  0
  8 11  1  0  0  0  0
 11 12  1  0  0  0  0
 11 13  1  0  0  0  0
 11 14  1  0  0  0  0
 14 15  1  0  0  0  0
 14 16  1  0  0  0  0
 14 17  1  0  0  0  0
 17 18  1  0  0  0  0
 17 19  1  0  0  0  0
 19 20  1  0  0  0  0
 19 21  1  0  0  0  0
 19 22  1  0  0  0  0
 17 23  1  0  0  0  0
 23 24  1  0  0  0  0
 23 25  1  0  0  0  0
 23 26  1  0  0  0  0
M  END
> <VM2 Rank>
18

> <Conf_Id>
1014

> <Probability>
1.86

> <Sum Probability>
83.49

> <Delta G>
1.319

> <G>
25.029

> <E>
-7.991

> <-TS>
33.020

> <U+W>
-29.453

> <U>
24.584

> <W>
-54.037

> <W(PB)>
-56.325

> <W(SA)>
2.288

> <Valence>
3.508

> <Coulomb>
20.402

> <VdW>
0.674

> <VdW6>
-8.750

> <VdW12>
9.424

> <Bond>
0.246

> <Angle>
1.409

> <Pdih>
1.854

> <Idih>
0.000

> <Tether>
0.000

$$$$
VeraChem MOL file


 26 25  0  0  0  0  0  0  0  0999 V2000     
   20.5827   18.9538   19.0883 C   0  0  0  0  0  0  0  0  0  0  0  0
   21.5789   19.0697   18.6419 H   0  0  0  0  0  0  0  0  0  0  0  0
   20.1450   18.0256   18.6982 H   0  0  0  0  0  0  0  0  0  0  0  0
   19.9618   19.7934   18.7496 H   0  0  0  0  0  0  0  0  0  0  0  0
   20.6763   18.9194   20.6285 C   0  0  0  0  0  0  0  0  0  0  0  0
   21.1557   19.8441   20.9758 H   0  0  0  0  0  0  0  0  0  0  0  0
   21.3263   18.0881   20.9351 H   0  0  0  0  0  0  0  0  0  0  0  0
   19.2822   18.7610   21.2805 C   0  0  0  0  0  0  0  0  0  0  0  0
   18.6502   19.6207   21.0183 H   0  0  0  0  0  0  0  0  0  0  0  0
   18.7893   17.8761   20.8546 H   0  0  0  0  0  0  0  0  0  0  0  0
   19.3298   18.6008   22.8201 C   0  0  0  0  0  0  0  0  0  0  0  0
   19.9574   17.7362   23.0735 H   0  0  0  0  0  0  0  0  0  0  0  0
   18.3160   18.3603   23.1650 H   0  0  0  0  0  0  0  0  0  0  0  0
   19.8424   19.8691   23.5563 C   0  0  0  0  0  0  0  0  0  0  0  0
   20.8672   20.0919   23.2357 H   0  0  0  0  0  0  0  0  0  0  0  0
   19.2359   20.7338   23.2564 H   0  0  0  0  0  0  0  0  0  0  0  0
   19.8395   19.7709   25.1004 C   0  0  1  0  0  0  0  0  0  0  0  0
   20.2722   20.6998   25.4848 H   0  0  0  0  0  0  0  0  0  0  0  0
   18.4161   19.6522   25.6730 C   0  0  0  0  0  0  0  0  0  0  0  0
   18.4360   19.7293   26.7670 H   0  0  0  0  0  0  0  0  0  0  0  0
   17.9520   18.6932   25.4145 H   0  0  0  0  0  0  0  0  0  0  0  0
   17.7750   20.4581   25.2949 H   0  0  0  0  0  0  0  0  0  0  0  0
   20.7190   18.6609   25.6069 N   0  3  0  0  0  0  0  0  0  0  0  0
   20.3760   17.7468   25.3018 H   0  0  0  0  0  0  0  0  0  0  0  0
   21.6802   18.7588   25.2679 H   0  0  0  0  0  0  0  0  0  0  0  0
   20.7552   18.6494   26.6301 H   0  0  0  0  0  0  0  0  0  0  0  0
  1  2  1  0  0  0  0
  1  3  1  0  0  0  0
  1  4  1  0  0  0  0
  1  5  1  0  0  0  0
  5  6  1  0  0  0  0
  5  7  1  0  0  0  0
  5  8  1  0  0  0  0
  8  9  1  0  0  0  0
  8 10  1  0  0  0  0
  8 11  1  0  0  0  0
 11 12  1  0  0  0  0
 11 13  1  0  0  0  0
 11 14  1  0  0  0  0
 14 15  1  0  0  0  0
 14 16  1  0  0  0  0
 14 17  1  0  0  0  0
 17 18  1  0  0  0  0
 17 19  1  0  0  0  0
 19 20  1  0  0  0  0
 19 21  1  0  0  0  0
 19 22  1  0  0  0  0
 17 23  1  0  0  0  0
 23 24  1  0  0  0  0
 23 25  1  0  0  0  0
 23 26  1  0  0  0  0
M  END
> <VM2 Rank>
19

> <Conf_Id>
225

> <Probability>
1.85

> <Sum Probability>
85.34

> <Delta G>
1.321

> <G>
25.031

> <E>
-7.727

> <-TS>
32.758

> <U+W>
-29.189

> <U>
24.990

> <W>
-54.179

> <W(PB)>
-56.459

> <W(SA)>
2.279

> <Valence>
3.862

> <Coulomb>
19.956

> <VdW>
1.172

> <VdW6>
-8.054

> <VdW12>
9.226

> <Bond>
0.258

> <Angle>
1.498

> <Pdih>
2.106

> <Idih>
0.000

> <Tether>
0.000

$$$$
VeraChem MOL file


 26 25  0  0  0  0  0  0  0  0999 V2000     
   20.2946   17.6425   20.3251 C   0  0  0  0  0  0  0  0  0  0  0  0
   19.7458   16.9420   19.6824 H   0  0  0  0  0  0  0  0  0  0  0  0
   21.3204   17.7175   19.9415 H   0  0  0  0  0  0  0  0  0  0  0  0
   20.3341   17.2061   21.3308 H   0  0  0  0  0  0  0  0  0  0  0  0
   19.6028   19.0244   20.3340 C   0  0  0  0  0  0  0  0  0  0  0  0
   18.5872   18.9278   20.7407 H   0  0  0  0  0  0  0  0  0  0  0  0
   19.4793   19.3648   19.2964 H   0  0  0  0  0  0  0  0  0  0  0  0
   20.3928   20.1045   21.1162 C   0  0  0  0  0  0  0  0  0  0  0  0
   21.3578   20.2694   20.6175 H   0  0  0  0  0  0  0  0  0  0  0  0
   19.8520   21.0584   21.0463 H   0  0  0  0  0  0  0  0  0  0  0  0
   20.6536   19.7804   22.6099 C   0  0  0  0  0  0  0  0  0  0  0  0
   21.2266   20.6093   23.0483 H   0  0  0  0  0  0  0  0  0  0  0  0
   21.2956   18.8936   22.6860 H   0  0  0  0  0  0  0  0  0  0  0  0
   19.3553   19.5756   23.4312 C   0  0  0  0  0  0  0  0  0  0  0  0
   18.6903   20.4333   23.2636 H   0  0  0  0  0  0  0  0  0  0  0  0
   18.8195   18.6866   23.0751 H   0  0  0  0  0  0  0  0  0  0  0  0
   19.6199   19.4381   24.9460 C   0  0  1  0  0  0  0  0  0  0  0  0
   20.1699   20.3234   25.2797 H   0  0  0  0  0  0  0  0  0  0  0  0
   18.2918   19.3761   25.7173 C   0  0  0  0  0  0  0  0  0  0  0  0
   17.6902   20.2744   25.5305 H   0  0  0  0  0  0  0  0  0  0  0  0
   18.4726   19.3158   26.7976 H   0  0  0  0  0  0  0  0  0  0  0  0
   17.7004   18.5010   25.4202 H   0  0  0  0  0  0  0  0  0  0  0  0
   20.4773   18.2462   25.2742 N   0  3  0  0  0  0  0  0  0  0  0  0
   20.0269   17.3727   24.9892 H   0  0  0  0  0  0  0  0  0  0  0  0
   21.3832   18.2959   24.8006 H   0  0  0  0  0  0  0  0  0  0  0  0
   20.6606   18.1829   26.2796 H   0  0  0  0  0  0  0  0  0  0  0  0
  1  2  1  0  0  0  0
  1  3  1  0  0  0  0
  1  4  1  0  0  0  0
  1  5  1  0  0  0  0
  5  6  1  0  0  0  0
  5  7  1  0  0  0  0
  5  8  1  0  0  0  0
  8  9  1  0  0  0  0
  8 10  1  0  0  0  0
  8 11  1  0  0  0  0
 11 12  1  0  0  0  0
 11 13  1  0  0  0  0
 11 14  1  0  0  0  0
 14 15  1  0  0  0  0
 14 16  1  0  0  0  0
 14 17  1  0  0  0  0
 17 18  1  0  0  0  0
 17 19  1  0  0  0  0
 19 20  1  0  0  0  0
 19 21  1  0  0  0  0
 19 22  1  0  0  0  0
 17 23  1  0  0  0  0
 23 24  1  0  0  0  0
 23 25  1  0  0  0  0
 23 26  1  0  0  0  0
M  END
> <VM2 Rank>
20

> <Conf_Id>
567

> <Probability>
1.63

> <Sum Probability>
86.97

> <Delta G>
1.397

> <G>
25.107

> <E>
-7.889

> <-TS>
32.995

> <U+W>
-29.350

> <U>
24.852

> <W>
-54.202

> <W(PB)>
-56.475

> <W(SA)>
2.273

> <Valence>
3.679

> <Coulomb>
20.236

> <VdW>
0.936

> <VdW6>
-8.465

> <VdW12>
9.401

> <Bond>
0.251

> <Angle>
1.470

> <Pdih>
1.958

> <Idih>
0.000

> <Tether>
0.000

$$$$
VeraChem MOL file


 26 25  0  0  0  0  0  0  0  0999 V2000     
   19.4664   19.7364   19.6717 C   0  0  0  0  0  0  0  0  0  0  0  0
   19.5188   19.7637   18.5756 H   0  0  0  0  0  0  0  0  0  0  0  0
   18.5071   19.2796   19.9444 H   0  0  0  0  0  0  0  0  0  0  0  0
   19.4699   20.7726   20.0339 H   0  0  0  0  0  0  0  0  0  0  0  0
   20.6589   18.9413   20.2503 C   0  0  0  0  0  0  0  0  0  0  0  0
   21.5925   19.3639   19.8531 H   0  0  0  0  0  0  0  0  0  0  0  0
   20.6171   17.9018   19.8962 H   0  0  0  0  0  0  0  0  0  0  0  0
   20.7204   18.9665   21.7964 C   0  0  0  0  0  0  0  0  0  0  0  0
   21.6498   18.4758   22.1170 H   0  0  0  0  0  0  0  0  0  0  0  0
   20.7862   20.0087   22.1360 H   0  0  0  0  0  0  0  0  0  0  0  0
   19.5169   18.2603   22.4701 C   0  0  0  0  0  0  0  0  0  0  0  0
   19.4108   17.2510   22.0492 H   0  0  0  0  0  0  0  0  0  0  0  0
   18.5849   18.7873   22.2307 H   0  0  0  0  0  0  0  0  0  0  0  0
   19.6672   18.1382   24.0084 C   0  0  0  0  0  0  0  0  0  0  0  0
   18.7872   17.6213   24.4136 H   0  0  0  0  0  0  0  0  0  0  0  0
   20.5266   17.4892   24.2225 H   0  0  0  0  0  0  0  0  0  0  0  0
   19.8609   19.4792   24.7553 C   0  0  1  0  0  0  0  0  0  0  0  0
   20.7433   19.9786   24.3445 H   0  0  0  0  0  0  0  0  0  0  0  0
   18.6503   20.4149   24.5882 C   0  0  0  0  0  0  0  0  0  0  0  0
   17.7269   19.9349   24.9353 H   0  0  0  0  0  0  0  0  0  0  0  0
   18.5138   20.7054   23.5399 H   0  0  0  0  0  0  0  0  0  0  0  0
   18.7921   21.3373   25.1646 H   0  0  0  0  0  0  0  0  0  0  0  0
   20.1469   19.2512   26.2137 N   0  3  0  0  0  0  0  0  0  0  0  0
   20.9755   18.6649   26.3486 H   0  0  0  0  0  0  0  0  0  0  0  0
   20.3156   20.1338   26.7045 H   0  0  0  0  0  0  0  0  0  0  0  0
   19.3631   18.7875   26.6808 H   0  0  0  0  0  0  0  0  0  0  0  0
  1  2  1  0  0  0  0
  1  3  1  0  0  0  0
  1  4  1  0  0  0  0
  1  5  1  0  0  0  0
  5  6  1  0  0  0  0
  5  7  1  0  0  0  0
  5  8  1  0  0  0  0
  8  9  1  0  0  0  0
  8 10  1  0  0  0  0
  8 11  1  0  0  0  0
 11 12  1  0  0  0  0
 11 13  1  0  0  0  0
 11 14  1  0  0  0  0
 14 15  1  0  0  0  0
 14 16  1  0  0  0  0
 14 17  1  0  0  0  0
 17 18  1  0  0  0  0
 17 19  1  0  0  0  0
 19 20  1  0  0  0  0
 19 21  1  0  0  0  0
 19 22  1  0  0  0  0
 17 23  1  0  0  0  0
 23 24  1  0  0  0  0
 23 25  1  0  0  0  0
 23 26  1  0  0  0  0
M  END
> <VM2 Rank>
21

> <Conf_Id>
442

> <Probability>
1.60

> <Sum Probability>
88.57

> <Delta G>
1.409

> <G>
25.119

> <E>
-7.848

> <-TS>
32.967

> <U+W>
-29.310

> <U>
24.864

> <W>
-54.173

> <W(PB)>
-56.446

> <W(SA)>
2.272

> <Valence>
4.004

> <Coulomb>
19.922

> <VdW>
0.938

> <VdW6>
-8.619

> <VdW12>
9.557

> <Bond>
0.248

> <Angle>
1.606

> <Pdih>
2.151

> <Idih>
0.000

> <Tether>
0.000

$$$$
VeraChem MOL file


 26 25  0  0  0  0  0  0  0  0999 V2000     
   20.1155   18.5739   19.3461 C   0  0  0  0  0  0  0  0  0  0  0  0
   20.7124   18.3416   18.4546 H   0  0  0  0  0  0  0  0  0  0  0  0
   19.6139   17.6489   19.6561 H   0  0  0  0  0  0  0  0  0  0  0  0
   19.3471   19.3018   19.0549 H   0  0  0  0  0  0  0  0  0  0  0  0
   21.0172   19.1363   20.4685 C   0  0  0  0  0  0  0  0  0  0  0  0
   21.5918   19.9831   20.0680 H   0  0  0  0  0  0  0  0  0  0  0  0
   21.7549   18.3777   20.7652 H   0  0  0  0  0  0  0  0  0  0  0  0
   20.2294   19.6161   21.7115 C   0  0  0  0  0  0  0  0  0  0  0  0
   20.9352   20.1126   22.3901 H   0  0  0  0  0  0  0  0  0  0  0  0
   19.5004   20.3808   21.4100 H   0  0  0  0  0  0  0  0  0  0  0  0
   19.5040   18.4699   22.4615 C   0  0  0  0  0  0  0  0  0  0  0  0
   20.2262   17.6906   22.7385 H   0  0  0  0  0  0  0  0  0  0  0  0
   18.7832   17.9900   21.7870 H   0  0  0  0  0  0  0  0  0  0  0  0
   18.7344   18.9527   23.7181 C   0  0  0  0  0  0  0  0  0  0  0  0
   17.9585   19.6638   23.4049 H   0  0  0  0  0  0  0  0  0  0  0  0
   18.2057   18.0990   24.1624 H   0  0  0  0  0  0  0  0  0  0  0  0
   19.6222   19.6178   24.7941 C   0  0  1  0  0  0  0  0  0  0  0  0
   20.1219   20.4808   24.3446 H   0  0  0  0  0  0  0  0  0  0  0  0
   18.7596   20.1208   25.9625 C   0  0  0  0  0  0  0  0  0  0  0  0
   18.0070   20.8373   25.6108 H   0  0  0  0  0  0  0  0  0  0  0  0
   19.3790   20.6295   26.7115 H   0  0  0  0  0  0  0  0  0  0  0  0
   18.2376   19.2918   26.4568 H   0  0  0  0  0  0  0  0  0  0  0  0
   20.7057   18.7006   25.2916 N   0  3  0  0  0  0  0  0  0  0  0  0
   21.3101   18.3903   24.5261 H   0  0  0  0  0  0  0  0  0  0  0  0
   21.3002   19.1639   25.9847 H   0  0  0  0  0  0  0  0  0  0  0  0
   20.3133   17.8651   25.7334 H   0  0  0  0  0  0  0  0  0  0  0  0
  1  2  1  0  0  0  0
  1  3  1  0  0  0  0
  1  4  1  0  0  0  0
  1  5  1  0  0  0  0
  5  6  1  0  0  0  0
  5  7  1  0  0  0  0
  5  8  1  0  0  0  0
  8  9  1  0  0  0  0
  8 10  1  0  0  0  0
  8 11  1  0  0  0  0
 11 12  1  0  0  0  0
 11 13  1  0  0  0  0
 11 14  1  0  0  0  0
 14 15  1  0  0  0  0
 14 16  1  0  0  0  0
 14 17  1  0  0  0  0
 17 18  1  0  0  0  0
 17 19  1  0  0  0  0
 19 20  1  0  0  0  0
 19 21  1  0  0  0  0
 19 22  1  0  0  0  0
 17 23  1  0  0  0  0
 23 24  1  0  0  0  0
 23 25  1  0  0  0  0
 23 26  1  0  0  0  0
M  END
> <VM2 Rank>
22

> <Conf_Id>
672

> <Probability>
1.58

> <Sum Probability>
90.15

> <Delta G>
1.416

> <G>
25.126

> <E>
-7.705

> <-TS>
32.830

> <U+W>
-29.166

> <U>
24.833

> <W>
-53.999

> <W(PB)>
-56.293

> <W(SA)>
2.294

> <Valence>
3.589

> <Coulomb>
20.270

> <VdW>
0.974

> <VdW6>
-8.255

> <VdW12>
9.228

> <Bond>
0.244

> <Angle>
1.377

> <Pdih>
1.967

> <Idih>
0.000

> <Tether>
0.000

$$$$
VeraChem MOL file


 26 25  0  0  0  0  0  0  0  0999 V2000     
   21.2410   18.1953   20.0741 C   0  0  0  0  0  0  0  0  0  0  0  0
   21.5333   18.0169   19.0312 H   0  0  0  0  0  0  0  0  0  0  0  0
   22.1525   18.4159   20.6446 H   0  0  0  0  0  0  0  0  0  0  0  0
   20.8103   17.2628   20.4593 H   0  0  0  0  0  0  0  0  0  0  0  0
   20.2340   19.3646   20.1604 C   0  0  0  0  0  0  0  0  0  0  0  0
   19.3212   19.1085   19.6045 H   0  0  0  0  0  0  0  0  0  0  0  0
   20.6649   20.2410   19.6564 H   0  0  0  0  0  0  0  0  0  0  0  0
   19.8708   19.7557   21.6129 C   0  0  0  0  0  0  0  0  0  0  0  0
   20.7876   20.0325   22.1500 H   0  0  0  0  0  0  0  0  0  0  0  0
   19.2436   20.6575   21.5849 H   0  0  0  0  0  0  0  0  0  0  0  0
   19.1164   18.6393   22.3784 C   0  0  0  0  0  0  0  0  0  0  0  0
   19.7573   17.7555   22.4888 H   0  0  0  0  0  0  0  0  0  0  0  0
   18.2522   18.3160   21.7821 H   0  0  0  0  0  0  0  0  0  0  0  0
   18.6109   19.0929   23.7719 C   0  0  0  0  0  0  0  0  0  0  0  0
   17.8850   19.9058   23.6371 H   0  0  0  0  0  0  0  0  0  0  0  0
   18.0610   18.2657   24.2401 H   0  0  0  0  0  0  0  0  0  0  0  0
   19.7288   19.5695   24.7264 C   0  0  1  0  0  0  0  0  0  0  0  0
   20.2511   20.4068   24.2542 H   0  0  0  0  0  0  0  0  0  0  0  0
   19.1262   20.0667   26.0500 C   0  0  0  0  0  0  0  0  0  0  0  0
   18.5929   19.2616   26.5709 H   0  0  0  0  0  0  0  0  0  0  0  0
   18.4188   20.8862   25.8725 H   0  0  0  0  0  0  0  0  0  0  0  0
   19.9115   20.4436   26.7168 H   0  0  0  0  0  0  0  0  0  0  0  0
   20.7598   18.5040   24.9800 N   0  3  0  0  0  0  0  0  0  0  0  0
   20.3450   17.6832   25.4288 H   0  0  0  0  0  0  0  0  0  0  0  0
   21.1940   18.1927   24.1069 H   0  0  0  0  0  0  0  0  0  0  0  0
   21.5072   18.8436   25.5919 H   0  0  0  0  0  0  0  0  0  0  0  0
  1  2  1  0  0  0  0
  1  3  1  0  0  0  0
  1  4  1  0  0  0  0
  1  5  1  0  0  0  0
  5  6  1  0  0  0  0
  5  7  1  0  0  0  0
  5  8  1  0  0  0  0
  8  9  1  0  0  0  0
  8 10  1  0  0  0  0
  8 11  1  0  0  0  0
 11 12  1  0  0  0  0
 11 13  1  0  0  0  0
 11 14  1  0  0  0  0
 14 15  1  0  0  0  0
 14 16  1  0  0  0  0
 14 17  1  0  0  0  0
 17 18  1  0  0  0  0
 17 19  1  0  0  0  0
 19 20  1  0  0  0  0
 19 21  1  0  0  0  0
 19 22  1  0  0  0  0
 17 23  1  0  0  0  0
 23 24  1  0  0  0  0
 23 25  1  0  0  0  0
 23 26  1  0  0  0  0
M  END
> <VM2 Rank>
23

> <Conf_Id>
523

> <Probability>
1.45

> <Sum Probability>
91.60

> <Delta G>
1.465

> <G>
25.175

> <E>
-7.697

> <-TS>
32.873

> <U+W>
-29.159

> <U>
24.809

> <W>
-53.969

> <W(PB)>
-56.250

> <W(SA)>
2.282

> <Valence>
3.513

> <Coulomb>
20.422

> <VdW>
0.874

> <VdW6>
-8.372

> <VdW12>
9.246

> <Bond>
0.236

> <Angle>
1.287

> <Pdih>
1.990

> <Idih>
0.000

> <Tether>
0.000

$$$$
VeraChem MOL file


 26 25  0  0  0  0  0  0  0  0999 V2000     
   19.0821   18.2869   20.0987 C   0  0  0  0  0  0  0  0  0  0  0  0
   18.4414   18.1987   20.9849 H   0  0  0  0  0  0  0  0  0  0  0  0
   18.6940   19.1008   19.4726 H   0  0  0  0  0  0  0  0  0  0  0  0
   18.9901   17.3524   19.5302 H   0  0  0  0  0  0  0  0  0  0  0  0
   20.5560   18.5405   20.4883 C   0  0  0  0  0  0  0  0  0  0  0  0
   21.1736   18.5020   19.5802 H   0  0  0  0  0  0  0  0  0  0  0  0
   20.9151   17.7249   21.1302 H   0  0  0  0  0  0  0  0  0  0  0  0
   20.7838   19.9079   21.1819 C   0  0  0  0  0  0  0  0  0  0  0  0
   21.8556   20.0225   21.3947 H   0  0  0  0  0  0  0  0  0  0  0  0
   20.5305   20.7109   20.4761 H   0  0  0  0  0  0  0  0  0  0  0  0
   19.9828   20.1253   22.4915 C   0  0  0  0  0  0  0  0  0  0  0  0
   18.9093   20.1333   22.2647 H   0  0  0  0  0  0  0  0  0  0  0  0
   20.2193   21.1252   22.8806 H   0  0  0  0  0  0  0  0  0  0  0  0
   20.2943   19.0715   23.5852 C   0  0  0  0  0  0  0  0  0  0  0  0
   19.9496   18.0810   23.2622 H   0  0  0  0  0  0  0  0  0  0  0  0
   21.3837   19.0015   23.7027 H   0  0  0  0  0  0  0  0  0  0  0  0
   19.6722   19.4043   24.9604 C   0  0  1  0  0  0  0  0  0  0  0  0
   19.9932   20.4103   25.2479 H   0  0  0  0  0  0  0  0  0  0  0  0
   18.1336   19.3762   24.9212 C   0  0  0  0  0  0  0  0  0  0  0  0
   17.7183   19.5659   25.9186 H   0  0  0  0  0  0  0  0  0  0  0  0
   17.7630   18.4023   24.5781 H   0  0  0  0  0  0  0  0  0  0  0  0
   17.7375   20.1496   24.2531 H   0  0  0  0  0  0  0  0  0  0  0  0
   20.1831   18.4754   26.0267 N   0  3  0  0  0  0  0  0  0  0  0  0
   19.8040   18.7173   26.9465 H   0  0  0  0  0  0  0  0  0  0  0  0
   19.9216   17.5047   25.8345 H   0  0  0  0  0  0  0  0  0  0  0  0
   21.2039   18.5103   26.1000 H   0  0  0  0  0  0  0  0  0  0  0  0
  1  2  1  0  0  0  0
  1  3  1  0  0  0  0
  1  4  1  0  0  0  0
  1  5  1  0  0  0  0
  5  6  1  0  0  0  0
  5  7  1  0  0  0  0
  5  8  1  0  0  0  0
  8  9  1  0  0  0  0
  8 10  1  0  0  0  0
  8 11  1  0  0  0  0
 11 12  1  0  0  0  0
 11 13  1  0  0  0  0
 11 14  1  0  0  0  0
 14 15  1  0  0  0  0
 14 16  1  0  0  0  0
 14 17  1  0  0  0  0
 17 18  1  0  0  0  0
 17 19  1  0  0  0  0
 19 20  1  0  0  0  0
 19 21  1  0  0  0  0
 19 22  1  0  0  0  0
 17 23  1  0  0  0  0
 23 24  1  0  0  0  0
 23 25  1  0  0  0  0
 23 26  1  0  0  0  0
M  END
> <VM2 Rank>
24

> <Conf_Id>
275

> <Probability>
1.18

> <Sum Probability>
92.79

> <Delta G>
1.587

> <G>
25.297

> <E>
-7.726

> <-TS>
33.023

> <U+W>
-29.188

> <U>
25.014

> <W>
-54.202

> <W(PB)>
-56.465

> <W(SA)>
2.263

> <Valence>
4.188

> <Coulomb>
19.774

> <VdW>
1.052

> <VdW6>
-8.654

> <VdW12>
9.707

> <Bond>
0.263

> <Angle>
1.714

> <Pdih>
2.211

> <Idih>
0.000

> <Tether>
0.000

$$$$
VeraChem MOL file


 26 25  0  0  0  0  0  0  0  0999 V2000     
   20.0609   18.6168   19.3310 C   0  0  0  0  0  0  0  0  0  0  0  0
   20.0512   18.9962   18.3010 H   0  0  0  0  0  0  0  0  0  0  0  0
   20.8096   17.8159   19.3863 H   0  0  0  0  0  0  0  0  0  0  0  0
   19.0744   18.1804   19.5299 H   0  0  0  0  0  0  0  0  0  0  0  0
   20.3904   19.7553   20.3231 C   0  0  0  0  0  0  0  0  0  0  0  0
   19.6095   20.5270   20.2733 H   0  0  0  0  0  0  0  0  0  0  0  0
   21.3232   20.2414   20.0046 H   0  0  0  0  0  0  0  0  0  0  0  0
   20.5574   19.2725   21.7842 C   0  0  0  0  0  0  0  0  0  0  0  0
   21.3446   18.5074   21.8296 H   0  0  0  0  0  0  0  0  0  0  0  0
   20.9145   20.1205   22.3831 H   0  0  0  0  0  0  0  0  0  0  0  0
   19.2500   18.7152   22.4023 C   0  0  0  0  0  0  0  0  0  0  0  0
   18.9020   17.8580   21.8118 H   0  0  0  0  0  0  0  0  0  0  0  0
   18.4553   19.4698   22.3362 H   0  0  0  0  0  0  0  0  0  0  0  0
   19.4193   18.2459   23.8708 C   0  0  0  0  0  0  0  0  0  0  0  0
   18.4631   17.8403   24.2272 H   0  0  0  0  0  0  0  0  0  0  0  0
   20.1293   17.4085   23.8868 H   0  0  0  0  0  0  0  0  0  0  0  0
   19.9108   19.3310   24.8582 C   0  0  1  0  0  0  0  0  0  0  0  0
   20.8688   19.7175   24.4986 H   0  0  0  0  0  0  0  0  0  0  0  0
   18.9220   20.5054   24.9671 C   0  0  0  0  0  0  0  0  0  0  0  0
   18.8258   21.0341   24.0116 H   0  0  0  0  0  0  0  0  0  0  0  0
   19.2690   21.2356   25.7084 H   0  0  0  0  0  0  0  0  0  0  0  0
   17.9263   20.1590   25.2706 H   0  0  0  0  0  0  0  0  0  0  0  0
   20.1773   18.7459   26.2173 N   0  3  0  0  0  0  0  0  0  0  0  0
   20.5409   19.4516   26.8640 H   0  0  0  0  0  0  0  0  0  0  0  0
   19.3247   18.3617   26.6333 H   0  0  0  0  0  0  0  0  0  0  0  0
   20.8661   17.9893   26.1741 H   0  0  0  0  0  0  0  0  0  0  0  0
  1  2  1  0  0  0  0
  1  3  1  0  0  0  0
  1  4  1  0  0  0  0
  1  5  1  0  0  0  0
  5  6  1  0  0  0  0
  5  7  1  0  0  0  0
  5  8  1  0  0  0  0
  8  9  1  0  0  0  0
  8 10  1  0  0  0  0
  8 11  1  0  0  0  0
 11 12  1  0  0  0  0
 11 13  1  0  0  0  0
 11 14  1  0  0  0  0
 14 15  1  0  0  0  0
 14 16  1  0  0  0  0
 14 17  1  0  0  0  0
 17 18  1  0  0  0  0
 17 19  1  0  0  0  0
 19 20  1  0  0  0  0
 19 21  1  0  0  0  0
 19 22  1  0  0  0  0
 17 23  1  0  0  0  0
 23 24  1  0  0  0  0
 23 25  1  0  0  0  0
 23 26  1  0  0  0  0
M  END
> <VM2 Rank>
25

> <Conf_Id>
852

> <Probability>
1.15

> <Sum Probability>
93.94

> <Delta G>
1.604

> <G>
25.314

> <E>
-7.609

> <-TS>
32.923

> <U+W>
-29.071

> <U>
25.023

> <W>
-54.094

> <W(PB)>
-56.391

> <W(SA)>
2.297

> <Valence>
4.083

> <Coulomb>
19.893

> <VdW>
1.047

> <VdW6>
-8.479

> <VdW12>
9.526

> <Bond>
0.256

> <Angle>
1.715

> <Pdih>
2.112

> <Idih>
0.000

> <Tether>
0.000

$$$$
VeraChem MOL file


 26 25  0  0  0  0  0  0  0  0999 V2000     
   21.1681   19.3999   19.7806 C   0  0  0  0  0  0  0  0  0  0  0  0
   20.4813   19.6015   18.9482 H   0  0  0  0  0  0  0  0  0  0  0  0
   21.5653   20.3595   20.1364 H   0  0  0  0  0  0  0  0  0  0  0  0
   22.0081   18.8117   19.3891 H   0  0  0  0  0  0  0  0  0  0  0  0
   20.4539   18.6396   20.9181 C   0  0  0  0  0  0  0  0  0  0  0  0
   21.1807   18.4216   21.7118 H   0  0  0  0  0  0  0  0  0  0  0  0
   20.0944   17.6722   20.5404 H   0  0  0  0  0  0  0  0  0  0  0  0
   19.2668   19.4509   21.4883 C   0  0  0  0  0  0  0  0  0  0  0  0
   19.6314   20.4029   21.8968 H   0  0  0  0  0  0  0  0  0  0  0  0
   18.5878   19.7156   20.6660 H   0  0  0  0  0  0  0  0  0  0  0  0
   18.4547   18.6866   22.5656 C   0  0  0  0  0  0  0  0  0  0  0  0
   18.0111   17.7906   22.1100 H   0  0  0  0  0  0  0  0  0  0  0  0
   17.6051   19.3083   22.8782 H   0  0  0  0  0  0  0  0  0  0  0  0
   19.2691   18.2582   23.8160 C   0  0  0  0  0  0  0  0  0  0  0  0
   18.5896   17.7881   24.5392 H   0  0  0  0  0  0  0  0  0  0  0  0
   19.9800   17.4750   23.5234 H   0  0  0  0  0  0  0  0  0  0  0  0
   20.0434   19.4018   24.5122 C   0  0  1  0  0  0  0  0  0  0  0  0
   20.7039   19.8686   23.7753 H   0  0  0  0  0  0  0  0  0  0  0  0
   19.0982   20.4797   25.0721 C   0  0  0  0  0  0  0  0  0  0  0  0
   18.3842   20.0493   25.7853 H   0  0  0  0  0  0  0  0  0  0  0  0
   18.5308   20.9668   24.2705 H   0  0  0  0  0  0  0  0  0  0  0  0
   19.6671   21.2617   25.5898 H   0  0  0  0  0  0  0  0  0  0  0  0
   20.9339   18.8714   25.6012 N   0  3  0  0  0  0  0  0  0  0  0  0
   21.4771   19.6210   26.0387 H   0  0  0  0  0  0  0  0  0  0  0  0
   20.3910   18.4173   26.3405 H   0  0  0  0  0  0  0  0  0  0  0  0
   21.6007   18.1822   25.2420 H   0  0  0  0  0  0  0  0  0  0  0  0
  1  2  1  0  0  0  0
  1  3  1  0  0  0  0
  1  4  1  0  0  0  0
  1  5  1  0  0  0  0
  5  6  1  0  0  0  0
  5  7  1  0  0  0  0
  5  8  1  0  0  0  0
  8  9  1  0  0  0  0
  8 10  1  0  0  0  0
  8 11  1  0  0  0  0
 11 12  1  0  0  0  0
 11 13  1  0  0  0  0
 11 14  1  0  0  0  0
 14 15  1  0  0  0  0
 14 16  1  0  0  0  0
 14 17  1  0  0  0  0
 17 18  1  0  0  0  0
 17 19  1  0  0  0  0
 19 20  1  0  0  0  0
 19 21  1  0  0  0  0
 19 22  1  0  0  0  0
 17 23  1  0  0  0  0
 23 24  1  0  0  0  0
 23 25  1  0  0  0  0
 23 26  1  0  0  0  0
M  END
> <VM2 Rank>
26

> <Conf_Id>
538

> <Probability>
1.06

> <Sum Probability>
94.99

> <Delta G>
1.656

> <G>
25.366

> <E>
-7.774

> <-TS>
33.140

> <U+W>
-29.236

> <U>
25.091

> <W>
-54.328

> <W(PB)>
-56.623

> <W(SA)>
2.295

> <Valence>
3.981

> <Coulomb>
20.360

> <VdW>
0.750

> <VdW6>
-8.971

> <VdW12>
9.721

> <Bond>
0.256

> <Angle>
1.693

> <Pdih>
2.032

> <Idih>
0.000

> <Tether>
0.000

$$$$
VeraChem MOL file


 26 25  0  0  0  0  0  0  0  0999 V2000     
   19.0305   19.3238   19.9749 C   0  0  0  0  0  0  0  0  0  0  0  0
   18.8644   20.0357   19.1561 H   0  0  0  0  0  0  0  0  0  0  0  0
   18.7103   18.3326   19.6287 H   0  0  0  0  0  0  0  0  0  0  0  0
   18.3833   19.6230   20.8088 H   0  0  0  0  0  0  0  0  0  0  0  0
   20.5193   19.3131   20.3893 C   0  0  0  0  0  0  0  0  0  0  0  0
   20.8105   20.3082   20.7512 H   0  0  0  0  0  0  0  0  0  0  0  0
   21.1333   19.1273   19.4970 H   0  0  0  0  0  0  0  0  0  0  0  0
   20.8564   18.2361   21.4520 C   0  0  0  0  0  0  0  0  0  0  0  0
   20.6767   17.2426   21.0187 H   0  0  0  0  0  0  0  0  0  0  0  0
   21.9325   18.2783   21.6697 H   0  0  0  0  0  0  0  0  0  0  0  0
   20.0675   18.3477   22.7823 C   0  0  0  0  0  0  0  0  0  0  0  0
   20.3813   17.5212   23.4329 H   0  0  0  0  0  0  0  0  0  0  0  0
   18.9992   18.1914   22.5868 H   0  0  0  0  0  0  0  0  0  0  0  0
   20.2876   19.6984   23.5164 C   0  0  0  0  0  0  0  0  0  0  0  0
   21.3650   19.8795   23.6242 H   0  0  0  0  0  0  0  0  0  0  0  0
   19.9015   20.5201   22.9002 H   0  0  0  0  0  0  0  0  0  0  0  0
   19.6315   19.7925   24.9142 C   0  0  1  0  0  0  0  0  0  0  0  0
   19.8745   20.7790   25.3211 H   0  0  0  0  0  0  0  0  0  0  0  0
   18.0983   19.6844   24.8405 C   0  0  0  0  0  0  0  0  0  0  0  0
   17.7769   18.6837   24.5284 H   0  0  0  0  0  0  0  0  0  0  0  0
   17.6897   20.4142   24.1305 H   0  0  0  0  0  0  0  0  0  0  0  0
   17.6519   19.8889   25.8213 H   0  0  0  0  0  0  0  0  0  0  0  0
   20.1969   18.7919   25.8844 N   0  3  0  0  0  0  0  0  0  0  0  0
   19.7978   18.9108   26.8197 H   0  0  0  0  0  0  0  0  0  0  0  0
   20.0004   17.8332   25.5868 H   0  0  0  0  0  0  0  0  0  0  0  0
   21.2128   18.8858   25.9714 H   0  0  0  0  0  0  0  0  0  0  0  0
  1  2  1  0  0  0  0
  1  3  1  0  0  0  0
  1  4  1  0  0  0  0
  1  5  1  0  0  0  0
  5  6  1  0  0  0  0
  5  7  1  0  0  0  0
  5  8  1  0  0  0  0
  8  9  1  0  0  0  0
  8 10  1  0  0  0  0
  8 11  1  0  0  0  0
 11 12  1  0  0  0  0
 11 13  1  0  0  0  0
 11 14  1  0  0  0  0
 14 15  1  0  0  0  0
 14 16  1  0  0  0  0
 14 17  1  0  0  0  0
 17 18  1  0  0  0  0
 17 19  1  0  0  0  0
 19 20  1  0  0  0  0
 19 21  1  0  0  0  0
 19 22  1  0  0  0  0
 17 23  1  0  0  0  0
 23 24  1  0  0  0  0
 23 25  1  0  0  0  0
 23 26  1  0  0  0  0
M  END
> <VM2 Rank>
27

> <Conf_Id>
1040

> <Probability>
0.84

> <Sum Probability>
95.83

> <Delta G>
1.792

> <G>
25.502

> <E>
-7.649

> <-TS>
33.151

> <U+W>
-29.110

> <U>
25.100

> <W>
-54.211

> <W(PB)>
-56.440

> <W(SA)>
2.229

> <Valence>
4.185

> <Coulomb>
19.843

> <VdW>
1.072

> <VdW6>
-9.125

> <VdW12>
10.197

> <Bond>
0.294

> <Angle>
1.814

> <Pdih>
2.077

> <Idih>
0.000

> <Tether>
0.000

$$$$
VeraChem MOL file


 26 25  0  0  0  0  0  0  0  0999 V2000     
   21.3087   19.2401   20.1276 C   0  0  0  0  0  0  0  0  0  0  0  0
   22.0917   18.7018   19.5782 H   0  0  0  0  0  0  0  0  0  0  0  0
   21.0043   20.1026   19.5206 H   0  0  0  0  0  0  0  0  0  0  0  0
   21.7554   19.6138   21.0574 H   0  0  0  0  0  0  0  0  0  0  0  0
   20.1082   18.3089   20.4106 C   0  0  0  0  0  0  0  0  0  0  0  0
   20.4317   17.4660   21.0356 H   0  0  0  0  0  0  0  0  0  0  0  0
   19.7735   17.8661   19.4621 H   0  0  0  0  0  0  0  0  0  0  0  0
   18.9051   19.0342   21.0662 C   0  0  0  0  0  0  0  0  0  0  0  0
   18.5150   19.7792   20.3591 H   0  0  0  0  0  0  0  0  0  0  0  0
   18.0933   18.3089   21.2155 H   0  0  0  0  0  0  0  0  0  0  0  0
   19.2040   19.7411   22.4141 C   0  0  0  0  0  0  0  0  0  0  0  0
   18.2820   20.2391   22.7398 H   0  0  0  0  0  0  0  0  0  0  0  0
   19.9423   20.5396   22.2625 H   0  0  0  0  0  0  0  0  0  0  0  0
   19.6950   18.7767   23.5251 C   0  0  0  0  0  0  0  0  0  0  0  0
   18.9495   17.9870   23.6870 H   0  0  0  0  0  0  0  0  0  0  0  0
   20.6099   18.2776   23.1835 H   0  0  0  0  0  0  0  0  0  0  0  0
   20.0091   19.4795   24.8660 C   0  0  1  0  0  0  0  0  0  0  0  0
   20.7060   20.2998   24.6684 H   0  0  0  0  0  0  0  0  0  0  0  0
   18.7473   20.0603   25.5298 C   0  0  0  0  0  0  0  0  0  0  0  0
   18.3050   20.8568   24.9208 H   0  0  0  0  0  0  0  0  0  0  0  0
   18.9912   20.4980   26.5056 H   0  0  0  0  0  0  0  0  0  0  0  0
   17.9879   19.2840   25.6860 H   0  0  0  0  0  0  0  0  0  0  0  0
   20.7107   18.5472   25.8146 N   0  3  0  0  0  0  0  0  0  0  0  0
   20.9561   19.0190   26.6896 H   0  0  0  0  0  0  0  0  0  0  0  0
   20.1219   17.7453   26.0552 H   0  0  0  0  0  0  0  0  0  0  0  0
   21.5787   18.1821   25.4124 H   0  0  0  0  0  0  0  0  0  0  0  0
  1  2  1  0  0  0  0
  1  3  1  0  0  0  0
  1  4  1  0  0  0  0
  1  5  1  0  0  0  0
  5  6  1  0  0  0  0
  5  7  1  0  0  0  0
  5  8  1  0  0  0  0
  8  9  1  0  0  0  0
  8 10  1  0  0  0  0
  8 11  1  0  0  0  0
 11 12  1  0  0  0  0
 11 13  1  0  0  0  0
 11 14  1  0  0  0  0
 14 15  1  0  0  0  0
 14 16  1  0  0  0  0
 14 17  1  0  0  0  0
 17 18  1  0  0  0  0
 17 19  1  0  0  0  0
 19 20  1  0  0  0  0
 19 21  1  0  0  0  0
 19 22  1  0  0  0  0
 17 23  1  0  0  0  0
 23 24  1  0  0  0  0
 23 25  1  0  0  0  0
 23 26  1  0  0  0  0
M  END
> <VM2 Rank>
28

> <Conf_Id>
1291

> <Probability>
0.77

> <Sum Probability>
96.60

> <Delta G>
1.843

> <G>
25.553

> <E>
-7.398

> <-TS>
32.950

> <U+W>
-28.860

> <U>
25.366

> <W>
-54.226

> <W(PB)>
-56.495

> <W(SA)>
2.270

> <Valence>
4.329

> <Coulomb>
19.841

> <VdW>
1.196

> <VdW6>
-8.514

> <VdW12>
9.710

> <Bond>
0.275

> <Angle>
1.895

> <Pdih>
2.159

> <Idih>
0.000

> <Tether>
0.000

$$$$
VeraChem MOL file


 26 25  0  0  0  0  0  0  0  0999 V2000     
   19.5262   19.2326   19.7863 C   0  0  0  0  0  0  0  0  0  0  0  0
   19.2466   20.0430   19.1008 H   0  0  0  0  0  0  0  0  0  0  0  0
   20.0171   18.4478   19.1963 H   0  0  0  0  0  0  0  0  0  0  0  0
   18.6002   18.8194   20.2050 H   0  0  0  0  0  0  0  0  0  0  0  0
   20.4635   19.7609   20.8956 C   0  0  0  0  0  0  0  0  0  0  0  0
   19.9473   20.5348   21.4793 H   0  0  0  0  0  0  0  0  0  0  0  0
   21.3212   20.2613   20.4248 H   0  0  0  0  0  0  0  0  0  0  0  0
   20.9953   18.6468   21.8325 C   0  0  0  0  0  0  0  0  0  0  0  0
   21.5912   17.9398   21.2391 H   0  0  0  0  0  0  0  0  0  0  0  0
   21.6963   19.0926   22.5507 H   0  0  0  0  0  0  0  0  0  0  0  0
   19.9030   17.8529   22.5988 C   0  0  0  0  0  0  0  0  0  0  0  0
   20.3921   17.1043   23.2361 H   0  0  0  0  0  0  0  0  0  0  0  0
   19.3029   17.2755   21.8831 H   0  0  0  0  0  0  0  0  0  0  0  0
   18.9523   18.7229   23.4636 C   0  0  0  0  0  0  0  0  0  0  0  0
   18.3394   19.3500   22.8035 H   0  0  0  0  0  0  0  0  0  0  0  0
   18.2489   18.0660   23.9921 H   0  0  0  0  0  0  0  0  0  0  0  0
   19.6790   19.6233   24.4870 C   0  0  1  0  0  0  0  0  0  0  0  0
   20.3757   20.2685   23.9434 H   0  0  0  0  0  0  0  0  0  0  0  0
   18.6706   20.5193   25.2232 C   0  0  0  0  0  0  0  0  0  0  0  0
   17.9468   19.9203   25.7900 H   0  0  0  0  0  0  0  0  0  0  0  0
   18.1150   21.1452   24.5137 H   0  0  0  0  0  0  0  0  0  0  0  0
   19.1849   21.1877   25.9246 H   0  0  0  0  0  0  0  0  0  0  0  0
   20.4981   18.8291   25.4671 N   0  3  0  0  0  0  0  0  0  0  0  0
   21.1951   18.2531   24.9877 H   0  0  0  0  0  0  0  0  0  0  0  0
   20.9985   19.4394   26.1194 H   0  0  0  0  0  0  0  0  0  0  0  0
   19.9100   18.2027   26.0229 H   0  0  0  0  0  0  0  0  0  0  0  0
  1  2  1  0  0  0  0
  1  3  1  0  0  0  0
  1  4  1  0  0  0  0
  1  5  1  0  0  0  0
  5  6  1  0  0  0  0
  5  7  1  0  0  0  0
  5  8  1  0  0  0  0
  8  9  1  0  0  0  0
  8 10  1  0  0  0  0
  8 11  1  0  0  0  0
 11 12  1  0  0  0  0
 11 13  1  0  0  0  0
 11 14  1  0  0  0  0
 14 15  1  0  0  0  0
 14 16  1  0  0  0  0
 14 17  1  0  0  0  0
 17 18  1  0  0  0  0
 17 19  1  0  0  0  0
 19 20  1  0  0  0  0
 19 21  1  0  0  0  0
 19 22  1  0  0  0  0
 17 23  1  0  0  0  0
 23 24  1  0  0  0  0
 23 25  1  0  0  0  0
 23 26  1  0  0  0  0
M  END
> <VM2 Rank>
29

> <Conf_Id>
1210

> <Probability>
0.72

> <Sum Probability>
97.32

> <Delta G>
1.884

> <G>
25.594

> <E>
-7.749

> <-TS>
33.343

> <U+W>
-29.211

> <U>
24.974

> <W>
-54.185

> <W(PB)>
-56.450

> <W(SA)>
2.265

> <Valence>
3.932

> <Coulomb>
20.395

> <VdW>
0.646

> <VdW6>
-9.633

> <VdW12>
10.279

> <Bond>
0.286

> <Angle>
1.718

> <Pdih>
1.928

> <Idih>
0.000

> <Tether>
0.000

$$$$
VeraChem MOL file


 26 25  0  0  0  0  0  0  0  0999 V2000     
   21.1970   18.1893   20.3635 C   0  0  0  0  0  0  0  0  0  0  0  0
   21.5608   17.9701   21.3750 H   0  0  0  0  0  0  0  0  0  0  0  0
   20.6673   17.3042   19.9883 H   0  0  0  0  0  0  0  0  0  0  0  0
   22.0749   18.3516   19.7249 H   0  0  0  0  0  0  0  0  0  0  0  0
   20.2798   19.4331   20.3489 C   0  0  0  0  0  0  0  0  0  0  0  0
   20.0416   19.6841   19.3058 H   0  0  0  0  0  0  0  0  0  0  0  0
   20.8235   20.2996   20.7480 H   0  0  0  0  0  0  0  0  0  0  0  0
   18.9514   19.2298   21.1216 C   0  0  0  0  0  0  0  0  0  0  0  0
   18.3522   20.1473   21.0428 H   0  0  0  0  0  0  0  0  0  0  0  0
   18.3673   18.4461   20.6198 H   0  0  0  0  0  0  0  0  0  0  0  0
   19.1029   18.8531   22.6183 C   0  0  0  0  0  0  0  0  0  0  0  0
   19.6057   17.8816   22.7035 H   0  0  0  0  0  0  0  0  0  0  0  0
   18.0958   18.7109   23.0306 H   0  0  0  0  0  0  0  0  0  0  0  0
   19.8591   19.9246   23.4504 C   0  0  0  0  0  0  0  0  0  0  0  0
   20.8746   20.0470   23.0543 H   0  0  0  0  0  0  0  0  0  0  0  0
   19.3651   20.8972   23.3253 H   0  0  0  0  0  0  0  0  0  0  0  0
   19.9735   19.6140   24.9617 C   0  0  1  0  0  0  0  0  0  0  0  0
   20.5675   20.4148   25.4128 H   0  0  0  0  0  0  0  0  0  0  0  0
   18.6018   19.6064   25.6593 C   0  0  0  0  0  0  0  0  0  0  0  0
   18.0546   20.5348   25.4539 H   0  0  0  0  0  0  0  0  0  0  0  0
   18.7257   19.5276   26.7463 H   0  0  0  0  0  0  0  0  0  0  0  0
   17.9834   18.7625   25.3318 H   0  0  0  0  0  0  0  0  0  0  0  0
   20.7225   18.3377   25.2303 N   0  3  0  0  0  0  0  0  0  0  0  0
   21.6557   18.3543   24.8094 H   0  0  0  0  0  0  0  0  0  0  0  0
   20.8427   18.1791   26.2347 H   0  0  0  0  0  0  0  0  0  0  0  0
   20.2259   17.5288   24.8492 H   0  0  0  0  0  0  0  0  0  0  0  0
  1  2  1  0  0  0  0
  1  3  1  0  0  0  0
  1  4  1  0  0  0  0
  1  5  1  0  0  0  0
  5  6  1  0  0  0  0
  5  7  1  0  0  0  0
  5  8  1  0  0  0  0
  8  9  1  0  0  0  0
  8 10  1  0  0  0  0
  8 11  1  0  0  0  0
 11 12  1  0  0  0  0
 11 13  1  0  0  0  0
 11 14  1  0  0  0  0
 14 15  1  0  0  0  0
 14 16  1  0  0  0  0
 14 17  1  0  0  0  0
 17 18  1  0  0  0  0
 17 19  1  0  0  0  0
 19 20  1  0  0  0  0
 19 21  1  0  0  0  0
 19 22  1  0  0  0  0
 17 23  1  0  0  0  0
 23 24  1  0  0  0  0
 23 25  1  0  0  0  0
 23 26  1  0  0  0  0
M  END
> <VM2 Rank>
30

> <Conf_Id>
170

> <Probability>
0.49

> <Sum Probability>
97.82

> <Delta G>
2.110

> <G>
25.820

> <E>
-7.289

> <-TS>
33.110

> <U+W>
-28.751

> <U>
25.589

> <W>
-54.340

> <W(PB)>
-56.600

> <W(SA)>
2.260

> <Valence>
4.269

> <Coulomb>
20.216

> <VdW>
1.104

> <VdW6>
-9.052

> <VdW12>
10.157

> <Bond>
0.298

> <Angle>
1.891

> <Pdih>
2.079

> <Idih>
0.000

> <Tether>
0.000

$$$$
VeraChem MOL file


 26 25  0  0  0  0  0  0  0  0999 V2000     
   20.5369   18.2093   19.9949 C   0  0  0  0  0  0  0  0  0  0  0  0
   21.4560   17.7927   19.5629 H   0  0  0  0  0  0  0  0  0  0  0  0
   20.0024   17.3886   20.4891 H   0  0  0  0  0  0  0  0  0  0  0  0
   19.9142   18.5773   19.1693 H   0  0  0  0  0  0  0  0  0  0  0  0
   20.8718   19.3461   20.9868 C   0  0  0  0  0  0  0  0  0  0  0  0
   21.4988   20.0889   20.4743 H   0  0  0  0  0  0  0  0  0  0  0  0
   21.4837   18.9518   21.8090 H   0  0  0  0  0  0  0  0  0  0  0  0
   19.6165   20.0618   21.5470 C   0  0  0  0  0  0  0  0  0  0  0  0
   19.9381   20.8905   22.1919 H   0  0  0  0  0  0  0  0  0  0  0  0
   19.0742   20.5299   20.7140 H   0  0  0  0  0  0  0  0  0  0  0  0
   18.6325   19.1508   22.3293 C   0  0  0  0  0  0  0  0  0  0  0  0
   18.1870   18.4200   21.6414 H   0  0  0  0  0  0  0  0  0  0  0  0
   17.7916   19.7611   22.6843 H   0  0  0  0  0  0  0  0  0  0  0  0
   19.2620   18.3920   23.5282 C   0  0  0  0  0  0  0  0  0  0  0  0
   18.4759   17.8246   24.0436 H   0  0  0  0  0  0  0  0  0  0  0  0
   19.9654   17.6437   23.1414 H   0  0  0  0  0  0  0  0  0  0  0  0
   19.9986   19.2886   24.5506 C   0  0  1  0  0  0  0  0  0  0  0  0
   20.7639   19.8609   24.0178 H   0  0  0  0  0  0  0  0  0  0  0  0
   19.0439   20.2777   25.2427 C   0  0  0  0  0  0  0  0  0  0  0  0
   18.2291   19.7503   25.7542 H   0  0  0  0  0  0  0  0  0  0  0  0
   18.6017   20.9749   24.5216 H   0  0  0  0  0  0  0  0  0  0  0  0
   19.5816   20.8773   25.9874 H   0  0  0  0  0  0  0  0  0  0  0  0
   20.7258   18.4618   25.5743 N   0  3  0  0  0  0  0  0  0  0  0  0
   21.2466   19.0512   26.2300 H   0  0  0  0  0  0  0  0  0  0  0  0
   20.0771   17.8931   26.1250 H   0  0  0  0  0  0  0  0  0  0  0  0
   21.3982   17.8251   25.1373 H   0  0  0  0  0  0  0  0  0  0  0  0
  1  2  1  0  0  0  0
  1  3  1  0  0  0  0
  1  4  1  0  0  0  0
  1  5  1  0  0  0  0
  5  6  1  0  0  0  0
  5  7  1  0  0  0  0
  5  8  1  0  0  0  0
  8  9  1  0  0  0  0
  8 10  1  0  0  0  0
  8 11  1  0  0  0  0
 11 12  1  0  0  0  0
 11 13  1  0  0  0  0
 11 14  1  0  0  0  0
 14 15  1  0  0  0  0
 14 16  1  0  0  0  0
 14 17  1  0  0  0  0
 17 18  1  0  0  0  0
 17 19  1  0  0  0  0
 19 20  1  0  0  0  0
 19 21  1  0  0  0  0
 19 22  1  0  0  0  0
 17 23  1  0  0  0  0
 23 24  1  0  0  0  0
 23 25  1  0  0  0  0
 23 26  1  0  0  0  0
M  END
> <VM2 Rank>
31

> <Conf_Id>
218

> <Probability>
0.40

> <Sum Probability>
98.22

> <Delta G>
2.235

> <G>
25.944

> <E>
-7.506

> <-TS>
33.451

> <U+W>
-28.968

> <U>
25.506

> <W>
-54.474

> <W(PB)>
-56.693

> <W(SA)>
2.218

> <Valence>
4.414

> <Coulomb>
20.363

> <VdW>
0.729

> <VdW6>
-9.839

> <VdW12>
10.568

> <Bond>
0.296

> <Angle>
2.006

> <Pdih>
2.112

> <Idih>
0.000

> <Tether>
0.000

$$$$
VeraChem MOL file


 26 25  0  0  0  0  0  0  0  0999 V2000     
   20.7147   17.8853   19.4381 C   0  0  0  0  0  0  0  0  0  0  0  0
   21.2548   18.1015   18.5072 H   0  0  0  0  0  0  0  0  0  0  0  0
   21.2630   17.0971   19.9703 H   0  0  0  0  0  0  0  0  0  0  0  0
   19.7253   17.4924   19.1701 H   0  0  0  0  0  0  0  0  0  0  0  0
   20.5906   19.1571   20.3038 C   0  0  0  0  0  0  0  0  0  0  0  0
   20.0700   19.9377   19.7314 H   0  0  0  0  0  0  0  0  0  0  0  0
   21.5943   19.5448   20.5278 H   0  0  0  0  0  0  0  0  0  0  0  0
   19.8319   18.8812   21.6208 C   0  0  0  0  0  0  0  0  0  0  0  0
   18.8290   18.4973   21.3877 H   0  0  0  0  0  0  0  0  0  0  0  0
   20.3520   18.0889   22.1702 H   0  0  0  0  0  0  0  0  0  0  0  0
   19.7056   20.1591   22.4868 C   0  0  0  0  0  0  0  0  0  0  0  0
   19.2015   20.9282   21.8853 H   0  0  0  0  0  0  0  0  0  0  0  0
   20.7003   20.5627   22.7217 H   0  0  0  0  0  0  0  0  0  0  0  0
   18.8926   19.9602   23.7934 C   0  0  0  0  0  0  0  0  0  0  0  0
   18.4403   20.9267   24.0529 H   0  0  0  0  0  0  0  0  0  0  0  0
   18.0538   19.2730   23.6204 H   0  0  0  0  0  0  0  0  0  0  0  0
   19.7304   19.4936   25.0073 C   0  0  1  0  0  0  0  0  0  0  0  0
   20.5568   20.1985   25.1413 H   0  0  0  0  0  0  0  0  0  0  0  0
   18.8724   19.5141   26.2828 C   0  0  0  0  0  0  0  0  0  0  0  0
   19.4686   19.2245   27.1569 H   0  0  0  0  0  0  0  0  0  0  0  0
   18.0250   18.8217   26.2023 H   0  0  0  0  0  0  0  0  0  0  0  0
   18.4753   20.5195   26.4705 H   0  0  0  0  0  0  0  0  0  0  0  0
   20.3498   18.1374   24.8209 N   0  3  0  0  0  0  0  0  0  0  0  0
   20.9753   18.1257   24.0113 H   0  0  0  0  0  0  0  0  0  0  0  0
   20.9012   17.8628   25.6388 H   0  0  0  0  0  0  0  0  0  0  0  0
   19.6363   17.4185   24.6752 H   0  0  0  0  0  0  0  0  0  0  0  0
  1  2  1  0  0  0  0
  1  3  1  0  0  0  0
  1  4  1  0  0  0  0
  1  5  1  0  0  0  0
  5  6  1  0  0  0  0
  5  7  1  0  0  0  0
  5  8  1  0  0  0  0
  8  9  1  0  0  0  0
  8 10  1  0  0  0  0
  8 11  1  0  0  0  0
 11 12  1  0  0  0  0
 11 13  1  0  0  0  0
 11 14  1  0  0  0  0
 14 15  1  0  0  0  0
 14 16  1  0  0  0  0
 14 17  1  0  0  0  0
 17 18  1  0  0  0  0
 17 19  1  0  0  0  0
 19 20  1  0  0  0  0
 19 21  1  0  0  0  0
 19 22  1  0  0  0  0
 17 23  1  0  0  0  0
 23 24  1  0  0  0  0
 23 25  1  0  0  0  0
 23 26  1  0  0  0  0
M  END
> <VM2 Rank>
32

> <Conf_Id>
1020

> <Probability>
0.19

> <Sum Probability>
98.40

> <Delta G>
2.694

> <G>
26.404

> <E>
-5.958

> <-TS>
32.362

> <U+W>
-27.420

> <U>
26.493

> <W>
-53.913

> <W(PB)>
-56.220

> <W(SA)>
2.307

> <Valence>
4.730

> <Coulomb>
20.826

> <VdW>
0.936

> <VdW6>
-7.662

> <VdW12>
8.598

> <Bond>
0.241

> <Angle>
1.433

> <Pdih>
3.056

> <Idih>
0.000

> <Tether>
0.000

$$$$
VeraChem MOL file


 26 25  0  0  0  0  0  0  0  0999 V2000     
   21.3609   19.2484   19.9284 C   0  0  0  0  0  0  0  0  0  0  0  0
   22.2220   18.9160   20.5225 H   0  0  0  0  0  0  0  0  0  0  0  0
   21.6416   19.1893   18.8689 H   0  0  0  0  0  0  0  0  0  0  0  0
   21.1696   20.3035   20.1601 H   0  0  0  0  0  0  0  0  0  0  0  0
   20.1195   18.3713   20.2085 C   0  0  0  0  0  0  0  0  0  0  0  0
   20.3196   17.3505   19.8538 H   0  0  0  0  0  0  0  0  0  0  0  0
   19.2668   18.7389   19.6206 H   0  0  0  0  0  0  0  0  0  0  0  0
   19.7370   18.3111   21.7069 C   0  0  0  0  0  0  0  0  0  0  0  0
   18.9188   17.5875   21.8262 H   0  0  0  0  0  0  0  0  0  0  0  0
   20.5872   17.9121   22.2705 H   0  0  0  0  0  0  0  0  0  0  0  0
   19.2885   19.6817   22.2778 C   0  0  0  0  0  0  0  0  0  0  0  0
   18.5134   20.0888   21.6138 H   0  0  0  0  0  0  0  0  0  0  0  0
   20.1173   20.4016   22.2549 H   0  0  0  0  0  0  0  0  0  0  0  0
   18.7010   19.6118   23.7125 C   0  0  0  0  0  0  0  0  0  0  0  0
   18.0327   20.4744   23.8367 H   0  0  0  0  0  0  0  0  0  0  0  0
   18.0662   18.7227   23.8229 H   0  0  0  0  0  0  0  0  0  0  0  0
   19.7531   19.6662   24.8454 C   0  0  1  0  0  0  0  0  0  0  0  0
   20.3835   20.5459   24.6835 H   0  0  0  0  0  0  0  0  0  0  0  0
   19.0569   19.8205   26.2075 C   0  0  0  0  0  0  0  0  0  0  0  0
   18.4416   20.7286   26.2314 H   0  0  0  0  0  0  0  0  0  0  0  0
   19.7954   19.8992   27.0148 H   0  0  0  0  0  0  0  0  0  0  0  0
   18.4075   18.9621   26.4208 H   0  0  0  0  0  0  0  0  0  0  0  0
   20.6711   18.4770   24.8669 N   0  3  0  0  0  0  0  0  0  0  0  0
   21.3523   18.5446   25.6283 H   0  0  0  0  0  0  0  0  0  0  0  0
   20.1499   17.6059   24.9964 H   0  0  0  0  0  0  0  0  0  0  0  0
   21.1957   18.4002   23.9922 H   0  0  0  0  0  0  0  0  0  0  0  0
  1  2  1  0  0  0  0
  1  3  1  0  0  0  0
  1  4  1  0  0  0  0
  1  5  1  0  0  0  0
  5  6  1  0  0  0  0
  5  7  1  0  0  0  0
  5  8  1  0  0  0  0
  8  9  1  0  0  0  0
  8 10  1  0  0  0  0
  8 11  1  0  0  0  0
 11 12  1  0  0  0  0
 11 13  1  0  0  0  0
 11 14  1  0  0  0  0
 14 15  1  0  0  0  0
 14 16  1  0  0  0  0
 14 17  1  0  0  0  0
 17 18  1  0  0  0  0
 17 19  1  0  0  0  0
 19 20  1  0  0  0  0
 19 21  1  0  0  0  0
 19 22  1  0  0  0  0
 17 23  1  0  0  0  0
 23 24  1  0  0  0  0
 23 25  1  0  0  0  0
 23 26  1  0  0  0  0
M  END
> <VM2 Rank>
33

> <Conf_Id>
248

> <Probability>
0.12

> <Sum Probability>
98.52

> <Delta G>
2.968

> <G>
26.678

> <E>
-5.396

> <-TS>
32.074

> <U+W>
-26.858

> <U>
27.054

> <W>
-53.912

> <W(PB)>
-56.203

> <W(SA)>
2.291

> <Valence>
5.136

> <Coulomb>
20.887

> <VdW>
1.030

> <VdW6>
-8.326

> <VdW12>
9.357

> <Bond>
0.283

> <Angle>
1.712

> <Pdih>
3.141

> <Idih>
0.000

> <Tether>
0.000

$$$$
VeraChem MOL file


 26 25  0  0  0  0  0  0  0  0999 V2000     
   21.1531   18.0705   19.5806 C   0  0  0  0  0  0  0  0  0  0  0  0
   20.6521   17.0951   19.6339 H   0  0  0  0  0  0  0  0  0  0  0  0
   21.3346   18.2984   18.5222 H   0  0  0  0  0  0  0  0  0  0  0  0
   22.1278   17.9823   20.0779 H   0  0  0  0  0  0  0  0  0  0  0  0
   20.2932   19.1725   20.2352 C   0  0  0  0  0  0  0  0  0  0  0  0
   19.3412   19.2609   19.6930 H   0  0  0  0  0  0  0  0  0  0  0  0
   20.8046   20.1405   20.1378 H   0  0  0  0  0  0  0  0  0  0  0  0
   20.0202   18.8746   21.7262 C   0  0  0  0  0  0  0  0  0  0  0  0
   19.5013   17.9101   21.8154 H   0  0  0  0  0  0  0  0  0  0  0  0
   20.9825   18.7817   22.2440 H   0  0  0  0  0  0  0  0  0  0  0  0
   19.1720   19.9876   22.3866 C   0  0  0  0  0  0  0  0  0  0  0  0
   18.2985   20.1892   21.7512 H   0  0  0  0  0  0  0  0  0  0  0  0
   19.7504   20.9215   22.4135 H   0  0  0  0  0  0  0  0  0  0  0  0
   18.6574   19.6573   23.8127 C   0  0  0  0  0  0  0  0  0  0  0  0
   17.9876   20.4752   24.1102 H   0  0  0  0  0  0  0  0  0  0  0  0
   18.0340   18.7537   23.7907 H   0  0  0  0  0  0  0  0  0  0  0  0
   19.7629   19.5099   24.8852 C   0  0  1  0  0  0  0  0  0  0  0  0
   20.5274   20.2709   24.7000 H   0  0  0  0  0  0  0  0  0  0  0  0
   19.1813   19.7443   26.2893 C   0  0  0  0  0  0  0  0  0  0  0  0
   18.7495   20.7497   26.3709 H   0  0  0  0  0  0  0  0  0  0  0  0
   19.9634   19.6576   27.0536 H   0  0  0  0  0  0  0  0  0  0  0  0
   18.3949   19.0146   26.5199 H   0  0  0  0  0  0  0  0  0  0  0  0
   20.4479   18.1712   24.8383 N   0  3  0  0  0  0  0  0  0  0  0  0
   20.8546   17.9904   23.9179 H   0  0  0  0  0  0  0  0  0  0  0  0
   21.2037   18.1138   25.5268 H   0  0  0  0  0  0  0  0  0  0  0  0
   19.7927   17.4115   25.0401 H   0  0  0  0  0  0  0  0  0  0  0  0
  1  2  1  0  0  0  0
  1  3  1  0  0  0  0
  1  4  1  0  0  0  0
  1  5  1  0  0  0  0
  5  6  1  0  0  0  0
  5  7  1  0  0  0  0
  5  8  1  0  0  0  0
  8  9  1  0  0  0  0
  8 10  1  0  0  0  0
  8 11  1  0  0  0  0
 11 12  1  0  0  0  0
 11 13  1  0  0  0  0
 11 14  1  0  0  0  0
 14 15  1  0  0  0  0
 14 16  1  0  0  0  0
 14 17  1  0  0  0  0
 17 18  1  0  0  0  0
 17 19  1  0  0  0  0
 19 20  1  0  0  0  0
 19 21  1  0  0  0  0
 19 22  1  0  0  0  0
 17 23  1  0  0  0  0
 23 24  1  0  0  0  0
 23 25  1  0  0  0  0
 23 26  1  0  0  0  0
M  END
> <VM2 Rank>
34

> <Conf_Id>
807

> <Probability>
0.11

> <Sum Probability>
98.63

> <Delta G>
3.003

> <G>
26.713

> <E>
-5.843

> <-TS>
32.556

> <U+W>
-27.304

> <U>
26.574

> <W>
-53.878

> <W(PB)>
-56.194

> <W(SA)>
2.316

> <Valence>
4.532

> <Coulomb>
21.136

> <VdW>
0.906

> <VdW6>
-7.877

> <VdW12>
8.783

> <Bond>
0.227

> <Angle>
1.591

> <Pdih>
2.714

> <Idih>
0.000

> <Tether>
0.000

$$$$
VeraChem MOL file


 26 25  0  0  0  0  0  0  0  0999 V2000     
   19.8669   19.8049   19.2356 C   0  0  0  0  0  0  0  0  0  0  0  0
   20.3350   19.6397   18.2566 H   0  0  0  0  0  0  0  0  0  0  0  0
   18.7842   19.6652   19.1192 H   0  0  0  0  0  0  0  0  0  0  0  0
   20.0480   20.8487   19.5238 H   0  0  0  0  0  0  0  0  0  0  0  0
   20.4421   18.8313   20.2860 C   0  0  0  0  0  0  0  0  0  0  0  0
   21.5300   18.9716   20.3561 H   0  0  0  0  0  0  0  0  0  0  0  0
   20.2766   17.7971   19.9529 H   0  0  0  0  0  0  0  0  0  0  0  0
   19.7985   19.0425   21.6742 C   0  0  0  0  0  0  0  0  0  0  0  0
   19.9657   20.0808   21.9897 H   0  0  0  0  0  0  0  0  0  0  0  0
   18.7120   18.8972   21.5989 H   0  0  0  0  0  0  0  0  0  0  0  0
   20.3796   18.0733   22.7302 C   0  0  0  0  0  0  0  0  0  0  0  0
   21.4540   18.2684   22.8534 H   0  0  0  0  0  0  0  0  0  0  0  0
   20.2957   17.0437   22.3559 H   0  0  0  0  0  0  0  0  0  0  0  0
   19.6829   18.1488   24.1127 C   0  0  0  0  0  0  0  0  0  0  0  0
   18.6250   17.8695   24.0180 H   0  0  0  0  0  0  0  0  0  0  0  0
   20.1358   17.3775   24.7496 H   0  0  0  0  0  0  0  0  0  0  0  0
   19.8189   19.5252   24.8084 C   0  0  1  0  0  0  0  0  0  0  0  0
   20.6610   20.0560   24.3537 H   0  0  0  0  0  0  0  0  0  0  0  0
   18.5473   20.3768   24.6382 C   0  0  0  0  0  0  0  0  0  0  0  0
   18.2976   20.5221   23.5816 H   0  0  0  0  0  0  0  0  0  0  0  0
   18.6847   21.3691   25.0851 H   0  0  0  0  0  0  0  0  0  0  0  0
   17.6864   19.9022   25.1255 H   0  0  0  0  0  0  0  0  0  0  0  0
   20.1517   19.3851   26.2687 N   0  3  0  0  0  0  0  0  0  0  0  0
   21.0214   18.8626   26.4085 H   0  0  0  0  0  0  0  0  0  0  0  0
   20.2713   20.2991   26.7145 H   0  0  0  0  0  0  0  0  0  0  0  0
   19.4115   18.8927   26.7759 H   0  0  0  0  0  0  0  0  0  0  0  0
  1  2  1  0  0  0  0
  1  3  1  0  0  0  0
  1  4  1  0  0  0  0
  1  5  1  0  0  0  0
  5  6  1  0  0  0  0
  5  7  1  0  0  0  0
  5  8  1  0  0  0  0
  8  9  1  0  0  0  0
  8 10  1  0  0  0  0
  8 11  1  0  0  0  0
 11 12  1  0  0  0  0
 11 13  1  0  0  0  0
 11 14  1  0  0  0  0
 14 15  1  0  0  0  0
 14 16  1  0  0  0  0
 14 17  1  0  0  0  0
 17 18  1  0  0  0  0
 17 19  1  0  0  0  0
 19 20  1  0  0  0  0
 19 21  1  0  0  0  0
 19 22  1  0  0  0  0
 17 23  1  0  0  0  0
 23 24  1  0  0  0  0
 23 25  1  0  0  0  0
 23 26  1  0  0  0  0
M  END
> <VM2 Rank>
35

> <Conf_Id>
188

> <Probability>
0.08

> <Sum Probability>
98.71

> <Delta G>
3.209

> <G>
26.919

> <E>
-5.788

> <-TS>
32.706

> <U+W>
-27.249

> <U>
26.735

> <W>
-53.984

> <W(PB)>
-56.284

> <W(SA)>
2.300

> <Valence>
5.861

> <Coulomb>
19.879

> <VdW>
0.994

> <VdW6>
-7.880

> <VdW12>
8.874

> <Bond>
0.209

> <Angle>
1.378

> <Pdih>
4.275

> <Idih>
0.000

> <Tether>
0.000

$$$$
VeraChem MOL file


 26 25  0  0  0  0  0  0  0  0999 V2000     
   20.7415   19.7890   19.6931 C   0  0  0  0  0  0  0  0  0  0  0  0
   21.4075   20.6572   19.6053 H   0  0  0  0  0  0  0  0  0  0  0  0
   21.2152   18.9475   19.1708 H   0  0  0  0  0  0  0  0  0  0  0  0
   19.8041   20.0294   19.1747 H   0  0  0  0  0  0  0  0  0  0  0  0
   20.4833   19.4483   21.1762 C   0  0  0  0  0  0  0  0  0  0  0  0
   20.0472   20.3284   21.6660 H   0  0  0  0  0  0  0  0  0  0  0  0
   21.4403   19.2370   21.6732 H   0  0  0  0  0  0  0  0  0  0  0  0
   19.5333   18.2378   21.3253 C   0  0  0  0  0  0  0  0  0  0  0  0
   18.5406   18.5045   20.9371 H   0  0  0  0  0  0  0  0  0  0  0  0
   19.8982   17.4193   20.6894 H   0  0  0  0  0  0  0  0  0  0  0  0
   19.3946   17.6972   22.7722 C   0  0  0  0  0  0  0  0  0  0  0  0
   20.3623   17.3174   23.1241 H   0  0  0  0  0  0  0  0  0  0  0  0
   18.7344   16.8198   22.7317 H   0  0  0  0  0  0  0  0  0  0  0  0
   18.7903   18.7010   23.7917 C   0  0  0  0  0  0  0  0  0  0  0  0
   17.9972   19.2793   23.2994 H   0  0  0  0  0  0  0  0  0  0  0  0
   18.2961   18.1349   24.5924 H   0  0  0  0  0  0  0  0  0  0  0  0
   19.8153   19.6613   24.4393 C   0  0  1  0  0  0  0  0  0  0  0  0
   20.3656   20.1783   23.6502 H   0  0  0  0  0  0  0  0  0  0  0  0
   19.0913   20.7192   25.2870 C   0  0  0  0  0  0  0  0  0  0  0  0
   18.5251   20.2545   26.1039 H   0  0  0  0  0  0  0  0  0  0  0  0
   18.3911   21.2986   24.6724 H   0  0  0  0  0  0  0  0  0  0  0  0
   19.8091   21.4232   25.7259 H   0  0  0  0  0  0  0  0  0  0  0  0
   20.8382   18.9342   25.2692 N   0  3  0  0  0  0  0  0  0  0  0  0
   21.3605   18.2548   24.7100 H   0  0  0  0  0  0  0  0  0  0  0  0
   21.5179   19.5819   25.6777 H   0  0  0  0  0  0  0  0  0  0  0  0
   20.3990   18.4253   26.0408 H   0  0  0  0  0  0  0  0  0  0  0  0
  1  2  1  0  0  0  0
  1  3  1  0  0  0  0
  1  4  1  0  0  0  0
  1  5  1  0  0  0  0
  5  6  1  0  0  0  0
  5  7  1  0  0  0  0
  5  8  1  0  0  0  0
  8  9  1  0  0  0  0
  8 10  1  0  0  0  0
  8 11  1  0  0  0  0
 11 12  1  0  0  0  0
 11 13  1  0  0  0  0
 11 14  1  0  0  0  0
 14 15  1  0  0  0  0
 14 16  1  0  0  0  0
 14 17  1  0  0  0  0
 17 18  1  0  0  0  0
 17 19  1  0  0  0  0
 19 20  1  0  0  0  0
 19 21  1  0  0  0  0
 19 22  1  0  0  0  0
 17 23  1  0  0  0  0
 23 24  1  0  0  0  0
 23 25  1  0  0  0  0
 23 26  1  0  0  0  0
M  END
> <VM2 Rank>
36

> <Conf_Id>
1219

> <Probability>
0.07

> <Sum Probability>
98.78

> <Delta G>
3.252

> <G>
26.962

> <E>
-5.911

> <-TS>
32.873

> <U+W>
-27.373

> <U>
26.753

> <W>
-54.126

> <W(PB)>
-56.392

> <W(SA)>
2.267

> <Valence>
5.252

> <Coulomb>
20.764

> <VdW>
0.737

> <VdW6>
-8.684

> <VdW12>
9.421

> <Bond>
0.256

> <Angle>
1.803

> <Pdih>
3.193

> <Idih>
0.000

> <Tether>
0.000

$$$$
VeraChem MOL file


 26 25  0  0  0  0  0  0  0  0999 V2000     
   20.3163   17.7940   19.6628 C   0  0  0  0  0  0  0  0  0  0  0  0
   20.0966   17.8614   18.5894 H   0  0  0  0  0  0  0  0  0  0  0  0
   21.3920   17.6058   19.7752 H   0  0  0  0  0  0  0  0  0  0  0  0
   19.7737   16.9280   20.0638 H   0  0  0  0  0  0  0  0  0  0  0  0
   19.9017   19.0929   20.3861 C   0  0  0  0  0  0  0  0  0  0  0  0
   18.8287   19.2713   20.2290 H   0  0  0  0  0  0  0  0  0  0  0  0
   20.4336   19.9442   19.9385 H   0  0  0  0  0  0  0  0  0  0  0  0
   20.2031   19.0254   21.8996 C   0  0  0  0  0  0  0  0  0  0  0  0
   19.6715   18.1650   22.3234 H   0  0  0  0  0  0  0  0  0  0  0  0
   21.2782   18.8554   22.0498 H   0  0  0  0  0  0  0  0  0  0  0  0
   19.7735   20.3212   22.6278 C   0  0  0  0  0  0  0  0  0  0  0  0
   18.6836   20.4389   22.5608 H   0  0  0  0  0  0  0  0  0  0  0  0
   20.1976   21.1815   22.0918 H   0  0  0  0  0  0  0  0  0  0  0  0
   20.2304   20.4160   24.1110 C   0  0  0  0  0  0  0  0  0  0  0  0
   21.3274   20.4228   24.1527 H   0  0  0  0  0  0  0  0  0  0  0  0
   19.9193   21.3971   24.4934 H   0  0  0  0  0  0  0  0  0  0  0  0
   19.6968   19.3420   25.0933 C   0  0  1  0  0  0  0  0  0  0  0  0
   19.9344   19.6924   26.1025 H   0  0  0  0  0  0  0  0  0  0  0  0
   18.1689   19.1787   25.0134 C   0  0  0  0  0  0  0  0  0  0  0  0
   17.8575   18.7406   24.0576 H   0  0  0  0  0  0  0  0  0  0  0  0
   17.6681   20.1482   25.1273 H   0  0  0  0  0  0  0  0  0  0  0  0
   17.8102   18.5226   25.8158 H   0  0  0  0  0  0  0  0  0  0  0  0
   20.3974   18.0177   24.9601 N   0  3  0  0  0  0  0  0  0  0  0  0
   20.0653   17.3476   25.6595 H   0  0  0  0  0  0  0  0  0  0  0  0
   20.2411   17.6048   24.0385 H   0  0  0  0  0  0  0  0  0  0  0  0
   21.4088   18.1149   25.0874 H   0  0  0  0  0  0  0  0  0  0  0  0
  1  2  1  0  0  0  0
  1  3  1  0  0  0  0
  1  4  1  0  0  0  0
  1  5  1  0  0  0  0
  5  6  1  0  0  0  0
  5  7  1  0  0  0  0
  5  8  1  0  0  0  0
  8  9  1  0  0  0  0
  8 10  1  0  0  0  0
  8 11  1  0  0  0  0
 11 12  1  0  0  0  0
 11 13  1  0  0  0  0
 11 14  1  0  0  0  0
 14 15  1  0  0  0  0
 14 16  1  0  0  0  0
 14 17  1  0  0  0  0
 17 18  1  0  0  0  0
 17 19  1  0  0  0  0
 19 20  1  0  0  0  0
 19 21  1  0  0  0  0
 19 22  1  0  0  0  0
 17 23  1  0  0  0  0
 23 24  1  0  0  0  0
 23 25  1  0  0  0  0
 23 26  1  0  0  0  0
M  END
> <VM2 Rank>
37

> <Conf_Id>
238

> <Probability>
0.07

> <Sum Probability>
98.85

> <Delta G>
3.303

> <G>
27.013

> <E>
-6.121

> <-TS>
33.134

> <U+W>
-27.583

> <U>
26.681

> <W>
-54.264

> <W(PB)>
-56.533

> <W(SA)>
2.269

> <Valence>
4.633

> <Coulomb>
21.285

> <VdW>
0.763

> <VdW6>
-8.907

> <VdW12>
9.670

> <Bond>
0.277

> <Angle>
2.161

> <Pdih>
2.195

> <Idih>
0.000

> <Tether>
0.000

$$$$
VeraChem MOL file


 26 25  0  0  0  0  0  0  0  0999 V2000     
   19.3700   18.9548   19.1198 C   0  0  0  0  0  0  0  0  0  0  0  0
   19.6743   19.4063   18.1666 H   0  0  0  0  0  0  0  0  0  0  0  0
   19.3609   17.8649   18.9886 H   0  0  0  0  0  0  0  0  0  0  0  0
   18.3444   19.2818   19.3352 H   0  0  0  0  0  0  0  0  0  0  0  0
   20.3340   19.3695   20.2515 C   0  0  0  0  0  0  0  0  0  0  0  0
   20.3466   20.4652   20.3361 H   0  0  0  0  0  0  0  0  0  0  0  0
   21.3560   19.0598   19.9915 H   0  0  0  0  0  0  0  0  0  0  0  0
   19.9283   18.7467   21.6056 C   0  0  0  0  0  0  0  0  0  0  0  0
   18.9028   19.0492   21.8493 H   0  0  0  0  0  0  0  0  0  0  0  0
   19.9172   17.6519   21.5132 H   0  0  0  0  0  0  0  0  0  0  0  0
   20.8997   19.1560   22.7401 C   0  0  0  0  0  0  0  0  0  0  0  0
   20.9765   20.2502   22.8051 H   0  0  0  0  0  0  0  0  0  0  0  0
   21.9042   18.7978   22.4748 H   0  0  0  0  0  0  0  0  0  0  0  0
   20.5169   18.5654   24.1233 C   0  0  0  0  0  0  0  0  0  0  0  0
   19.9660   17.6240   23.9967 H   0  0  0  0  0  0  0  0  0  0  0  0
   21.4472   18.2993   24.6423 H   0  0  0  0  0  0  0  0  0  0  0  0
   19.7288   19.5263   25.0460 C   0  0  1  0  0  0  0  0  0  0  0  0
   20.3296   20.4299   25.1884 H   0  0  0  0  0  0  0  0  0  0  0  0
   18.3708   19.9424   24.4559 C   0  0  0  0  0  0  0  0  0  0  0  0
   17.7609   19.0660   24.2040 H   0  0  0  0  0  0  0  0  0  0  0  0
   18.5038   20.5475   23.5517 H   0  0  0  0  0  0  0  0  0  0  0  0
   17.8086   20.5540   25.1723 H   0  0  0  0  0  0  0  0  0  0  0  0
   19.5396   18.9268   26.4119 N   0  3  0  0  0  0  0  0  0  0  0  0
   20.4353   18.6861   26.8460 H   0  0  0  0  0  0  0  0  0  0  0  0
   19.0611   19.5763   27.0425 H   0  0  0  0  0  0  0  0  0  0  0  0
   18.9782   18.0721   26.3710 H   0  0  0  0  0  0  0  0  0  0  0  0
  1  2  1  0  0  0  0
  1  3  1  0  0  0  0
  1  4  1  0  0  0  0
  1  5  1  0  0  0  0
  5  6  1  0  0  0  0
  5  7  1  0  0  0  0
  5  8  1  0  0  0  0
  8  9  1  0  0  0  0
  8 10  1  0  0  0  0
  8 11  1  0  0  0  0
 11 12  1  0  0  0  0
 11 13  1  0  0  0  0
 11 14  1  0  0  0  0
 14 15  1  0  0  0  0
 14 16  1  0  0  0  0
 14 17  1  0  0  0  0
 17 18  1  0  0  0  0
 17 19  1  0  0  0  0
 19 20  1  0  0  0  0
 19 21  1  0  0  0  0
 19 22  1  0  0  0  0
 17 23  1  0  0  0  0
 23 24  1  0  0  0  0
 23 25  1  0  0  0  0
 23 26  1  0  0  0  0
M  END
> <VM2 Rank>
38

> <Conf_Id>
172

> <Probability>
0.06

> <Sum Probability>
98.91

> <Delta G>
3.325

> <G>
27.035

> <E>
-5.808

> <-TS>
32.843

> <U+W>
-27.270

> <U>
26.589

> <W>
-53.859

> <W(PB)>
-56.174

> <W(SA)>
2.315

> <Valence>
5.830

> <Coulomb>
19.752

> <VdW>
1.008

> <VdW6>
-7.925

> <VdW12>
8.933

> <Bond>
0.235

> <Angle>
1.652

> <Pdih>
3.942

> <Idih>
0.000

> <Tether>
0.000

$$$$
VeraChem MOL file


 26 25  0  0  0  0  0  0  0  0999 V2000     
   19.5279   18.4523   19.2493 C   0  0  0  0  0  0  0  0  0  0  0  0
   18.5630   17.9976   19.5086 H   0  0  0  0  0  0  0  0  0  0  0  0
   19.3352   19.4504   18.8346 H   0  0  0  0  0  0  0  0  0  0  0  0
   19.9865   17.8424   18.4601 H   0  0  0  0  0  0  0  0  0  0  0  0
   20.4527   18.5330   20.4823 C   0  0  0  0  0  0  0  0  0  0  0  0
   21.4209   18.9593   20.1844 H   0  0  0  0  0  0  0  0  0  0  0  0
   20.6538   17.5184   20.8538 H   0  0  0  0  0  0  0  0  0  0  0  0
   19.8306   19.3870   21.6092 C   0  0  0  0  0  0  0  0  0  0  0  0
   19.6317   20.3989   21.2302 H   0  0  0  0  0  0  0  0  0  0  0  0
   18.8597   18.9613   21.8884 H   0  0  0  0  0  0  0  0  0  0  0  0
   20.7612   19.4740   22.8439 C   0  0  0  0  0  0  0  0  0  0  0  0
   21.7095   19.9265   22.5227 H   0  0  0  0  0  0  0  0  0  0  0  0
   21.0143   18.4670   23.1999 H   0  0  0  0  0  0  0  0  0  0  0  0
   20.1790   20.3341   24.0004 C   0  0  0  0  0  0  0  0  0  0  0  0
   21.0076   20.8708   24.4810 H   0  0  0  0  0  0  0  0  0  0  0  0
   19.5268   21.1174   23.5921 H   0  0  0  0  0  0  0  0  0  0  0  0
   19.4222   19.5619   25.1097 C   0  0  1  0  0  0  0  0  0  0  0  0
   19.0701   20.3035   25.8334 H   0  0  0  0  0  0  0  0  0  0  0  0
   18.1889   18.8109   24.5824 C   0  0  0  0  0  0  0  0  0  0  0  0
   17.5981   18.4123   25.4162 H   0  0  0  0  0  0  0  0  0  0  0  0
   18.4752   17.9669   23.9436 H   0  0  0  0  0  0  0  0  0  0  0  0
   17.5400   19.4817   24.0060 H   0  0  0  0  0  0  0  0  0  0  0  0
   20.3254   18.6349   25.8767 N   0  3  0  0  0  0  0  0  0  0  0  0
   19.8276   18.1814   26.6480 H   0  0  0  0  0  0  0  0  0  0  0  0
   20.6983   17.8960   25.2758 H   0  0  0  0  0  0  0  0  0  0  0  0
   21.1223   19.1355   26.2801 H   0  0  0  0  0  0  0  0  0  0  0  0
  1  2  1  0  0  0  0
  1  3  1  0  0  0  0
  1  4  1  0  0  0  0
  1  5  1  0  0  0  0
  5  6  1  0  0  0  0
  5  7  1  0  0  0  0
  5  8  1  0  0  0  0
  8  9  1  0  0  0  0
  8 10  1  0  0  0  0
  8 11  1  0  0  0  0
 11 12  1  0  0  0  0
 11 13  1  0  0  0  0
 11 14  1  0  0  0  0
 14 15  1  0  0  0  0
 14 16  1  0  0  0  0
 14 17  1  0  0  0  0
 17 18  1  0  0  0  0
 17 19  1  0  0  0  0
 19 20  1  0  0  0  0
 19 21  1  0  0  0  0
 19 22  1  0  0  0  0
 17 23  1  0  0  0  0
 23 24  1  0  0  0  0
 23 25  1  0  0  0  0
 23 26  1  0  0  0  0
M  END
> <VM2 Rank>
39

> <Conf_Id>
1063

> <Probability>
0.06

> <Sum Probability>
98.97

> <Delta G>
3.338

> <G>
27.048

> <E>
-5.860

> <-TS>
32.907

> <U+W>
-27.322

> <U>
26.848

> <W>
-54.170

> <W(PB)>
-56.426

> <W(SA)>
2.257

> <Valence>
5.824

> <Coulomb>
20.057

> <VdW>
0.968

> <VdW6>
-8.367

> <VdW12>
9.335

> <Bond>
0.267

> <Angle>
1.799

> <Pdih>
3.758

> <Idih>
0.000

> <Tether>
0.000

$$$$
VeraChem MOL file


 26 25  0  0  0  0  0  0  0  0999 V2000     
   18.9944   18.4490   20.0745 C   0  0  0  0  0  0  0  0  0  0  0  0
   18.7564   17.5299   19.5237 H   0  0  0  0  0  0  0  0  0  0  0  0
   18.3399   18.4878   20.9520 H   0  0  0  0  0  0  0  0  0  0  0  0
   18.7427   19.2991   19.4272 H   0  0  0  0  0  0  0  0  0  0  0  0
   20.4916   18.4743   20.4614 C   0  0  0  0  0  0  0  0  0  0  0  0
   21.0804   18.3974   19.5366 H   0  0  0  0  0  0  0  0  0  0  0  0
   20.7474   17.5869   21.0568 H   0  0  0  0  0  0  0  0  0  0  0  0
   20.9150   19.7653   21.2086 C   0  0  0  0  0  0  0  0  0  0  0  0
   21.9424   20.0123   20.9071 H   0  0  0  0  0  0  0  0  0  0  0  0
   20.2991   20.6140   20.8804 H   0  0  0  0  0  0  0  0  0  0  0  0
   20.8972   19.6582   22.7553 C   0  0  0  0  0  0  0  0  0  0  0  0
   21.2857   20.5992   23.1691 H   0  0  0  0  0  0  0  0  0  0  0  0
   21.5976   18.8721   23.0676 H   0  0  0  0  0  0  0  0  0  0  0  0
   19.4973   19.3849   23.3583 C   0  0  0  0  0  0  0  0  0  0  0  0
   18.7773   20.0904   22.9227 H   0  0  0  0  0  0  0  0  0  0  0  0
   19.1643   18.3759   23.0850 H   0  0  0  0  0  0  0  0  0  0  0  0
   19.4684   19.5282   24.8952 C   0  0  1  0  0  0  0  0  0  0  0  0
   19.8192   20.5324   25.1525 H   0  0  0  0  0  0  0  0  0  0  0  0
   18.0323   19.3697   25.4199 C   0  0  0  0  0  0  0  0  0  0  0  0
   17.6327   18.3742   25.1892 H   0  0  0  0  0  0  0  0  0  0  0  0
   17.3679   20.1174   24.9690 H   0  0  0  0  0  0  0  0  0  0  0  0
   17.9988   19.5079   26.5076 H   0  0  0  0  0  0  0  0  0  0  0  0
   20.3918   18.5583   25.5807 N   0  3  0  0  0  0  0  0  0  0  0  0
   20.1266   17.5892   25.3863 H   0  0  0  0  0  0  0  0  0  0  0  0
   21.3596   18.6815   25.2714 H   0  0  0  0  0  0  0  0  0  0  0  0
   20.3772   18.6822   26.5970 H   0  0  0  0  0  0  0  0  0  0  0  0
  1  2  1  0  0  0  0
  1  3  1  0  0  0  0
  1  4  1  0  0  0  0
  1  5  1  0  0  0  0
  5  6  1  0  0  0  0
  5  7  1  0  0  0  0
  5  8  1  0  0  0  0
  8  9  1  0  0  0  0
  8 10  1  0  0  0  0
  8 11  1  0  0  0  0
 11 12  1  0  0  0  0
 11 13  1  0  0  0  0
 11 14  1  0  0  0  0
 14 15  1  0  0  0  0
 14 16  1  0  0  0  0
 14 17  1  0  0  0  0
 17 18  1  0  0  0  0
 17 19  1  0  0  0  0
 19 20  1  0  0  0  0
 19 21  1  0  0  0  0
 19 22  1  0  0  0  0
 17 23  1  0  0  0  0
 23 24  1  0  0  0  0
 23 25  1  0  0  0  0
 23 26  1  0  0  0  0
M  END
> <VM2 Rank>
40

> <Conf_Id>
1277

> <Probability>
0.06

> <Sum Probability>
99.04

> <Delta G>
3.348

> <G>
27.058

> <E>
-5.843

> <-TS>
32.901

> <U+W>
-27.305

> <U>
26.796

> <W>
-54.101

> <W(PB)>
-56.405

> <W(SA)>
2.304

> <Valence>
5.706

> <Coulomb>
20.107

> <VdW>
0.982

> <VdW6>
-8.397

> <VdW12>
9.379

> <Bond>
0.254

> <Angle>
1.644

> <Pdih>
3.808

> <Idih>
0.000

> <Tether>
0.000

$$$$
VeraChem MOL file


 26 25  0  0  0  0  0  0  0  0999 V2000     
   19.4952   20.0150   20.1473 C   0  0  0  0  0  0  0  0  0  0  0  0
   19.5599   20.5846   19.2112 H   0  0  0  0  0  0  0  0  0  0  0  0
   18.4675   19.6412   20.2423 H   0  0  0  0  0  0  0  0  0  0  0  0
   19.6914   20.7138   20.9698 H   0  0  0  0  0  0  0  0  0  0  0  0
   20.5127   18.8533   20.1430 C   0  0  0  0  0  0  0  0  0  0  0  0
   21.5320   19.2621   20.1037 H   0  0  0  0  0  0  0  0  0  0  0  0
   20.3817   18.2740   19.2184 H   0  0  0  0  0  0  0  0  0  0  0  0
   20.3864   17.8885   21.3497 C   0  0  0  0  0  0  0  0  0  0  0  0
   19.4038   17.3968   21.3394 H   0  0  0  0  0  0  0  0  0  0  0  0
   21.1210   17.0838   21.2071 H   0  0  0  0  0  0  0  0  0  0  0  0
   20.6476   18.5423   22.7317 C   0  0  0  0  0  0  0  0  0  0  0  0
   21.3341   19.3931   22.6208 H   0  0  0  0  0  0  0  0  0  0  0  0
   21.1683   17.8097   23.3626 H   0  0  0  0  0  0  0  0  0  0  0  0
   19.3497   18.9861   23.4554 C   0  0  0  0  0  0  0  0  0  0  0  0
   18.7627   19.6365   22.7973 H   0  0  0  0  0  0  0  0  0  0  0  0
   18.7228   18.1076   23.6580 H   0  0  0  0  0  0  0  0  0  0  0  0
   19.6255   19.7395   24.7747 C   0  0  1  0  0  0  0  0  0  0  0  0
   20.2709   20.5948   24.5520 H   0  0  0  0  0  0  0  0  0  0  0  0
   18.3122   20.2695   25.3723 C   0  0  0  0  0  0  0  0  0  0  0  0
   17.8054   20.9401   24.6671 H   0  0  0  0  0  0  0  0  0  0  0  0
   18.5048   20.8374   26.2909 H   0  0  0  0  0  0  0  0  0  0  0  0
   17.6266   19.4481   25.6155 H   0  0  0  0  0  0  0  0  0  0  0  0
   20.3589   18.8937   25.7798 N   0  3  0  0  0  0  0  0  0  0  0  0
   21.2576   18.5706   25.4119 H   0  0  0  0  0  0  0  0  0  0  0  0
   20.5502   19.4157   26.6396 H   0  0  0  0  0  0  0  0  0  0  0  0
   19.8156   18.0659   26.0384 H   0  0  0  0  0  0  0  0  0  0  0  0
  1  2  1  0  0  0  0
  1  3  1  0  0  0  0
  1  4  1  0  0  0  0
  1  5  1  0  0  0  0
  5  6  1  0  0  0  0
  5  7  1  0  0  0  0
  5  8  1  0  0  0  0
  8  9  1  0  0  0  0
  8 10  1  0  0  0  0
  8 11  1  0  0  0  0
 11 12  1  0  0  0  0
 11 13  1  0  0  0  0
 11 14  1  0  0  0  0
 14 15  1  0  0  0  0
 14 16  1  0  0  0  0
 14 17  1  0  0  0  0
 17 18  1  0  0  0  0
 17 19  1  0  0  0  0
 19 20  1  0  0  0  0
 19 21  1  0  0  0  0
 19 22  1  0  0  0  0
 17 23  1  0  0  0  0
 23 24  1  0  0  0  0
 23 25  1  0  0  0  0
 23 26  1  0  0  0  0
M  END
> <VM2 Rank>
41

> <Conf_Id>
1235

> <Probability>
0.06

> <Sum Probability>
99.09

> <Delta G>
3.385

> <G>
27.095

> <E>
-5.839

> <-TS>
32.934

> <U+W>
-27.301

> <U>
26.787

> <W>
-54.088

> <W(PB)>
-56.348

> <W(SA)>
2.260

> <Valence>
5.741

> <Coulomb>
20.023

> <VdW>
1.022

> <VdW6>
-8.392

> <VdW12>
9.414

> <Bond>
0.261

> <Angle>
1.577

> <Pdih>
3.904

> <Idih>
0.000

> <Tether>
0.000

$$$$
VeraChem MOL file


 26 25  0  0  0  0  0  0  0  0999 V2000     
   19.5741   17.7155   20.5301 C   0  0  0  0  0  0  0  0  0  0  0  0
   19.7839   17.2675   21.5089 H   0  0  0  0  0  0  0  0  0  0  0  0
   18.5345   18.0678   20.5206 H   0  0  0  0  0  0  0  0  0  0  0  0
   19.6658   16.9194   19.7799 H   0  0  0  0  0  0  0  0  0  0  0  0
   20.5557   18.8659   20.2179 C   0  0  0  0  0  0  0  0  0  0  0  0
   20.4277   19.1624   19.1674 H   0  0  0  0  0  0  0  0  0  0  0  0
   21.5876   18.4981   20.3060 H   0  0  0  0  0  0  0  0  0  0  0  0
   20.3735   20.1219   21.1078 C   0  0  0  0  0  0  0  0  0  0  0  0
   21.0903   20.8788   20.7603 H   0  0  0  0  0  0  0  0  0  0  0  0
   19.3793   20.5596   20.9435 H   0  0  0  0  0  0  0  0  0  0  0  0
   20.6166   19.8864   22.6215 C   0  0  0  0  0  0  0  0  0  0  0  0
   21.0755   20.7913   23.0435 H   0  0  0  0  0  0  0  0  0  0  0  0
   21.3508   19.0813   22.7562 H   0  0  0  0  0  0  0  0  0  0  0  0
   19.3169   19.5921   23.4156 C   0  0  0  0  0  0  0  0  0  0  0  0
   18.6141   20.4211   23.2587 H   0  0  0  0  0  0  0  0  0  0  0  0
   18.8226   18.6927   23.0319 H   0  0  0  0  0  0  0  0  0  0  0  0
   19.5636   19.4335   24.9315 C   0  0  1  0  0  0  0  0  0  0  0  0
   20.0740   20.3320   25.2918 H   0  0  0  0  0  0  0  0  0  0  0  0
   18.2273   19.3045   25.6801 C   0  0  0  0  0  0  0  0  0  0  0  0
   17.6743   18.4143   25.3553 H   0  0  0  0  0  0  0  0  0  0  0  0
   17.5946   20.1832   25.5029 H   0  0  0  0  0  0  0  0  0  0  0  0
   18.3940   19.2277   26.7616 H   0  0  0  0  0  0  0  0  0  0  0  0
   20.4604   18.2682   25.2495 N   0  3  0  0  0  0  0  0  0  0  0  0
   20.6307   18.1914   26.2563 H   0  0  0  0  0  0  0  0  0  0  0  0
   20.0479   17.3843   24.9402 H   0  0  0  0  0  0  0  0  0  0  0  0
   21.3709   18.3613   24.7917 H   0  0  0  0  0  0  0  0  0  0  0  0
  1  2  1  0  0  0  0
  1  3  1  0  0  0  0
  1  4  1  0  0  0  0
  1  5  1  0  0  0  0
  5  6  1  0  0  0  0
  5  7  1  0  0  0  0
  5  8  1  0  0  0  0
  8  9  1  0  0  0  0
  8 10  1  0  0  0  0
  8 11  1  0  0  0  0
 11 12  1  0  0  0  0
 11 13  1  0  0  0  0
 11 14  1  0  0  0  0
 14 15  1  0  0  0  0
 14 16  1  0  0  0  0
 14 17  1  0  0  0  0
 17 18  1  0  0  0  0
 17 19  1  0  0  0  0
 19 20  1  0  0  0  0
 19 21  1  0  0  0  0
 19 22  1  0  0  0  0
 17 23  1  0  0  0  0
 23 24  1  0  0  0  0
 23 25  1  0  0  0  0
 23 26  1  0  0  0  0
M  END
> <VM2 Rank>
42

> <Conf_Id>
845

> <Probability>
0.05

> <Sum Probability>
99.14

> <Delta G>
3.472

> <G>
27.182

> <E>
-5.704

> <-TS>
32.886

> <U+W>
-27.166

> <U>
27.046

> <W>
-54.213

> <W(PB)>
-56.479

> <W(SA)>
2.266

> <Valence>
5.686

> <Coulomb>
20.402

> <VdW>
0.959

> <VdW6>
-8.445

> <VdW12>
9.405

> <Bond>
0.263

> <Angle>
1.662

> <Pdih>
3.760

> <Idih>
0.000

> <Tether>
0.000

$$$$
VeraChem MOL file


 26 25  0  0  0  0  0  0  0  0999 V2000     
   21.2361   19.3282   19.8744 C   0  0  0  0  0  0  0  0  0  0  0  0
   20.6584   19.0722   18.9766 H   0  0  0  0  0  0  0  0  0  0  0  0
   21.8622   20.1975   19.6350 H   0  0  0  0  0  0  0  0  0  0  0  0
   21.9021   18.4862   20.1040 H   0  0  0  0  0  0  0  0  0  0  0  0
   20.3045   19.6388   21.0650 C   0  0  0  0  0  0  0  0  0  0  0  0
   19.6743   20.5035   20.8145 H   0  0  0  0  0  0  0  0  0  0  0  0
   20.9173   19.9342   21.9239 H   0  0  0  0  0  0  0  0  0  0  0  0
   19.4090   18.4264   21.4170 C   0  0  0  0  0  0  0  0  0  0  0  0
   18.8472   18.1477   20.5146 H   0  0  0  0  0  0  0  0  0  0  0  0
   20.0287   17.5546   21.6679 H   0  0  0  0  0  0  0  0  0  0  0  0
   18.3885   18.6998   22.5531 C   0  0  0  0  0  0  0  0  0  0  0  0
   17.5150   18.0564   22.3787 H   0  0  0  0  0  0  0  0  0  0  0  0
   18.0062   19.7269   22.4881 H   0  0  0  0  0  0  0  0  0  0  0  0
   18.9060   18.3879   23.9840 C   0  0  0  0  0  0  0  0  0  0  0  0
   18.0734   18.5005   24.6910 H   0  0  0  0  0  0  0  0  0  0  0  0
   19.1916   17.3285   24.0237 H   0  0  0  0  0  0  0  0  0  0  0  0
   20.0971   19.2402   24.4773 C   0  0  1  0  0  0  0  0  0  0  0  0
   20.9199   19.1282   23.7667 H   0  0  0  0  0  0  0  0  0  0  0  0
   19.7321   20.7317   24.5878 C   0  0  0  0  0  0  0  0  0  0  0  0
   19.4566   21.1505   23.6133 H   0  0  0  0  0  0  0  0  0  0  0  0
   20.5847   21.3113   24.9623 H   0  0  0  0  0  0  0  0  0  0  0  0
   18.8901   20.8831   25.2745 H   0  0  0  0  0  0  0  0  0  0  0  0
   20.6148   18.7350   25.7954 N   0  3  0  0  0  0  0  0  0  0  0  0
   20.9028   17.7541   25.7371 H   0  0  0  0  0  0  0  0  0  0  0  0
   21.4279   19.2725   26.1091 H   0  0  0  0  0  0  0  0  0  0  0  0
   19.9034   18.8033   26.5280 H   0  0  0  0  0  0  0  0  0  0  0  0
  1  2  1  0  0  0  0
  1  3  1  0  0  0  0
  1  4  1  0  0  0  0
  1  5  1  0  0  0  0
  5  6  1  0  0  0  0
  5  7  1  0  0  0  0
  5  8  1  0  0  0  0
  8  9  1  0  0  0  0
  8 10  1  0  0  0  0
  8 11  1  0  0  0  0
 11 12  1  0  0  0  0
 11 13  1  0  0  0  0
 11 14  1  0  0  0  0
 14 15  1  0  0  0  0
 14 16  1  0  0  0  0
 14 17  1  0  0  0  0
 17 18  1  0  0  0  0
 17 19  1  0  0  0  0
 19 20  1  0  0  0  0
 19 21  1  0  0  0  0
 19 22  1  0  0  0  0
 17 23  1  0  0  0  0
 23 24  1  0  0  0  0
 23 25  1  0  0  0  0
 23 26  1  0  0  0  0
M  END
> <VM2 Rank>
43

> <Conf_Id>
431

> <Probability>
0.05

> <Sum Probability>
99.19

> <Delta G>
3.475

> <G>
27.185

> <E>
-6.001

> <-TS>
33.186

> <U+W>
-27.463

> <U>
26.923

> <W>
-54.386

> <W(PB)>
-56.637

> <W(SA)>
2.251

> <Valence>
5.933

> <Coulomb>
20.334

> <VdW>
0.657

> <VdW6>
-9.078

> <VdW12>
9.735

> <Bond>
0.268

> <Angle>
2.253

> <Pdih>
3.412

> <Idih>
0.000

> <Tether>
0.000

$$$$
VeraChem MOL file


 26 25  0  0  0  0  0  0  0  0999 V2000     
   21.2367   19.1534   19.8068 C   0  0  0  0  0  0  0  0  0  0  0  0
   22.2499   19.5756   19.8001 H   0  0  0  0  0  0  0  0  0  0  0  0
   21.3107   18.0947   19.5257 H   0  0  0  0  0  0  0  0  0  0  0  0
   20.6513   19.6718   19.0362 H   0  0  0  0  0  0  0  0  0  0  0  0
   20.5889   19.3134   21.1985 C   0  0  0  0  0  0  0  0  0  0  0  0
   20.5509   20.3796   21.4624 H   0  0  0  0  0  0  0  0  0  0  0  0
   21.2266   18.8151   21.9399 H   0  0  0  0  0  0  0  0  0  0  0  0
   19.1662   18.7100   21.2375 C   0  0  0  0  0  0  0  0  0  0  0  0
   18.5955   19.0909   20.3792 H   0  0  0  0  0  0  0  0  0  0  0  0
   19.2283   17.6215   21.1017 H   0  0  0  0  0  0  0  0  0  0  0  0
   18.3634   19.0265   22.5262 C   0  0  0  0  0  0  0  0  0  0  0  0
   17.3637   18.5873   22.4039 H   0  0  0  0  0  0  0  0  0  0  0  0
   18.1966   20.1076   22.6056 H   0  0  0  0  0  0  0  0  0  0  0  0
   18.9744   18.4572   23.8363 C   0  0  0  0  0  0  0  0  0  0  0  0
   18.1670   18.3041   24.5647 H   0  0  0  0  0  0  0  0  0  0  0  0
   19.3806   17.4584   23.6290 H   0  0  0  0  0  0  0  0  0  0  0  0
   20.0664   19.3331   24.4978 C   0  0  1  0  0  0  0  0  0  0  0  0
   20.8090   19.6049   23.7447 H   0  0  0  0  0  0  0  0  0  0  0  0
   19.4862   20.6292   25.0925 C   0  0  0  0  0  0  0  0  0  0  0  0
   20.2719   21.2098   25.5915 H   0  0  0  0  0  0  0  0  0  0  0  0
   18.7046   20.4122   25.8312 H   0  0  0  0  0  0  0  0  0  0  0  0
   19.0547   21.2705   24.3160 H   0  0  0  0  0  0  0  0  0  0  0  0
   20.8058   18.5652   25.5584 N   0  3  0  0  0  0  0  0  0  0  0  0
   21.5512   19.1283   25.9774 H   0  0  0  0  0  0  0  0  0  0  0  0
   20.1803   18.2761   26.3152 H   0  0  0  0  0  0  0  0  0  0  0  0
   21.2401   17.7192   25.1787 H   0  0  0  0  0  0  0  0  0  0  0  0
  1  2  1  0  0  0  0
  1  3  1  0  0  0  0
  1  4  1  0  0  0  0
  1  5  1  0  0  0  0
  5  6  1  0  0  0  0
  5  7  1  0  0  0  0
  5  8  1  0  0  0  0
  8  9  1  0  0  0  0
  8 10  1  0  0  0  0
  8 11  1  0  0  0  0
 11 12  1  0  0  0  0
 11 13  1  0  0  0  0
 11 14  1  0  0  0  0
 14 15  1  0  0  0  0
 14 16  1  0  0  0  0
 14 17  1  0  0  0  0
 17 18  1  0  0  0  0
 17 19  1  0  0  0  0
 19 20  1  0  0  0  0
 19 21  1  0  0  0  0
 19 22  1  0  0  0  0
 17 23  1  0  0  0  0
 23 24  1  0  0  0  0
 23 25  1  0  0  0  0
 23 26  1  0  0  0  0
M  END
> <VM2 Rank>
44

> <Conf_Id>
1356

> <Probability>
0.05

> <Sum Probability>
99.24

> <Delta G>
3.518

> <G>
27.228

> <E>
-5.560

> <-TS>
32.787

> <U+W>
-27.021

> <U>
27.379

> <W>
-54.400

> <W(PB)>
-56.656

> <W(SA)>
2.255

> <Valence>
5.925

> <Coulomb>
20.577

> <VdW>
0.876

> <VdW6>
-8.774

> <VdW12>
9.650

> <Bond>
0.273

> <Angle>
2.153

> <Pdih>
3.499

> <Idih>
0.000

> <Tether>
0.000

$$$$
VeraChem MOL file


 26 25  0  0  0  0  0  0  0  0999 V2000     
   18.9272   18.9928   19.9664 C   0  0  0  0  0  0  0  0  0  0  0  0
   18.5235   19.6691   19.2018 H   0  0  0  0  0  0  0  0  0  0  0  0
   18.8664   17.9703   19.5714 H   0  0  0  0  0  0  0  0  0  0  0  0
   18.2729   19.0541   20.8430 H   0  0  0  0  0  0  0  0  0  0  0  0
   20.3895   19.3677   20.3026 C   0  0  0  0  0  0  0  0  0  0  0  0
   20.4516   20.4171   20.6227 H   0  0  0  0  0  0  0  0  0  0  0  0
   20.9775   19.2997   19.3765 H   0  0  0  0  0  0  0  0  0  0  0  0
   21.0329   18.4400   21.3654 C   0  0  0  0  0  0  0  0  0  0  0  0
   20.5797   17.4400   21.3212 H   0  0  0  0  0  0  0  0  0  0  0  0
   22.0893   18.2969   21.0991 H   0  0  0  0  0  0  0  0  0  0  0  0
   20.9879   18.9814   22.8179 C   0  0  0  0  0  0  0  0  0  0  0  0
   21.5397   19.9302   22.8699 H   0  0  0  0  0  0  0  0  0  0  0  0
   21.5341   18.2745   23.4558 H   0  0  0  0  0  0  0  0  0  0  0  0
   19.5579   19.1884   23.3767 C   0  0  0  0  0  0  0  0  0  0  0  0
   19.0539   19.9613   22.7836 H   0  0  0  0  0  0  0  0  0  0  0  0
   18.9747   18.2651   23.2624 H   0  0  0  0  0  0  0  0  0  0  0  0
   19.5453   19.6320   24.8559 C   0  0  1  0  0  0  0  0  0  0  0  0
   20.1677   20.5272   24.9510 H   0  0  0  0  0  0  0  0  0  0  0  0
   18.1157   19.9899   25.2932 C   0  0  0  0  0  0  0  0  0  0  0  0
   18.1036   20.3392   26.3331 H   0  0  0  0  0  0  0  0  0  0  0  0
   17.4481   19.1226   25.2161 H   0  0  0  0  0  0  0  0  0  0  0  0
   17.7059   20.7931   24.6682 H   0  0  0  0  0  0  0  0  0  0  0  0
   20.1316   18.5958   25.7759 N   0  3  0  0  0  0  0  0  0  0  0  0
   19.6016   17.7212   25.7390 H   0  0  0  0  0  0  0  0  0  0  0  0
   21.1007   18.3799   25.5280 H   0  0  0  0  0  0  0  0  0  0  0  0
   20.1290   18.9150   26.7487 H   0  0  0  0  0  0  0  0  0  0  0  0
  1  2  1  0  0  0  0
  1  3  1  0  0  0  0
  1  4  1  0  0  0  0
  1  5  1  0  0  0  0
  5  6  1  0  0  0  0
  5  7  1  0  0  0  0
  5  8  1  0  0  0  0
  8  9  1  0  0  0  0
  8 10  1  0  0  0  0
  8 11  1  0  0  0  0
 11 12  1  0  0  0  0
 11 13  1  0  0  0  0
 11 14  1  0  0  0  0
 14 15  1  0  0  0  0
 14 16  1  0  0  0  0
 14 17  1  0  0  0  0
 17 18  1  0  0  0  0
 17 19  1  0  0  0  0
 19 20  1  0  0  0  0
 19 21  1  0  0  0  0
 19 22  1  0  0  0  0
 17 23  1  0  0  0  0
 23 24  1  0  0  0  0
 23 25  1  0  0  0  0
 23 26  1  0  0  0  0
M  END
> <VM2 Rank>
45

> <Conf_Id>
1353

> <Probability>
0.05

> <Sum Probability>
99.29

> <Delta G>
3.529

> <G>
27.239

> <E>
-5.652

> <-TS>
32.891

> <U+W>
-27.114

> <U>
26.879

> <W>
-53.994

> <W(PB)>
-56.259

> <W(SA)>
2.265

> <Valence>
5.789

> <Coulomb>
20.012

> <VdW>
1.078

> <VdW6>
-8.363

> <VdW12>
9.442

> <Bond>
0.261

> <Angle>
1.699

> <Pdih>
3.828

> <Idih>
0.000

> <Tether>
0.000

$$$$
VeraChem MOL file


 26 25  0  0  0  0  0  0  0  0999 V2000     
   19.2992   19.8472   20.2872 C   0  0  0  0  0  0  0  0  0  0  0  0
   19.1347   20.1817   19.2548 H   0  0  0  0  0  0  0  0  0  0  0  0
   18.4168   19.2678   20.5831 H   0  0  0  0  0  0  0  0  0  0  0  0
   19.3663   20.7394   20.9231 H   0  0  0  0  0  0  0  0  0  0  0  0
   20.5840   18.9960   20.3780 C   0  0  0  0  0  0  0  0  0  0  0  0
   21.3889   19.5233   19.8471 H   0  0  0  0  0  0  0  0  0  0  0  0
   20.4349   18.0500   19.8390 H   0  0  0  0  0  0  0  0  0  0  0  0
   21.0661   18.7056   21.8224 C   0  0  0  0  0  0  0  0  0  0  0  0
   22.0187   18.1639   21.7411 H   0  0  0  0  0  0  0  0  0  0  0  0
   21.3124   19.6463   22.3299 H   0  0  0  0  0  0  0  0  0  0  0  0
   20.1032   17.8388   22.6807 C   0  0  0  0  0  0  0  0  0  0  0  0
   20.7035   17.2493   23.3863 H   0  0  0  0  0  0  0  0  0  0  0  0
   19.6076   17.0987   22.0376 H   0  0  0  0  0  0  0  0  0  0  0  0
   19.0295   18.6216   23.4872 C   0  0  0  0  0  0  0  0  0  0  0  0
   18.3333   19.1141   22.8008 H   0  0  0  0  0  0  0  0  0  0  0  0
   18.4258   17.9014   24.0551 H   0  0  0  0  0  0  0  0  0  0  0  0
   19.5995   19.6774   24.4616 C   0  0  1  0  0  0  0  0  0  0  0  0
   20.1700   20.4098   23.8837 H   0  0  0  0  0  0  0  0  0  0  0  0
   18.4570   20.4198   25.1727 C   0  0  0  0  0  0  0  0  0  0  0  0
   17.7969   20.9076   24.4447 H   0  0  0  0  0  0  0  0  0  0  0  0
   18.8535   21.1982   25.8361 H   0  0  0  0  0  0  0  0  0  0  0  0
   17.8513   19.7323   25.7764 H   0  0  0  0  0  0  0  0  0  0  0  0
   20.5495   19.0818   25.4642 N   0  3  0  0  0  0  0  0  0  0  0  0
   21.3361   18.6193   25.0007 H   0  0  0  0  0  0  0  0  0  0  0  0
   20.9363   19.7976   26.0857 H   0  0  0  0  0  0  0  0  0  0  0  0
   20.0837   18.3849   26.0512 H   0  0  0  0  0  0  0  0  0  0  0  0
  1  2  1  0  0  0  0
  1  3  1  0  0  0  0
  1  4  1  0  0  0  0
  1  5  1  0  0  0  0
  5  6  1  0  0  0  0
  5  7  1  0  0  0  0
  5  8  1  0  0  0  0
  8  9  1  0  0  0  0
  8 10  1  0  0  0  0
  8 11  1  0  0  0  0
 11 12  1  0  0  0  0
 11 13  1  0  0  0  0
 11 14  1  0  0  0  0
 14 15  1  0  0  0  0
 14 16  1  0  0  0  0
 14 17  1  0  0  0  0
 17 18  1  0  0  0  0
 17 19  1  0  0  0  0
 19 20  1  0  0  0  0
 19 21  1  0  0  0  0
 19 22  1  0  0  0  0
 17 23  1  0  0  0  0
 23 24  1  0  0  0  0
 23 25  1  0  0  0  0
 23 26  1  0  0  0  0
M  END
> <VM2 Rank>
46

> <Conf_Id>
824

> <Probability>
0.04

> <Sum Probability>
99.33

> <Delta G>
3.594

> <G>
27.303

> <E>
-5.210

> <-TS>
32.513

> <U+W>
-26.672

> <U>
27.544

> <W>
-54.216

> <W(PB)>
-56.451

> <W(SA)>
2.236

> <Valence>
6.186

> <Coulomb>
20.491

> <VdW>
0.867

> <VdW6>
-9.301

> <VdW12>
10.168

> <Bond>
0.324

> <Angle>
2.320

> <Pdih>
3.542

> <Idih>
0.000

> <Tether>
0.000

$$$$
VeraChem MOL file


 26 25  0  0  0  0  0  0  0  0999 V2000     
   20.8814   19.5877   19.6822 C   0  0  0  0  0  0  0  0  0  0  0  0
   21.0918   19.4431   18.6146 H   0  0  0  0  0  0  0  0  0  0  0  0
   20.1067   20.3603   19.7644 H   0  0  0  0  0  0  0  0  0  0  0  0
   21.7963   19.9660   20.1565 H   0  0  0  0  0  0  0  0  0  0  0  0
   20.4281   18.2594   20.3292 C   0  0  0  0  0  0  0  0  0  0  0  0
   21.1847   17.4887   20.1259 H   0  0  0  0  0  0  0  0  0  0  0  0
   19.5011   17.9132   19.8510 H   0  0  0  0  0  0  0  0  0  0  0  0
   20.2211   18.3634   21.8594 C   0  0  0  0  0  0  0  0  0  0  0  0
   19.9889   17.3623   22.2483 H   0  0  0  0  0  0  0  0  0  0  0  0
   21.1669   18.6762   22.3183 H   0  0  0  0  0  0  0  0  0  0  0  0
   19.0882   19.3432   22.2557 C   0  0  0  0  0  0  0  0  0  0  0  0
   18.2154   19.1475   21.6175 H   0  0  0  0  0  0  0  0  0  0  0  0
   19.3973   20.3753   22.0427 H   0  0  0  0  0  0  0  0  0  0  0  0
   18.6299   19.2441   23.7347 C   0  0  0  0  0  0  0  0  0  0  0  0
   17.7454   19.8864   23.8412 H   0  0  0  0  0  0  0  0  0  0  0  0
   18.2880   18.2251   23.9588 H   0  0  0  0  0  0  0  0  0  0  0  0
   19.6872   19.6881   24.7734 C   0  0  1  0  0  0  0  0  0  0  0  0
   20.1949   20.5785   24.3900 H   0  0  0  0  0  0  0  0  0  0  0  0
   19.0082   20.0567   26.1030 C   0  0  0  0  0  0  0  0  0  0  0  0
   18.4694   19.1988   26.5246 H   0  0  0  0  0  0  0  0  0  0  0  0
   18.2914   20.8753   25.9624 H   0  0  0  0  0  0  0  0  0  0  0  0
   19.7502   20.3899   26.8391 H   0  0  0  0  0  0  0  0  0  0  0  0
   20.7439   18.6454   25.0163 N   0  3  0  0  0  0  0  0  0  0  0  0
   21.2247   18.3915   24.1507 H   0  0  0  0  0  0  0  0  0  0  0  0
   21.4522   18.9779   25.6769 H   0  0  0  0  0  0  0  0  0  0  0  0
   20.3394   17.7903   25.4068 H   0  0  0  0  0  0  0  0  0  0  0  0
  1  2  1  0  0  0  0
  1  3  1  0  0  0  0
  1  4  1  0  0  0  0
  1  5  1  0  0  0  0
  5  6  1  0  0  0  0
  5  7  1  0  0  0  0
  5  8  1  0  0  0  0
  8  9  1  0  0  0  0
  8 10  1  0  0  0  0
  8 11  1  0  0  0  0
 11 12  1  0  0  0  0
 11 13  1  0  0  0  0
 11 14  1  0  0  0  0
 14 15  1  0  0  0  0
 14 16  1  0  0  0  0
 14 17  1  0  0  0  0
 17 18  1  0  0  0  0
 17 19  1  0  0  0  0
 19 20  1  0  0  0  0
 19 21  1  0  0  0  0
 19 22  1  0  0  0  0
 17 23  1  0  0  0  0
 23 24  1  0  0  0  0
 23 25  1  0  0  0  0
 23 26  1  0  0  0  0
M  END
> <VM2 Rank>
47

> <Conf_Id>
834

> <Probability>
0.04

> <Sum Probability>
99.37

> <Delta G>
3.603

> <G>
27.313

> <E>
-5.351

> <-TS>
32.664

> <U+W>
-26.813

> <U>
27.042

> <W>
-53.855

> <W(PB)>
-56.140

> <W(SA)>
2.285

> <Valence>
4.968

> <Coulomb>
21.068

> <VdW>
1.006

> <VdW6>
-8.509

> <VdW12>
9.516

> <Bond>
0.263

> <Angle>
1.758

> <Pdih>
2.947

> <Idih>
0.000

> <Tether>
0.000

$$$$
VeraChem MOL file


 26 25  0  0  0  0  0  0  0  0999 V2000     
   19.3013   17.9061   20.4583 C   0  0  0  0  0  0  0  0  0  0  0  0
   20.0177   17.1393   20.7803 H   0  0  0  0  0  0  0  0  0  0  0  0
   18.5637   18.0547   21.2565 H   0  0  0  0  0  0  0  0  0  0  0  0
   18.7631   17.5171   19.5843 H   0  0  0  0  0  0  0  0  0  0  0  0
   20.0190   19.2270   20.1055 C   0  0  0  0  0  0  0  0  0  0  0  0
   19.2707   19.9931   19.8586 H   0  0  0  0  0  0  0  0  0  0  0  0
   20.6096   19.0736   19.1915 H   0  0  0  0  0  0  0  0  0  0  0  0
   20.9614   19.7595   21.2151 C   0  0  0  0  0  0  0  0  0  0  0  0
   21.7792   19.0468   21.3891 H   0  0  0  0  0  0  0  0  0  0  0  0
   21.4408   20.6706   20.8312 H   0  0  0  0  0  0  0  0  0  0  0  0
   20.2571   20.1114   22.5518 C   0  0  0  0  0  0  0  0  0  0  0  0
   19.2260   20.4285   22.3495 H   0  0  0  0  0  0  0  0  0  0  0  0
   20.7633   20.9818   22.9918 H   0  0  0  0  0  0  0  0  0  0  0  0
   20.2938   18.9584   23.5895 C   0  0  0  0  0  0  0  0  0  0  0  0
   19.7794   18.0718   23.2025 H   0  0  0  0  0  0  0  0  0  0  0  0
   21.3405   18.6636   23.7413 H   0  0  0  0  0  0  0  0  0  0  0  0
   19.6928   19.3407   24.9613 C   0  0  1  0  0  0  0  0  0  0  0  0
   20.1811   20.2570   25.3071 H   0  0  0  0  0  0  0  0  0  0  0  0
   18.1770   19.5965   24.8778 C   0  0  0  0  0  0  0  0  0  0  0  0
   17.9516   20.4586   24.2398 H   0  0  0  0  0  0  0  0  0  0  0  0
   17.7667   19.8135   25.8717 H   0  0  0  0  0  0  0  0  0  0  0  0
   17.6488   18.7233   24.4752 H   0  0  0  0  0  0  0  0  0  0  0  0
   19.9856   18.2884   25.9947 N   0  3  0  0  0  0  0  0  0  0  0  0
   19.5590   17.3916   25.7475 H   0  0  0  0  0  0  0  0  0  0  0  0
   20.9922   18.1320   26.0993 H   0  0  0  0  0  0  0  0  0  0  0  0
   19.6227   18.5560   26.9141 H   0  0  0  0  0  0  0  0  0  0  0  0
  1  2  1  0  0  0  0
  1  3  1  0  0  0  0
  1  4  1  0  0  0  0
  1  5  1  0  0  0  0
  5  6  1  0  0  0  0
  5  7  1  0  0  0  0
  5  8  1  0  0  0  0
  8  9  1  0  0  0  0
  8 10  1  0  0  0  0
  8 11  1  0  0  0  0
 11 12  1  0  0  0  0
 11 13  1  0  0  0  0
 11 14  1  0  0  0  0
 14 15  1  0  0  0  0
 14 16  1  0  0  0  0
 14 17  1  0  0  0  0
 17 18  1  0  0  0  0
 17 19  1  0  0  0  0
 19 20  1  0  0  0  0
 19 21  1  0  0  0  0
 19 22  1  0  0  0  0
 17 23  1  0  0  0  0
 23 24  1  0  0  0  0
 23 25  1  0  0  0  0
 23 26  1  0  0  0  0
M  END
> <VM2 Rank>
48

> <Conf_Id>
766

> <Probability>
0.04

> <Sum Probability>
99.40

> <Delta G>
3.667

> <G>
27.377

> <E>
-5.492

> <-TS>
32.868

> <U+W>
-26.953

> <U>
27.261

> <W>
-54.208

> <W(PB)>
-56.471

> <W(SA)>
2.263

> <Valence>
6.230

> <Coulomb>
19.945

> <VdW>
1.087

> <VdW6>
-8.618

> <VdW12>
9.704

> <Bond>
0.277

> <Angle>
1.929

> <Pdih>
4.024

> <Idih>
0.000

> <Tether>
0.000

$$$$
VeraChem MOL file


 26 25  0  0  0  0  0  0  0  0999 V2000     
   20.2809   19.1192   19.3039 C   0  0  0  0  0  0  0  0  0  0  0  0
   19.3309   18.6347   19.0433 H   0  0  0  0  0  0  0  0  0  0  0  0
   20.0838   20.1802   19.5013 H   0  0  0  0  0  0  0  0  0  0  0  0
   20.9375   19.0640   18.4259 H   0  0  0  0  0  0  0  0  0  0  0  0
   20.9426   18.4286   20.5180 C   0  0  0  0  0  0  0  0  0  0  0  0
   21.8733   18.9518   20.7782 H   0  0  0  0  0  0  0  0  0  0  0  0
   21.2340   17.4091   20.2288 H   0  0  0  0  0  0  0  0  0  0  0  0
   20.0221   18.3481   21.7598 C   0  0  0  0  0  0  0  0  0  0  0  0
   19.1033   17.8060   21.4966 H   0  0  0  0  0  0  0  0  0  0  0  0
   20.5261   17.7388   22.5180 H   0  0  0  0  0  0  0  0  0  0  0  0
   19.6538   19.7371   22.3430 C   0  0  0  0  0  0  0  0  0  0  0  0
   19.0637   20.2820   21.5945 H   0  0  0  0  0  0  0  0  0  0  0  0
   20.5596   20.3360   22.5108 H   0  0  0  0  0  0  0  0  0  0  0  0
   18.8169   19.6648   23.6475 C   0  0  0  0  0  0  0  0  0  0  0  0
   18.1636   20.5472   23.6752 H   0  0  0  0  0  0  0  0  0  0  0  0
   18.1468   18.7952   23.6235 H   0  0  0  0  0  0  0  0  0  0  0  0
   19.6582   19.6632   24.9455 C   0  0  1  0  0  0  0  0  0  0  0  0
   20.2978   20.5511   24.9359 H   0  0  0  0  0  0  0  0  0  0  0  0
   18.7388   19.7489   26.1745 C   0  0  0  0  0  0  0  0  0  0  0  0
   18.1169   20.6519   26.1348 H   0  0  0  0  0  0  0  0  0  0  0  0
   19.3283   19.7923   27.0986 H   0  0  0  0  0  0  0  0  0  0  0  0
   18.0736   18.8784   26.2340 H   0  0  0  0  0  0  0  0  0  0  0  0
   20.5747   18.4781   25.0618 N   0  3  0  0  0  0  0  0  0  0  0  0
   21.2274   18.4384   24.2745 H   0  0  0  0  0  0  0  0  0  0  0  0
   21.1307   18.5181   25.9207 H   0  0  0  0  0  0  0  0  0  0  0  0
   20.0488   17.6004   25.0763 H   0  0  0  0  0  0  0  0  0  0  0  0
  1  2  1  0  0  0  0
  1  3  1  0  0  0  0
  1  4  1  0  0  0  0
  1  5  1  0  0  0  0
  5  6  1  0  0  0  0
  5  7  1  0  0  0  0
  5  8  1  0  0  0  0
  8  9  1  0  0  0  0
  8 10  1  0  0  0  0
  8 11  1  0  0  0  0
 11 12  1  0  0  0  0
 11 13  1  0  0  0  0
 11 14  1  0  0  0  0
 14 15  1  0  0  0  0
 14 16  1  0  0  0  0
 14 17  1  0  0  0  0
 17 18  1  0  0  0  0
 17 19  1  0  0  0  0
 19 20  1  0  0  0  0
 19 21  1  0  0  0  0
 19 22  1  0  0  0  0
 17 23  1  0  0  0  0
 23 24  1  0  0  0  0
 23 25  1  0  0  0  0
 23 26  1  0  0  0  0
M  END
> <VM2 Rank>
49

> <Conf_Id>
334

> <Probability>
0.04

> <Sum Probability>
99.44

> <Delta G>
3.671

> <G>
27.381

> <E>
-5.271

> <-TS>
32.652

> <U+W>
-26.733

> <U>
27.192

> <W>
-53.925

> <W(PB)>
-56.220

> <W(SA)>
2.295

> <Valence>
5.378

> <Coulomb>
20.709

> <VdW>
1.105

> <VdW6>
-8.250

> <VdW12>
9.355

> <Bond>
0.276

> <Angle>
1.582

> <Pdih>
3.520

> <Idih>
0.000

> <Tether>
0.000

$$$$
VeraChem MOL file


 26 25  0  0  0  0  0  0  0  0999 V2000     
   19.2880   18.4523   19.8552 C   0  0  0  0  0  0  0  0  0  0  0  0
   19.3768   18.2445   18.7811 H   0  0  0  0  0  0  0  0  0  0  0  0
   18.7474   17.6151   20.3155 H   0  0  0  0  0  0  0  0  0  0  0  0
   18.6789   19.3580   19.9668 H   0  0  0  0  0  0  0  0  0  0  0  0
   20.6863   18.6275   20.4898 C   0  0  0  0  0  0  0  0  0  0  0  0
   21.1966   19.4848   20.0288 H   0  0  0  0  0  0  0  0  0  0  0  0
   21.2962   17.7442   20.2541 H   0  0  0  0  0  0  0  0  0  0  0  0
   20.6432   18.8072   22.0262 C   0  0  0  0  0  0  0  0  0  0  0  0
   20.1565   17.9290   22.4677 H   0  0  0  0  0  0  0  0  0  0  0  0
   21.6747   18.8270   22.4040 H   0  0  0  0  0  0  0  0  0  0  0  0
   19.9123   20.0992   22.4694 C   0  0  0  0  0  0  0  0  0  0  0  0
   18.8437   20.0274   22.2296 H   0  0  0  0  0  0  0  0  0  0  0  0
   20.2952   20.9395   21.8742 H   0  0  0  0  0  0  0  0  0  0  0  0
   20.0894   20.4608   23.9712 C   0  0  0  0  0  0  0  0  0  0  0  0
   21.1512   20.6500   24.1763 H   0  0  0  0  0  0  0  0  0  0  0  0
   19.5846   21.4202   24.1450 H   0  0  0  0  0  0  0  0  0  0  0  0
   19.5469   19.4520   25.0158 C   0  0  1  0  0  0  0  0  0  0  0  0
   19.5612   19.9624   25.9838 H   0  0  0  0  0  0  0  0  0  0  0  0
   18.0908   19.0411   24.7358 C   0  0  0  0  0  0  0  0  0  0  0  0
   17.6929   18.4462   25.5670 H   0  0  0  0  0  0  0  0  0  0  0  0
   18.0081   18.4393   23.8229 H   0  0  0  0  0  0  0  0  0  0  0  0
   17.4520   19.9260   24.6241 H   0  0  0  0  0  0  0  0  0  0  0  0
   20.4312   18.2479   25.1905 N   0  3  0  0  0  0  0  0  0  0  0  0
   21.3846   18.5179   25.4483 H   0  0  0  0  0  0  0  0  0  0  0  0
   20.0794   17.6303   25.9276 H   0  0  0  0  0  0  0  0  0  0  0  0
   20.4876   17.7002   24.3297 H   0  0  0  0  0  0  0  0  0  0  0  0
  1  2  1  0  0  0  0
  1  3  1  0  0  0  0
  1  4  1  0  0  0  0
  1  5  1  0  0  0  0
  5  6  1  0  0  0  0
  5  7  1  0  0  0  0
  5  8  1  0  0  0  0
  8  9  1  0  0  0  0
  8 10  1  0  0  0  0
  8 11  1  0  0  0  0
 11 12  1  0  0  0  0
 11 13  1  0  0  0  0
 11 14  1  0  0  0  0
 14 15  1  0  0  0  0
 14 16  1  0  0  0  0
 14 17  1  0  0  0  0
 17 18  1  0  0  0  0
 17 19  1  0  0  0  0
 19 20  1  0  0  0  0
 19 21  1  0  0  0  0
 19 22  1  0  0  0  0
 17 23  1  0  0  0  0
 23 24  1  0  0  0  0
 23 25  1  0  0  0  0
 23 26  1  0  0  0  0
M  END
> <VM2 Rank>
50

> <Conf_Id>
1372

> <Probability>
0.03

> <Sum Probability>
99.47

> <Delta G>
3.769

> <G>
27.479

> <E>
-5.790

> <-TS>
33.269

> <U+W>
-27.252

> <U>
27.147

> <W>
-54.399

> <W(PB)>
-56.625

> <W(SA)>
2.226

> <Valence>
5.072

> <Coulomb>
21.223

> <VdW>
0.852

> <VdW6>
-9.599

> <VdW12>
10.451

> <Bond>
0.312

> <Angle>
2.307

> <Pdih>
2.453

> <Idih>
0.000

> <Tether>
0.000

$$$$
VeraChem MOL file


 26 25  0  0  0  0  0  0  0  0999 V2000     
   21.0075   19.7123   19.8279 C   0  0  0  0  0  0  0  0  0  0  0  0
   20.7466   19.0369   19.0026 H   0  0  0  0  0  0  0  0  0  0  0  0
   20.4021   20.6228   19.7290 H   0  0  0  0  0  0  0  0  0  0  0  0
   22.0619   19.9945   19.7112 H   0  0  0  0  0  0  0  0  0  0  0  0
   20.7723   19.0360   21.1951 C   0  0  0  0  0  0  0  0  0  0  0  0
   21.0884   19.7254   21.9857 H   0  0  0  0  0  0  0  0  0  0  0  0
   21.4139   18.1472   21.2721 H   0  0  0  0  0  0  0  0  0  0  0  0
   19.2905   18.6276   21.3782 C   0  0  0  0  0  0  0  0  0  0  0  0
   18.6403   19.5104   21.3074 H   0  0  0  0  0  0  0  0  0  0  0  0
   19.0120   17.9796   20.5355 H   0  0  0  0  0  0  0  0  0  0  0  0
   19.0003   17.8560   22.6924 C   0  0  0  0  0  0  0  0  0  0  0  0
   19.8362   17.1876   22.9379 H   0  0  0  0  0  0  0  0  0  0  0  0
   18.1443   17.1922   22.5074 H   0  0  0  0  0  0  0  0  0  0  0  0
   18.6309   18.7498   23.9074 C   0  0  0  0  0  0  0  0  0  0  0  0
   17.7465   19.3473   23.6489 H   0  0  0  0  0  0  0  0  0  0  0  0
   18.3245   18.1015   24.7391 H   0  0  0  0  0  0  0  0  0  0  0  0
   19.7489   19.6947   24.3970 C   0  0  1  0  0  0  0  0  0  0  0  0
   20.0215   20.3613   23.5748 H   0  0  0  0  0  0  0  0  0  0  0  0
   19.2438   20.5620   25.5611 C   0  0  0  0  0  0  0  0  0  0  0  0
   18.9571   19.9447   26.4217 H   0  0  0  0  0  0  0  0  0  0  0  0
   18.3699   21.1515   25.2570 H   0  0  0  0  0  0  0  0  0  0  0  0
   20.0210   21.2638   25.8879 H   0  0  0  0  0  0  0  0  0  0  0  0
   20.9938   18.9497   24.7950 N   0  3  0  0  0  0  0  0  0  0  0  0
   21.3552   18.3900   24.0182 H   0  0  0  0  0  0  0  0  0  0  0  0
   21.7370   19.5902   25.0882 H   0  0  0  0  0  0  0  0  0  0  0  0
   20.8124   18.3133   25.5757 H   0  0  0  0  0  0  0  0  0  0  0  0
  1  2  1  0  0  0  0
  1  3  1  0  0  0  0
  1  4  1  0  0  0  0
  1  5  1  0  0  0  0
  5  6  1  0  0  0  0
  5  7  1  0  0  0  0
  5  8  1  0  0  0  0
  8  9  1  0  0  0  0
  8 10  1  0  0  0  0
  8 11  1  0  0  0  0
 11 12  1  0  0  0  0
 11 13  1  0  0  0  0
 11 14  1  0  0  0  0
 14 15  1  0  0  0  0
 14 16  1  0  0  0  0
 14 17  1  0  0  0  0
 17 18  1  0  0  0  0
 17 19  1  0  0  0  0
 19 20  1  0  0  0  0
 19 21  1  0  0  0  0
 19 22  1  0  0  0  0
 17 23  1  0  0  0  0
 23 24  1  0  0  0  0
 23 25  1  0  0  0  0
 23 26  1  0  0  0  0
M  END
> <VM2 Rank>
51

> <Conf_Id>
308

> <Probability>
0.03

> <Sum Probability>
99.50

> <Delta G>
3.783

> <G>
27.493

> <E>
-5.512

> <-TS>
33.005

> <U+W>
-26.974

> <U>
27.041

> <W>
-54.015

> <W(PB)>
-56.287

> <W(SA)>
2.272

> <Valence>
5.411

> <Coulomb>
21.046

> <VdW>
0.584

> <VdW6>
-8.849

> <VdW12>
9.433

> <Bond>
0.257

> <Angle>
1.922

> <Pdih>
3.232

> <Idih>
0.000

> <Tether>
0.000

$$$$
VeraChem MOL file


 26 25  0  0  0  0  0  0  0  0999 V2000     
   20.4284   17.6844   20.3102 C   0  0  0  0  0  0  0  0  0  0  0  0
   19.9406   16.9149   19.6979 H   0  0  0  0  0  0  0  0  0  0  0  0
   21.4322   17.8503   19.8980 H   0  0  0  0  0  0  0  0  0  0  0  0
   20.5413   17.2794   21.3216 H   0  0  0  0  0  0  0  0  0  0  0  0
   19.6019   18.9915   20.2936 C   0  0  0  0  0  0  0  0  0  0  0  0
   18.5811   18.8025   20.6539 H   0  0  0  0  0  0  0  0  0  0  0  0
   19.4983   19.3117   19.2474 H   0  0  0  0  0  0  0  0  0  0  0  0
   20.2527   20.1457   21.0990 C   0  0  0  0  0  0  0  0  0  0  0  0
   21.3476   20.0570   21.0740 H   0  0  0  0  0  0  0  0  0  0  0  0
   20.0215   21.0904   20.5876 H   0  0  0  0  0  0  0  0  0  0  0  0
   19.7595   20.2770   22.5632 C   0  0  0  0  0  0  0  0  0  0  0  0
   18.6771   20.4619   22.5587 H   0  0  0  0  0  0  0  0  0  0  0  0
   20.2232   21.1706   23.0037 H   0  0  0  0  0  0  0  0  0  0  0  0
   20.0815   19.0527   23.4558 C   0  0  0  0  0  0  0  0  0  0  0  0
   19.4802   18.1923   23.1365 H   0  0  0  0  0  0  0  0  0  0  0  0
   21.1346   18.7789   23.3099 H   0  0  0  0  0  0  0  0  0  0  0  0
   19.8438   19.3056   24.9619 C   0  0  1  0  0  0  0  0  0  0  0  0
   20.4211   20.1874   25.2568 H   0  0  0  0  0  0  0  0  0  0  0  0
   18.3601   19.5673   25.2774 C   0  0  0  0  0  0  0  0  0  0  0  0
   17.7306   18.7321   24.9462 H   0  0  0  0  0  0  0  0  0  0  0  0
   18.0040   20.4813   24.7882 H   0  0  0  0  0  0  0  0  0  0  0  0
   18.2118   19.6980   26.3564 H   0  0  0  0  0  0  0  0  0  0  0  0
   20.3601   18.1637   25.7928 N   0  3  0  0  0  0  0  0  0  0  0  0
   21.3579   18.0000   25.6307 H   0  0  0  0  0  0  0  0  0  0  0  0
   20.2407   18.3455   26.7934 H   0  0  0  0  0  0  0  0  0  0  0  0
   19.8668   17.2926   25.5800 H   0  0  0  0  0  0  0  0  0  0  0  0
  1  2  1  0  0  0  0
  1  3  1  0  0  0  0
  1  4  1  0  0  0  0
  1  5  1  0  0  0  0
  5  6  1  0  0  0  0
  5  7  1  0  0  0  0
  5  8  1  0  0  0  0
  8  9  1  0  0  0  0
  8 10  1  0  0  0  0
  8 11  1  0  0  0  0
 11 12  1  0  0  0  0
 11 13  1  0  0  0  0
 11 14  1  0  0  0  0
 14 15  1  0  0  0  0
 14 16  1  0  0  0  0
 14 17  1  0  0  0  0
 17 18  1  0  0  0  0
 17 19  1  0  0  0  0
 19 20  1  0  0  0  0
 19 21  1  0  0  0  0
 19 22  1  0  0  0  0
 17 23  1  0  0  0  0
 23 24  1  0  0  0  0
 23 25  1  0  0  0  0
 23 26  1  0  0  0  0
M  END
> <VM2 Rank>
52

> <Conf_Id>
504

> <Probability>
0.03

> <Sum Probability>
99.53

> <Delta G>
3.785

> <G>
27.495

> <E>
-5.432

> <-TS>
32.927

> <U+W>
-26.894

> <U>
27.268

> <W>
-54.162

> <W(PB)>
-56.431

> <W(SA)>
2.270

> <Valence>
6.201

> <Coulomb>
19.968

> <VdW>
1.099

> <VdW6>
-8.560

> <VdW12>
9.659

> <Bond>
0.266

> <Angle>
1.902

> <Pdih>
4.033

> <Idih>
0.000

> <Tether>
0.000

$$$$
VeraChem MOL file


 26 25  0  0  0  0  0  0  0  0999 V2000     
   21.1401   19.2454   19.7807 C   0  0  0  0  0  0  0  0  0  0  0  0
   21.2859   19.2292   18.6929 H   0  0  0  0  0  0  0  0  0  0  0  0
   21.6197   20.1528   20.1702 H   0  0  0  0  0  0  0  0  0  0  0  0
   21.6620   18.3746   20.1965 H   0  0  0  0  0  0  0  0  0  0  0  0
   19.6335   19.2215   20.1249 C   0  0  0  0  0  0  0  0  0  0  0  0
   19.1830   18.2930   19.7473 H   0  0  0  0  0  0  0  0  0  0  0  0
   19.1351   20.0435   19.5923 H   0  0  0  0  0  0  0  0  0  0  0  0
   19.3478   19.3646   21.6391 C   0  0  0  0  0  0  0  0  0  0  0  0
   19.7789   20.3092   21.9960 H   0  0  0  0  0  0  0  0  0  0  0  0
   18.2611   19.4383   21.7832 H   0  0  0  0  0  0  0  0  0  0  0  0
   19.8922   18.1837   22.4799 C   0  0  0  0  0  0  0  0  0  0  0  0
   20.9898   18.1771   22.4453 H   0  0  0  0  0  0  0  0  0  0  0  0
   19.5634   17.2392   22.0248 H   0  0  0  0  0  0  0  0  0  0  0  0
   19.4362   18.1985   23.9612 C   0  0  0  0  0  0  0  0  0  0  0  0
   18.3421   18.1250   24.0214 H   0  0  0  0  0  0  0  0  0  0  0  0
   19.8197   17.2824   24.4297 H   0  0  0  0  0  0  0  0  0  0  0  0
   19.9418   19.4251   24.7593 C   0  0  1  0  0  0  0  0  0  0  0  0
   20.8023   19.8459   24.2300 H   0  0  0  0  0  0  0  0  0  0  0  0
   18.8576   20.5113   24.8835 C   0  0  0  0  0  0  0  0  0  0  0  0
   17.9925   20.1428   25.4489 H   0  0  0  0  0  0  0  0  0  0  0  0
   18.5019   20.8409   23.9014 H   0  0  0  0  0  0  0  0  0  0  0  0
   19.2520   21.3924   25.4044 H   0  0  0  0  0  0  0  0  0  0  0  0
   20.4388   19.0380   26.1253 N   0  3  0  0  0  0  0  0  0  0  0  0
   20.8010   19.8488   26.6352 H   0  0  0  0  0  0  0  0  0  0  0  0
   19.6921   18.6289   26.6934 H   0  0  0  0  0  0  0  0  0  0  0  0
   21.1959   18.3507   26.0701 H   0  0  0  0  0  0  0  0  0  0  0  0
  1  2  1  0  0  0  0
  1  3  1  0  0  0  0
  1  4  1  0  0  0  0
  1  5  1  0  0  0  0
  5  6  1  0  0  0  0
  5  7  1  0  0  0  0
  5  8  1  0  0  0  0
  8  9  1  0  0  0  0
  8 10  1  0  0  0  0
  8 11  1  0  0  0  0
 11 12  1  0  0  0  0
 11 13  1  0  0  0  0
 11 14  1  0  0  0  0
 14 15  1  0  0  0  0
 14 16  1  0  0  0  0
 14 17  1  0  0  0  0
 17 18  1  0  0  0  0
 17 19  1  0  0  0  0
 19 20  1  0  0  0  0
 19 21  1  0  0  0  0
 19 22  1  0  0  0  0
 17 23  1  0  0  0  0
 23 24  1  0  0  0  0
 23 25  1  0  0  0  0
 23 26  1  0  0  0  0
M  END
> <VM2 Rank>
53

> <Conf_Id>
1279

> <Probability>
0.03

> <Sum Probability>
99.56

> <Delta G>
3.790

> <G>
27.500

> <E>
-5.331

> <-TS>
32.831

> <U+W>
-26.793

> <U>
27.317

> <W>
-54.110

> <W(PB)>
-56.371

> <W(SA)>
2.261

> <Valence>
6.336

> <Coulomb>
19.872

> <VdW>
1.109

> <VdW6>
-8.501

> <VdW12>
9.610

> <Bond>
0.243

> <Angle>
1.597

> <Pdih>
4.496

> <Idih>
0.000

> <Tether>
0.000

$$$$
VeraChem MOL file


 26 25  0  0  0  0  0  0  0  0999 V2000     
   20.0267   18.6008   19.3449 C   0  0  0  0  0  0  0  0  0  0  0  0
   19.1870   19.3063   19.3555 H   0  0  0  0  0  0  0  0  0  0  0  0
   20.4995   18.6682   18.3566 H   0  0  0  0  0  0  0  0  0  0  0  0
   19.6247   17.5853   19.4552 H   0  0  0  0  0  0  0  0  0  0  0  0
   21.0533   18.9162   20.4569 C   0  0  0  0  0  0  0  0  0  0  0  0
   21.4155   19.9480   20.3463 H   0  0  0  0  0  0  0  0  0  0  0  0
   21.9294   18.2672   20.3184 H   0  0  0  0  0  0  0  0  0  0  0  0
   20.5021   18.7032   21.8878 C   0  0  0  0  0  0  0  0  0  0  0  0
   20.1144   17.6795   21.9815 H   0  0  0  0  0  0  0  0  0  0  0  0
   21.3465   18.7920   22.5815 H   0  0  0  0  0  0  0  0  0  0  0  0
   19.4054   19.7239   22.2839 C   0  0  0  0  0  0  0  0  0  0  0  0
   18.6190   19.7270   21.5188 H   0  0  0  0  0  0  0  0  0  0  0  0
   19.8325   20.7362   22.2853 H   0  0  0  0  0  0  0  0  0  0  0  0
   18.7230   19.4503   23.6504 C   0  0  0  0  0  0  0  0  0  0  0  0
   17.9078   20.1790   23.7531 H   0  0  0  0  0  0  0  0  0  0  0  0
   18.2414   18.4635   23.6422 H   0  0  0  0  0  0  0  0  0  0  0  0
   19.6537   19.5733   24.8804 C   0  0  1  0  0  0  0  0  0  0  0  0
   20.3422   20.4068   24.7108 H   0  0  0  0  0  0  0  0  0  0  0  0
   18.8333   19.8771   26.1451 C   0  0  0  0  0  0  0  0  0  0  0  0
   18.2789   20.8175   26.0351 H   0  0  0  0  0  0  0  0  0  0  0  0
   19.4891   19.9805   27.0185 H   0  0  0  0  0  0  0  0  0  0  0  0
   18.1118   19.0767   26.3519 H   0  0  0  0  0  0  0  0  0  0  0  0
   20.4905   18.3431   25.1046 N   0  3  0  0  0  0  0  0  0  0  0  0
   21.0558   18.1187   24.2829 H   0  0  0  0  0  0  0  0  0  0  0  0
   21.1296   18.4648   25.8953 H   0  0  0  0  0  0  0  0  0  0  0  0
   19.9057   17.5281   25.3074 H   0  0  0  0  0  0  0  0  0  0  0  0
  1  2  1  0  0  0  0
  1  3  1  0  0  0  0
  1  4  1  0  0  0  0
  1  5  1  0  0  0  0
  5  6  1  0  0  0  0
  5  7  1  0  0  0  0
  5  8  1  0  0  0  0
  8  9  1  0  0  0  0
  8 10  1  0  0  0  0
  8 11  1  0  0  0  0
 11 12  1  0  0  0  0
 11 13  1  0  0  0  0
 11 14  1  0  0  0  0
 14 15  1  0  0  0  0
 14 16  1  0  0  0  0
 14 17  1  0  0  0  0
 17 18  1  0  0  0  0
 17 19  1  0  0  0  0
 19 20  1  0  0  0  0
 19 21  1  0  0  0  0
 19 22  1  0  0  0  0
 17 23  1  0  0  0  0
 23 24  1  0  0  0  0
 23 25  1  0  0  0  0
 23 26  1  0  0  0  0
M  END
> <VM2 Rank>
54

> <Conf_Id>
864

> <Probability>
0.03

> <Sum Probability>
99.59

> <Delta G>
3.793

> <G>
27.503

> <E>
-5.080

> <-TS>
32.583

> <U+W>
-26.541

> <U>
27.399

> <W>
-53.941

> <W(PB)>
-56.244

> <W(SA)>
2.303

> <Valence>
5.205

> <Coulomb>
21.096

> <VdW>
1.098

> <VdW6>
-8.389

> <VdW12>
9.487

> <Bond>
0.270

> <Angle>
1.912

> <Pdih>
3.023

> <Idih>
0.000

> <Tether>
0.000

$$$$
VeraChem MOL file


 26 25  0  0  0  0  0  0  0  0999 V2000     
   19.8849   20.0811   19.7709 C   0  0  0  0  0  0  0  0  0  0  0  0
   20.0015   20.2233   18.6887 H   0  0  0  0  0  0  0  0  0  0  0  0
   18.9213   20.5172   20.0646 H   0  0  0  0  0  0  0  0  0  0  0  0
   20.6839   20.6475   20.2651 H   0  0  0  0  0  0  0  0  0  0  0  0
   19.9473   18.5787   20.1283 C   0  0  0  0  0  0  0  0  0  0  0  0
   20.9304   18.1724   19.8525 H   0  0  0  0  0  0  0  0  0  0  0  0
   19.2097   18.0396   19.5175 H   0  0  0  0  0  0  0  0  0  0  0  0
   19.6600   18.2908   21.6215 C   0  0  0  0  0  0  0  0  0  0  0  0
   18.6718   18.6887   21.8814 H   0  0  0  0  0  0  0  0  0  0  0  0
   19.5948   17.2025   21.7577 H   0  0  0  0  0  0  0  0  0  0  0  0
   20.7469   18.8504   22.5759 C   0  0  0  0  0  0  0  0  0  0  0  0
   20.8508   19.9370   22.4600 H   0  0  0  0  0  0  0  0  0  0  0  0
   21.7138   18.4203   22.2801 H   0  0  0  0  0  0  0  0  0  0  0  0
   20.4918   18.5064   24.0676 C   0  0  0  0  0  0  0  0  0  0  0  0
   19.9187   17.5736   24.1519 H   0  0  0  0  0  0  0  0  0  0  0  0
   21.4642   18.3022   24.5349 H   0  0  0  0  0  0  0  0  0  0  0  0
   19.8094   19.6286   24.8868 C   0  0  1  0  0  0  0  0  0  0  0  0
   20.4365   20.5234   24.8254 H   0  0  0  0  0  0  0  0  0  0  0  0
   18.4102   19.9881   24.3592 C   0  0  0  0  0  0  0  0  0  0  0  0
   17.9267   20.7234   25.0141 H   0  0  0  0  0  0  0  0  0  0  0  0
   17.7650   19.1024   24.3066 H   0  0  0  0  0  0  0  0  0  0  0  0
   18.4701   20.4371   23.3611 H   0  0  0  0  0  0  0  0  0  0  0  0
   19.7374   19.2639   26.3438 N   0  3  0  0  0  0  0  0  0  0  0  0
   19.3312   20.0218   26.8995 H   0  0  0  0  0  0  0  0  0  0  0  0
   19.1596   18.4325   26.4932 H   0  0  0  0  0  0  0  0  0  0  0  0
   20.6652   19.0672   26.7300 H   0  0  0  0  0  0  0  0  0  0  0  0
  1  2  1  0  0  0  0
  1  3  1  0  0  0  0
  1  4  1  0  0  0  0
  1  5  1  0  0  0  0
  5  6  1  0  0  0  0
  5  7  1  0  0  0  0
  5  8  1  0  0  0  0
  8  9  1  0  0  0  0
  8 10  1  0  0  0  0
  8 11  1  0  0  0  0
 11 12  1  0  0  0  0
 11 13  1  0  0  0  0
 11 14  1  0  0  0  0
 14 15  1  0  0  0  0
 14 16  1  0  0  0  0
 14 17  1  0  0  0  0
 17 18  1  0  0  0  0
 17 19  1  0  0  0  0
 19 20  1  0  0  0  0
 19 21  1  0  0  0  0
 19 22  1  0  0  0  0
 17 23  1  0  0  0  0
 23 24  1  0  0  0  0
 23 25  1  0  0  0  0
 23 26  1  0  0  0  0
M  END
> <VM2 Rank>
55

> <Conf_Id>
783

> <Probability>
0.03

> <Sum Probability>
99.62

> <Delta G>
3.823

> <G>
27.532

> <E>
-5.392

> <-TS>
32.925

> <U+W>
-26.854

> <U>
27.193

> <W>
-54.047

> <W(PB)>
-56.289

> <W(SA)>
2.242

> <Valence>
6.324

> <Coulomb>
19.778

> <VdW>
1.091

> <VdW6>
-8.627

> <VdW12>
9.718

> <Bond>
0.275

> <Angle>
1.904

> <Pdih>
4.144

> <Idih>
0.000

> <Tether>
0.000

$$$$
VeraChem MOL file


 26 25  0  0  0  0  0  0  0  0999 V2000     
   20.0422   17.6614   20.2047 C   0  0  0  0  0  0  0  0  0  0  0  0
   20.2349   17.2702   19.1973 H   0  0  0  0  0  0  0  0  0  0  0  0
   20.8342   17.2820   20.8619 H   0  0  0  0  0  0  0  0  0  0  0  0
   19.0838   17.2496   20.5467 H   0  0  0  0  0  0  0  0  0  0  0  0
   20.0087   19.2066   20.1869 C   0  0  0  0  0  0  0  0  0  0  0  0
   19.2887   19.5355   19.4246 H   0  0  0  0  0  0  0  0  0  0  0  0
   20.9876   19.5949   19.8727 H   0  0  0  0  0  0  0  0  0  0  0  0
   19.6092   19.8276   21.5471 C   0  0  0  0  0  0  0  0  0  0  0  0
   19.4878   20.9109   21.4102 H   0  0  0  0  0  0  0  0  0  0  0  0
   18.6244   19.4455   21.8400 H   0  0  0  0  0  0  0  0  0  0  0  0
   20.6521   19.5765   22.6671 C   0  0  0  0  0  0  0  0  0  0  0  0
   21.6211   19.9604   22.3195 H   0  0  0  0  0  0  0  0  0  0  0  0
   20.7949   18.5016   22.8297 H   0  0  0  0  0  0  0  0  0  0  0  0
   20.3025   20.2811   24.0080 C   0  0  0  0  0  0  0  0  0  0  0  0
   21.2385   20.6112   24.4775 H   0  0  0  0  0  0  0  0  0  0  0  0
   19.7388   21.2025   23.8111 H   0  0  0  0  0  0  0  0  0  0  0  0
   19.5390   19.4247   25.0489 C   0  0  1  0  0  0  0  0  0  0  0  0
   19.3576   20.0640   25.9185 H   0  0  0  0  0  0  0  0  0  0  0  0
   18.1720   18.9400   24.5398 C   0  0  0  0  0  0  0  0  0  0  0  0
   17.5804   19.7778   24.1507 H   0  0  0  0  0  0  0  0  0  0  0  0
   17.6009   18.4804   25.3557 H   0  0  0  0  0  0  0  0  0  0  0  0
   18.2814   18.1908   23.7467 H   0  0  0  0  0  0  0  0  0  0  0  0
   20.3622   18.2701   25.5515 N   0  3  0  0  0  0  0  0  0  0  0  0
   20.5744   17.6090   24.8005 H   0  0  0  0  0  0  0  0  0  0  0  0
   21.2532   18.5869   25.9443 H   0  0  0  0  0  0  0  0  0  0  0  0
   19.8713   17.7530   26.2863 H   0  0  0  0  0  0  0  0  0  0  0  0
  1  2  1  0  0  0  0
  1  3  1  0  0  0  0
  1  4  1  0  0  0  0
  1  5  1  0  0  0  0
  5  6  1  0  0  0  0
  5  7  1  0  0  0  0
  5  8  1  0  0  0  0
  8  9  1  0  0  0  0
  8 10  1  0  0  0  0
  8 11  1  0  0  0  0
 11 12  1  0  0  0  0
 11 13  1  0  0  0  0
 11 14  1  0  0  0  0
 14 15  1  0  0  0  0
 14 16  1  0  0  0  0
 14 17  1  0  0  0  0
 17 18  1  0  0  0  0
 17 19  1  0  0  0  0
 19 20  1  0  0  0  0
 19 21  1  0  0  0  0
 19 22  1  0  0  0  0
 17 23  1  0  0  0  0
 23 24  1  0  0  0  0
 23 25  1  0  0  0  0
 23 26  1  0  0  0  0
M  END
> <VM2 Rank>
56

> <Conf_Id>
530

> <Probability>
0.03

> <Sum Probability>
99.64

> <Delta G>
3.836

> <G>
27.546

> <E>
-5.435

> <-TS>
32.980

> <U+W>
-26.896

> <U>
27.552

> <W>
-54.449

> <W(PB)>
-56.689

> <W(SA)>
2.240

> <Valence>
6.310

> <Coulomb>
20.199

> <VdW>
1.044

> <VdW6>
-9.081

> <VdW12>
10.124

> <Bond>
0.308

> <Angle>
2.043

> <Pdih>
3.958

> <Idih>
0.000

> <Tether>
0.000

$$$$
VeraChem MOL file


 26 25  0  0  0  0  0  0  0  0999 V2000     
   19.1312   19.7161   20.1965 C   0  0  0  0  0  0  0  0  0  0  0  0
   18.5561   19.7184   19.2616 H   0  0  0  0  0  0  0  0  0  0  0  0
   18.4112   19.6886   21.0237 H   0  0  0  0  0  0  0  0  0  0  0  0
   19.6902   20.6593   20.2492 H   0  0  0  0  0  0  0  0  0  0  0  0
   20.0832   18.5010   20.2410 C   0  0  0  0  0  0  0  0  0  0  0  0
   20.6709   18.4795   19.3127 H   0  0  0  0  0  0  0  0  0  0  0  0
   19.4912   17.5751   20.2474 H   0  0  0  0  0  0  0  0  0  0  0  0
   21.0621   18.4996   21.4430 C   0  0  0  0  0  0  0  0  0  0  0  0
   21.7096   17.6177   21.3403 H   0  0  0  0  0  0  0  0  0  0  0  0
   21.7334   19.3673   21.3840 H   0  0  0  0  0  0  0  0  0  0  0  0
   20.3789   18.4387   22.8342 C   0  0  0  0  0  0  0  0  0  0  0  0
   21.0044   17.8242   23.4950 H   0  0  0  0  0  0  0  0  0  0  0  0
   19.4186   17.9142   22.7478 H   0  0  0  0  0  0  0  0  0  0  0  0
   20.1945   19.8372   23.4864 C   0  0  0  0  0  0  0  0  0  0  0  0
   21.1784   20.3123   23.5937 H   0  0  0  0  0  0  0  0  0  0  0  0
   19.6207   20.4930   22.8222 H   0  0  0  0  0  0  0  0  0  0  0  0
   19.5082   19.8231   24.8727 C   0  0  1  0  0  0  0  0  0  0  0  0
   19.4946   20.8546   25.2383 H   0  0  0  0  0  0  0  0  0  0  0  0
   18.0490   19.3418   24.7893 C   0  0  0  0  0  0  0  0  0  0  0  0
   17.4899   19.9191   24.0424 H   0  0  0  0  0  0  0  0  0  0  0  0
   17.5463   19.4736   25.7552 H   0  0  0  0  0  0  0  0  0  0  0  0
   17.9853   18.2806   24.5216 H   0  0  0  0  0  0  0  0  0  0  0  0
   20.2809   19.0305   25.8910 N   0  3  0  0  0  0  0  0  0  0  0  0
   21.2410   19.3739   25.9844 H   0  0  0  0  0  0  0  0  0  0  0  0
   19.8455   19.0845   26.8161 H   0  0  0  0  0  0  0  0  0  0  0  0
   20.3306   18.0421   25.6325 H   0  0  0  0  0  0  0  0  0  0  0  0
  1  2  1  0  0  0  0
  1  3  1  0  0  0  0
  1  4  1  0  0  0  0
  1  5  1  0  0  0  0
  5  6  1  0  0  0  0
  5  7  1  0  0  0  0
  5  8  1  0  0  0  0
  8  9  1  0  0  0  0
  8 10  1  0  0  0  0
  8 11  1  0  0  0  0
 11 12  1  0  0  0  0
 11 13  1  0  0  0  0
 11 14  1  0  0  0  0
 14 15  1  0  0  0  0
 14 16  1  0  0  0  0
 14 17  1  0  0  0  0
 17 18  1  0  0  0  0
 17 19  1  0  0  0  0
 19 20  1  0  0  0  0
 19 21  1  0  0  0  0
 19 22  1  0  0  0  0
 17 23  1  0  0  0  0
 23 24  1  0  0  0  0
 23 25  1  0  0  0  0
 23 26  1  0  0  0  0
M  END
> <VM2 Rank>
57

> <Conf_Id>
1247

> <Probability>
0.03

> <Sum Probability>
99.67

> <Delta G>
3.880

> <G>
27.590

> <E>
-5.459

> <-TS>
33.049

> <U+W>
-26.921

> <U>
27.276

> <W>
-54.197

> <W(PB)>
-56.420

> <W(SA)>
2.223

> <Valence>
6.240

> <Coulomb>
19.962

> <VdW>
1.074

> <VdW6>
-9.126

> <VdW12>
10.201

> <Bond>
0.305

> <Angle>
1.933

> <Pdih>
4.002

> <Idih>
0.000

> <Tether>
0.000

$$$$
VeraChem MOL file


 26 25  0  0  0  0  0  0  0  0999 V2000     
   21.3204   18.3496   20.5399 C   0  0  0  0  0  0  0  0  0  0  0  0
   20.9828   17.3286   20.7601 H   0  0  0  0  0  0  0  0  0  0  0  0
   22.0908   18.2874   19.7605 H   0  0  0  0  0  0  0  0  0  0  0  0
   21.7958   18.7627   21.4382 H   0  0  0  0  0  0  0  0  0  0  0  0
   20.1463   19.2351   20.0684 C   0  0  0  0  0  0  0  0  0  0  0  0
   19.8039   18.8737   19.0887 H   0  0  0  0  0  0  0  0  0  0  0  0
   20.5064   20.2605   19.9050 H   0  0  0  0  0  0  0  0  0  0  0  0
   18.9350   19.2583   21.0353 C   0  0  0  0  0  0  0  0  0  0  0  0
   18.1525   19.8734   20.5696 H   0  0  0  0  0  0  0  0  0  0  0  0
   18.5045   18.2516   21.1267 H   0  0  0  0  0  0  0  0  0  0  0  0
   19.2392   19.8440   22.4390 C   0  0  0  0  0  0  0  0  0  0  0  0
   18.3584   20.4109   22.7681 H   0  0  0  0  0  0  0  0  0  0  0  0
   20.0628   20.5684   22.3737 H   0  0  0  0  0  0  0  0  0  0  0  0
   19.5565   18.7583   23.5006 C   0  0  0  0  0  0  0  0  0  0  0  0
   18.6689   18.1318   23.6601 H   0  0  0  0  0  0  0  0  0  0  0  0
   20.3354   18.0900   23.1174 H   0  0  0  0  0  0  0  0  0  0  0  0
   20.0336   19.3338   24.8538 C   0  0  1  0  0  0  0  0  0  0  0  0
   20.8956   19.9812   24.6657 H   0  0  0  0  0  0  0  0  0  0  0  0
   18.9416   20.1671   25.5486 C   0  0  0  0  0  0  0  0  0  0  0  0
   19.2882   20.5179   26.5284 H   0  0  0  0  0  0  0  0  0  0  0  0
   18.0293   19.5772   25.7017 H   0  0  0  0  0  0  0  0  0  0  0  0
   18.6827   21.0550   24.9603 H   0  0  0  0  0  0  0  0  0  0  0  0
   20.5154   18.2418   25.7684 N   0  3  0  0  0  0  0  0  0  0  0  0
   19.7631   17.5872   25.9986 H   0  0  0  0  0  0  0  0  0  0  0  0
   21.2746   17.7013   25.3440 H   0  0  0  0  0  0  0  0  0  0  0  0
   20.8695   18.6221   26.6507 H   0  0  0  0  0  0  0  0  0  0  0  0
  1  2  1  0  0  0  0
  1  3  1  0  0  0  0
  1  4  1  0  0  0  0
  1  5  1  0  0  0  0
  5  6  1  0  0  0  0
  5  7  1  0  0  0  0
  5  8  1  0  0  0  0
  8  9  1  0  0  0  0
  8 10  1  0  0  0  0
  8 11  1  0  0  0  0
 11 12  1  0  0  0  0
 11 13  1  0  0  0  0
 11 14  1  0  0  0  0
 14 15  1  0  0  0  0
 14 16  1  0  0  0  0
 14 17  1  0  0  0  0
 17 18  1  0  0  0  0
 17 19  1  0  0  0  0
 19 20  1  0  0  0  0
 19 21  1  0  0  0  0
 19 22  1  0  0  0  0
 17 23  1  0  0  0  0
 23 24  1  0  0  0  0
 23 25  1  0  0  0  0
 23 26  1  0  0  0  0
M  END
> <VM2 Rank>
58

> <Conf_Id>
158

> <Probability>
0.03

> <Sum Probability>
99.69

> <Delta G>
3.882

> <G>
27.591

> <E>
-5.381

> <-TS>
32.973

> <U+W>
-26.843

> <U>
27.458

> <W>
-54.301

> <W(PB)>
-56.574

> <W(SA)>
2.272

> <Valence>
6.292

> <Coulomb>
20.019

> <VdW>
1.147

> <VdW6>
-8.552

> <VdW12>
9.700

> <Bond>
0.273

> <Angle>
1.838

> <Pdih>
4.180

> <Idih>
0.000

> <Tether>
0.000

$$$$
VeraChem MOL file


 26 25  0  0  0  0  0  0  0  0999 V2000     
   19.8014   20.4161   20.7482 C   0  0  0  0  0  0  0  0  0  0  0  0
   20.7046   20.9869   21.0002 H   0  0  0  0  0  0  0  0  0  0  0  0
   19.3795   20.8502   19.8325 H   0  0  0  0  0  0  0  0  0  0  0  0
   19.0682   20.5663   21.5470 H   0  0  0  0  0  0  0  0  0  0  0  0
   20.1317   18.9211   20.5305 C   0  0  0  0  0  0  0  0  0  0  0  0
   20.7843   18.8480   19.6492 H   0  0  0  0  0  0  0  0  0  0  0  0
   19.2201   18.3622   20.2772 H   0  0  0  0  0  0  0  0  0  0  0  0
   20.8575   18.2547   21.7280 C   0  0  0  0  0  0  0  0  0  0  0  0
   21.5170   17.4736   21.3249 H   0  0  0  0  0  0  0  0  0  0  0  0
   21.5276   18.9741   22.2169 H   0  0  0  0  0  0  0  0  0  0  0  0
   19.9246   17.5728   22.7654 C   0  0  0  0  0  0  0  0  0  0  0  0
   20.5453   17.0258   23.4876 H   0  0  0  0  0  0  0  0  0  0  0  0
   19.3259   16.8054   22.2559 H   0  0  0  0  0  0  0  0  0  0  0  0
   18.9680   18.5180   23.5365 C   0  0  0  0  0  0  0  0  0  0  0  0
   18.2204   18.9174   22.8405 H   0  0  0  0  0  0  0  0  0  0  0  0
   18.4033   17.9290   24.2713 H   0  0  0  0  0  0  0  0  0  0  0  0
   19.6808   19.6826   24.2593 C   0  0  1  0  0  0  0  0  0  0  0  0
   20.2467   20.2531   23.5171 H   0  0  0  0  0  0  0  0  0  0  0  0
   18.6511   20.6233   24.9046 C   0  0  0  0  0  0  0  0  0  0  0  0
   18.0567   20.1003   25.6642 H   0  0  0  0  0  0  0  0  0  0  0  0
   17.9636   21.0251   24.1499 H   0  0  0  0  0  0  0  0  0  0  0  0
   19.1500   21.4732   25.3863 H   0  0  0  0  0  0  0  0  0  0  0  0
   20.6729   19.1994   25.2814 N   0  3  0  0  0  0  0  0  0  0  0  0
   21.1596   19.9803   25.7306 H   0  0  0  0  0  0  0  0  0  0  0  0
   20.2144   18.6586   26.0193 H   0  0  0  0  0  0  0  0  0  0  0  0
   21.3829   18.5985   24.8544 H   0  0  0  0  0  0  0  0  0  0  0  0
  1  2  1  0  0  0  0
  1  3  1  0  0  0  0
  1  4  1  0  0  0  0
  1  5  1  0  0  0  0
  5  6  1  0  0  0  0
  5  7  1  0  0  0  0
  5  8  1  0  0  0  0
  8  9  1  0  0  0  0
  8 10  1  0  0  0  0
  8 11  1  0  0  0  0
 11 12  1  0  0  0  0
 11 13  1  0  0  0  0
 11 14  1  0  0  0  0
 14 15  1  0  0  0  0
 14 16  1  0  0  0  0
 14 17  1  0  0  0  0
 17 18  1  0  0  0  0
 17 19  1  0  0  0  0
 19 20  1  0  0  0  0
 19 21  1  0  0  0  0
 19 22  1  0  0  0  0
 17 23  1  0  0  0  0
 23 24  1  0  0  0  0
 23 25  1  0  0  0  0
 23 26  1  0  0  0  0
M  END
> <VM2 Rank>
59

> <Conf_Id>
537

> <Probability>
0.02

> <Sum Probability>
99.72

> <Delta G>
3.940

> <G>
27.650

> <E>
-5.738

> <-TS>
33.388

> <U+W>
-27.200

> <U>
26.996

> <W>
-54.197

> <W(PB)>
-56.396

> <W(SA)>
2.199

> <Valence>
6.014

> <Coulomb>
20.609

> <VdW>
0.374

> <VdW6>
-10.069

> <VdW12>
10.443

> <Bond>
0.292

> <Angle>
2.200

> <Pdih>
3.522

> <Idih>
0.000

> <Tether>
0.000

$$$$
VeraChem MOL file


 26 25  0  0  0  0  0  0  0  0999 V2000     
   20.6248   19.9520   19.9725 C   0  0  0  0  0  0  0  0  0  0  0  0
   20.2540   20.6060   19.1727 H   0  0  0  0  0  0  0  0  0  0  0  0
   20.8600   20.5847   20.8352 H   0  0  0  0  0  0  0  0  0  0  0  0
   21.5602   19.4964   19.6226 H   0  0  0  0  0  0  0  0  0  0  0  0
   19.5764   18.8672   20.3131 C   0  0  0  0  0  0  0  0  0  0  0  0
   19.3707   18.2969   19.3964 H   0  0  0  0  0  0  0  0  0  0  0  0
   18.6231   19.3334   20.5986 H   0  0  0  0  0  0  0  0  0  0  0  0
   20.0449   17.8799   21.4130 C   0  0  0  0  0  0  0  0  0  0  0  0
   19.6422   16.8861   21.1728 H   0  0  0  0  0  0  0  0  0  0  0  0
   21.1378   17.7699   21.3851 H   0  0  0  0  0  0  0  0  0  0  0  0
   19.5801   18.2354   22.8489 C   0  0  0  0  0  0  0  0  0  0  0  0
   19.8994   17.4253   23.5172 H   0  0  0  0  0  0  0  0  0  0  0  0
   18.4823   18.2418   22.8761 H   0  0  0  0  0  0  0  0  0  0  0  0
   20.1265   19.5885   23.3764 C   0  0  0  0  0  0  0  0  0  0  0  0
   21.2103   19.6332   23.2077 H   0  0  0  0  0  0  0  0  0  0  0  0
   19.6883   20.4085   22.7942 H   0  0  0  0  0  0  0  0  0  0  0  0
   19.8505   19.8613   24.8740 C   0  0  1  0  0  0  0  0  0  0  0  0
   20.2808   20.8394   25.1107 H   0  0  0  0  0  0  0  0  0  0  0  0
   18.3441   19.9287   25.1804 C   0  0  0  0  0  0  0  0  0  0  0  0
   17.8605   18.9530   25.0513 H   0  0  0  0  0  0  0  0  0  0  0  0
   17.8443   20.6502   24.5223 H   0  0  0  0  0  0  0  0  0  0  0  0
   18.1770   20.2513   26.2154 H   0  0  0  0  0  0  0  0  0  0  0  0
   20.5407   18.8749   25.7757 N   0  3  0  0  0  0  0  0  0  0  0  0
   20.4001   19.1083   26.7627 H   0  0  0  0  0  0  0  0  0  0  0  0
   20.1855   17.9267   25.6314 H   0  0  0  0  0  0  0  0  0  0  0  0
   21.5505   18.8549   25.6074 H   0  0  0  0  0  0  0  0  0  0  0  0
  1  2  1  0  0  0  0
  1  3  1  0  0  0  0
  1  4  1  0  0  0  0
  1  5  1  0  0  0  0
  5  6  1  0  0  0  0
  5  7  1  0  0  0  0
  5  8  1  0  0  0  0
  8  9  1  0  0  0  0
  8 10  1  0  0  0  0
  8 11  1  0  0  0  0
 11 12  1  0  0  0  0
 11 13  1  0  0  0  0
 11 14  1  0  0  0  0
 14 15  1  0  0  0  0
 14 16  1  0  0  0  0
 14 17  1  0  0  0  0
 17 18  1  0  0  0  0
 17 19  1  0  0  0  0
 19 20  1  0  0  0  0
 19 21  1  0  0  0  0
 19 22  1  0  0  0  0
 17 23  1  0  0  0  0
 23 24  1  0  0  0  0
 23 25  1  0  0  0  0
 23 26  1  0  0  0  0
M  END
> <VM2 Rank>
60

> <Conf_Id>
117

> <Probability>
0.02

> <Sum Probability>
99.74

> <Delta G>
3.955

> <G>
27.664

> <E>
-5.396

> <-TS>
33.060

> <U+W>
-26.857

> <U>
27.313

> <W>
-54.170

> <W(PB)>
-56.414

> <W(SA)>
2.245

> <Valence>
6.229

> <Coulomb>
19.943

> <VdW>
1.140

> <VdW6>
-9.001

> <VdW12>
10.141

> <Bond>
0.294

> <Angle>
1.969

> <Pdih>
3.967

> <Idih>
0.000

> <Tether>
0.000

$$$$
VeraChem MOL file


 26 25  0  0  0  0  0  0  0  0999 V2000     
   19.0520   19.2650   19.6049 C   0  0  0  0  0  0  0  0  0  0  0  0
   18.4198   20.1057   19.9191 H   0  0  0  0  0  0  0  0  0  0  0  0
   19.8042   19.6466   18.9023 H   0  0  0  0  0  0  0  0  0  0  0  0
   18.4181   18.5503   19.0642 H   0  0  0  0  0  0  0  0  0  0  0  0
   19.7204   18.5892   20.8208 C   0  0  0  0  0  0  0  0  0  0  0  0
   20.3193   17.7339   20.4782 H   0  0  0  0  0  0  0  0  0  0  0  0
   18.9401   18.1839   21.4776 H   0  0  0  0  0  0  0  0  0  0  0  0
   20.6227   19.5776   21.5971 C   0  0  0  0  0  0  0  0  0  0  0  0
   21.3791   19.9774   20.9076 H   0  0  0  0  0  0  0  0  0  0  0  0
   20.0392   20.4441   21.9331 H   0  0  0  0  0  0  0  0  0  0  0  0
   21.3554   18.9298   22.7984 C   0  0  0  0  0  0  0  0  0  0  0  0
   22.0591   19.6624   23.2174 H   0  0  0  0  0  0  0  0  0  0  0  0
   21.9743   18.1007   22.4285 H   0  0  0  0  0  0  0  0  0  0  0  0
   20.4476   18.4029   23.9419 C   0  0  0  0  0  0  0  0  0  0  0  0
   19.7776   17.6138   23.5778 H   0  0  0  0  0  0  0  0  0  0  0  0
   21.1057   17.9088   24.6689 H   0  0  0  0  0  0  0  0  0  0  0  0
   19.6453   19.5099   24.6696 C   0  0  1  0  0  0  0  0  0  0  0  0
   20.1429   20.4678   24.4892 H   0  0  0  0  0  0  0  0  0  0  0  0
   18.1951   19.6023   24.1605 C   0  0  0  0  0  0  0  0  0  0  0  0
   17.6540   18.6639   24.3347 H   0  0  0  0  0  0  0  0  0  0  0  0
   18.1557   19.8216   23.0888 H   0  0  0  0  0  0  0  0  0  0  0  0
   17.6554   20.4049   24.6781 H   0  0  0  0  0  0  0  0  0  0  0  0
   19.6496   19.3113   26.1608 N   0  3  0  0  0  0  0  0  0  0  0  0
   19.1466   20.0637   26.6397 H   0  0  0  0  0  0  0  0  0  0  0  0
   19.2007   18.4294   26.4223 H   0  0  0  0  0  0  0  0  0  0  0  0
   20.6023   19.2957   26.5361 H   0  0  0  0  0  0  0  0  0  0  0  0
  1  2  1  0  0  0  0
  1  3  1  0  0  0  0
  1  4  1  0  0  0  0
  1  5  1  0  0  0  0
  5  6  1  0  0  0  0
  5  7  1  0  0  0  0
  5  8  1  0  0  0  0
  8  9  1  0  0  0  0
  8 10  1  0  0  0  0
  8 11  1  0  0  0  0
 11 12  1  0  0  0  0
 11 13  1  0  0  0  0
 11 14  1  0  0  0  0
 14 15  1  0  0  0  0
 14 16  1  0  0  0  0
 14 17  1  0  0  0  0
 17 18  1  0  0  0  0
 17 19  1  0  0  0  0
 19 20  1  0  0  0  0
 19 21  1  0  0  0  0
 19 22  1  0  0  0  0
 17 23  1  0  0  0  0
 23 24  1  0  0  0  0
 23 25  1  0  0  0  0
 23 26  1  0  0  0  0
M  END
> <VM2 Rank>
61

> <Conf_Id>
257

> <Probability>
0.02

> <Sum Probability>
99.76

> <Delta G>
3.972

> <G>
27.682

> <E>
-5.492

> <-TS>
33.175

> <U+W>
-26.954

> <U>
27.330

> <W>
-54.285

> <W(PB)>
-56.506

> <W(SA)>
2.221

> <Valence>
6.519

> <Coulomb>
20.042

> <VdW>
0.769

> <VdW6>
-9.039

> <VdW12>
9.808

> <Bond>
0.256

> <Angle>
1.988

> <Pdih>
4.275

> <Idih>
0.000

> <Tether>
0.000

$$$$
VeraChem MOL file


 26 25  0  0  0  0  0  0  0  0999 V2000     
   20.6575   18.8943   19.3745 C   0  0  0  0  0  0  0  0  0  0  0  0
   20.7175   19.3629   18.3836 H   0  0  0  0  0  0  0  0  0  0  0  0
   21.6404   19.0018   19.8498 H   0  0  0  0  0  0  0  0  0  0  0  0
   20.4604   17.8244   19.2285 H   0  0  0  0  0  0  0  0  0  0  0  0
   19.5436   19.5547   20.2183 C   0  0  0  0  0  0  0  0  0  0  0  0
   18.6049   19.5294   19.6474 H   0  0  0  0  0  0  0  0  0  0  0  0
   19.7794   20.6166   20.3749 H   0  0  0  0  0  0  0  0  0  0  0  0
   19.3133   18.8634   21.5838 C   0  0  0  0  0  0  0  0  0  0  0  0
   18.4377   19.3218   22.0588 H   0  0  0  0  0  0  0  0  0  0  0  0
   19.0510   17.8093   21.4188 H   0  0  0  0  0  0  0  0  0  0  0  0
   20.5378   18.9493   22.5311 C   0  0  0  0  0  0  0  0  0  0  0  0
   20.8990   19.9847   22.6001 H   0  0  0  0  0  0  0  0  0  0  0  0
   21.3598   18.3695   22.0908 H   0  0  0  0  0  0  0  0  0  0  0  0
   20.2568   18.3874   23.9501 C   0  0  0  0  0  0  0  0  0  0  0  0
   19.4641   17.6285   23.9095 H   0  0  0  0  0  0  0  0  0  0  0  0
   21.1589   17.8590   24.2858 H   0  0  0  0  0  0  0  0  0  0  0  0
   19.9203   19.4570   25.0171 C   0  0  1  0  0  0  0  0  0  0  0  0
   20.7516   20.1674   25.0597 H   0  0  0  0  0  0  0  0  0  0  0  0
   18.6369   20.2407   24.6938 C   0  0  0  0  0  0  0  0  0  0  0  0
   18.3937   20.9366   25.5061 H   0  0  0  0  0  0  0  0  0  0  0  0
   17.7828   19.5660   24.5563 H   0  0  0  0  0  0  0  0  0  0  0  0
   18.7598   20.8387   23.7834 H   0  0  0  0  0  0  0  0  0  0  0  0
   19.8218   18.8412   26.3853 N   0  3  0  0  0  0  0  0  0  0  0  0
   20.6850   18.3543   26.6432 H   0  0  0  0  0  0  0  0  0  0  0  0
   19.6468   19.5502   27.1030 H   0  0  0  0  0  0  0  0  0  0  0  0
   19.0585   18.1613   26.4357 H   0  0  0  0  0  0  0  0  0  0  0  0
  1  2  1  0  0  0  0
  1  3  1  0  0  0  0
  1  4  1  0  0  0  0
  1  5  1  0  0  0  0
  5  6  1  0  0  0  0
  5  7  1  0  0  0  0
  5  8  1  0  0  0  0
  8  9  1  0  0  0  0
  8 10  1  0  0  0  0
  8 11  1  0  0  0  0
 11 12  1  0  0  0  0
 11 13  1  0  0  0  0
 11 14  1  0  0  0  0
 14 15  1  0  0  0  0
 14 16  1  0  0  0  0
 14 17  1  0  0  0  0
 17 18  1  0  0  0  0
 17 19  1  0  0  0  0
 19 20  1  0  0  0  0
 19 21  1  0  0  0  0
 19 22  1  0  0  0  0
 17 23  1  0  0  0  0
 23 24  1  0  0  0  0
 23 25  1  0  0  0  0
 23 26  1  0  0  0  0
M  END
> <VM2 Rank>
62

> <Conf_Id>
546

> <Probability>
0.02

> <Sum Probability>
99.78

> <Delta G>
4.005

> <G>
27.715

> <E>
-5.269

> <-TS>
32.984

> <U+W>
-26.731

> <U>
27.221

> <W>
-53.952

> <W(PB)>
-56.214

> <W(SA)>
2.261

> <Valence>
6.368

> <Coulomb>
19.698

> <VdW>
1.155

> <VdW6>
-8.532

> <VdW12>
9.688

> <Bond>
0.272

> <Angle>
1.847

> <Pdih>
4.249

> <Idih>
0.000

> <Tether>
0.000

$$$$
VeraChem MOL file


 26 25  0  0  0  0  0  0  0  0999 V2000     
   20.0274   18.5896   19.3315 C   0  0  0  0  0  0  0  0  0  0  0  0
   20.4564   18.7624   18.3360 H   0  0  0  0  0  0  0  0  0  0  0  0
   20.3660   17.6021   19.6681 H   0  0  0  0  0  0  0  0  0  0  0  0
   18.9352   18.5619   19.2256 H   0  0  0  0  0  0  0  0  0  0  0  0
   20.4633   19.7055   20.3084 C   0  0  0  0  0  0  0  0  0  0  0  0
   20.2152   20.6792   19.8632 H   0  0  0  0  0  0  0  0  0  0  0  0
   21.5560   19.6905   20.4243 H   0  0  0  0  0  0  0  0  0  0  0  0
   19.7870   19.6102   21.6975 C   0  0  0  0  0  0  0  0  0  0  0  0
   20.0487   20.5145   22.2619 H   0  0  0  0  0  0  0  0  0  0  0  0
   18.6953   19.6203   21.5751 H   0  0  0  0  0  0  0  0  0  0  0  0
   20.2133   18.3599   22.5068 C   0  0  0  0  0  0  0  0  0  0  0  0
   21.3026   18.3715   22.6505 H   0  0  0  0  0  0  0  0  0  0  0  0
   19.9887   17.4542   21.9290 H   0  0  0  0  0  0  0  0  0  0  0  0
   19.5154   18.2313   23.8848 C   0  0  0  0  0  0  0  0  0  0  0  0
   18.4302   18.1315   23.7485 H   0  0  0  0  0  0  0  0  0  0  0  0
   19.8443   17.2841   24.3324 H   0  0  0  0  0  0  0  0  0  0  0  0
   19.8346   19.3919   24.8583 C   0  0  1  0  0  0  0  0  0  0  0  0
   20.7302   19.9054   24.4952 H   0  0  0  0  0  0  0  0  0  0  0  0
   18.6784   20.4062   24.9290 C   0  0  0  0  0  0  0  0  0  0  0  0
   18.4321   20.8049   23.9386 H   0  0  0  0  0  0  0  0  0  0  0  0
   18.9474   21.2545   25.5704 H   0  0  0  0  0  0  0  0  0  0  0  0
   17.7724   19.9440   25.3407 H   0  0  0  0  0  0  0  0  0  0  0  0
   20.1685   18.8935   26.2378 N   0  3  0  0  0  0  0  0  0  0  0  0
   20.9670   18.2523   26.2235 H   0  0  0  0  0  0  0  0  0  0  0  0
   20.4095   19.6652   26.8662 H   0  0  0  0  0  0  0  0  0  0  0  0
   19.3795   18.3938   26.6566 H   0  0  0  0  0  0  0  0  0  0  0  0
  1  2  1  0  0  0  0
  1  3  1  0  0  0  0
  1  4  1  0  0  0  0
  1  5  1  0  0  0  0
  5  6  1  0  0  0  0
  5  7  1  0  0  0  0
  5  8  1  0  0  0  0
  8  9  1  0  0  0  0
  8 10  1  0  0  0  0
  8 11  1  0  0  0  0
 11 12  1  0  0  0  0
 11 13  1  0  0  0  0
 11 14  1  0  0  0  0
 14 15  1  0  0  0  0
 14 16  1  0  0  0  0
 14 17  1  0  0  0  0
 17 18  1  0  0  0  0
 17 19  1  0  0  0  0
 19 20  1  0  0  0  0
 19 21  1  0  0  0  0
 19 22  1  0  0  0  0
 17 23  1  0  0  0  0
 23 24  1  0  0  0  0
 23 25  1  0  0  0  0
 23 26  1  0  0  0  0
M  END
> <VM2 Rank>
63

> <Conf_Id>
762

> <Probability>
0.02

> <Sum Probability>
99.80

> <Delta G>
4.009

> <G>
27.719

> <E>
-5.019

> <-TS>
32.738

> <U+W>
-26.481

> <U>
27.496

> <W>
-53.975

> <W(PB)>
-56.265

> <W(SA)>
2.290

> <Valence>
6.472

> <Coulomb>
19.839

> <VdW>
1.185

> <VdW6>
-8.404

> <VdW12>
9.590

> <Bond>
0.248

> <Angle>
1.619

> <Pdih>
4.604

> <Idih>
0.000

> <Tether>
0.000

$$$$
VeraChem MOL file


 26 25  0  0  0  0  0  0  0  0999 V2000     
   19.6185   18.0421   19.5421 C   0  0  0  0  0  0  0  0  0  0  0  0
   20.1231   17.8588   18.5846 H   0  0  0  0  0  0  0  0  0  0  0  0
   19.3792   17.0681   19.9886 H   0  0  0  0  0  0  0  0  0  0  0  0
   18.6752   18.5627   19.3314 H   0  0  0  0  0  0  0  0  0  0  0  0
   20.5157   18.8775   20.4797 C   0  0  0  0  0  0  0  0  0  0  0  0
   20.7664   19.8291   19.9904 H   0  0  0  0  0  0  0  0  0  0  0  0
   21.4638   18.3469   20.6455 H   0  0  0  0  0  0  0  0  0  0  0  0
   19.8271   19.1518   21.8350 C   0  0  0  0  0  0  0  0  0  0  0  0
   18.8844   19.6897   21.6637 H   0  0  0  0  0  0  0  0  0  0  0  0
   19.5751   18.1913   22.2998 H   0  0  0  0  0  0  0  0  0  0  0  0
   20.7314   19.9747   22.7819 C   0  0  0  0  0  0  0  0  0  0  0  0
   21.1028   20.8521   22.2346 H   0  0  0  0  0  0  0  0  0  0  0  0
   21.6239   19.3895   23.0411 H   0  0  0  0  0  0  0  0  0  0  0  0
   20.0354   20.4872   24.0750 C   0  0  0  0  0  0  0  0  0  0  0  0
   20.7684   21.0970   24.6192 H   0  0  0  0  0  0  0  0  0  0  0  0
   19.2271   21.1807   23.8076 H   0  0  0  0  0  0  0  0  0  0  0  0
   19.4985   19.4234   25.0677 C   0  0  1  0  0  0  0  0  0  0  0  0
   19.4722   19.9007   26.0522 H   0  0  0  0  0  0  0  0  0  0  0  0
   18.0521   18.9958   24.7564 C   0  0  0  0  0  0  0  0  0  0  0  0
   17.3917   19.8701   24.7030 H   0  0  0  0  0  0  0  0  0  0  0  0
   17.6686   18.3436   25.5505 H   0  0  0  0  0  0  0  0  0  0  0  0
   17.9696   18.4507   23.8116 H   0  0  0  0  0  0  0  0  0  0  0  0
   20.4093   18.2355   25.2164 N   0  3  0  0  0  0  0  0  0  0  0  0
   20.5021   17.7293   24.3324 H   0  0  0  0  0  0  0  0  0  0  0  0
   21.3484   18.5196   25.5093 H   0  0  0  0  0  0  0  0  0  0  0  0
   20.0560   17.5770   25.9164 H   0  0  0  0  0  0  0  0  0  0  0  0
  1  2  1  0  0  0  0
  1  3  1  0  0  0  0
  1  4  1  0  0  0  0
  1  5  1  0  0  0  0
  5  6  1  0  0  0  0
  5  7  1  0  0  0  0
  5  8  1  0  0  0  0
  8  9  1  0  0  0  0
  8 10  1  0  0  0  0
  8 11  1  0  0  0  0
 11 12  1  0  0  0  0
 11 13  1  0  0  0  0
 11 14  1  0  0  0  0
 14 15  1  0  0  0  0
 14 16  1  0  0  0  0
 14 17  1  0  0  0  0
 17 18  1  0  0  0  0
 17 19  1  0  0  0  0
 19 20  1  0  0  0  0
 19 21  1  0  0  0  0
 19 22  1  0  0  0  0
 17 23  1  0  0  0  0
 23 24  1  0  0  0  0
 23 25  1  0  0  0  0
 23 26  1  0  0  0  0
M  END
> <VM2 Rank>
64

> <Conf_Id>
821

> <Probability>
0.02

> <Sum Probability>
99.82

> <Delta G>
4.050

> <G>
27.760

> <E>
-5.289

> <-TS>
33.048

> <U+W>
-26.751

> <U>
27.376

> <W>
-54.127

> <W(PB)>
-56.398

> <W(SA)>
2.271

> <Valence>
5.849

> <Coulomb>
20.574

> <VdW>
0.953

> <VdW6>
-8.734

> <VdW12>
9.687

> <Bond>
0.283

> <Angle>
2.366

> <Pdih>
3.200

> <Idih>
0.000

> <Tether>
0.000

$$$$
VeraChem MOL file


 26 25  0  0  0  0  0  0  0  0999 V2000     
   20.7589   18.6697   19.5612 C   0  0  0  0  0  0  0  0  0  0  0  0
   20.8141   17.9793   18.7097 H   0  0  0  0  0  0  0  0  0  0  0  0
   20.6976   19.6905   19.1622 H   0  0  0  0  0  0  0  0  0  0  0  0
   21.6963   18.5752   20.1232 H   0  0  0  0  0  0  0  0  0  0  0  0
   19.5325   18.3432   20.4434 C   0  0  0  0  0  0  0  0  0  0  0  0
   19.6331   17.3292   20.8550 H   0  0  0  0  0  0  0  0  0  0  0  0
   18.6345   18.3298   19.8100 H   0  0  0  0  0  0  0  0  0  0  0  0
   19.3133   19.3553   21.5938 C   0  0  0  0  0  0  0  0  0  0  0  0
   19.1868   20.3625   21.1736 H   0  0  0  0  0  0  0  0  0  0  0  0
   18.3657   19.1122   22.0887 H   0  0  0  0  0  0  0  0  0  0  0  0
   20.4662   19.3677   22.6306 C   0  0  0  0  0  0  0  0  0  0  0  0
   21.3759   19.7283   22.1328 H   0  0  0  0  0  0  0  0  0  0  0  0
   20.6882   18.3453   22.9624 H   0  0  0  0  0  0  0  0  0  0  0  0
   20.1896   20.2921   23.8493 C   0  0  0  0  0  0  0  0  0  0  0  0
   21.1342   20.7692   24.1417 H   0  0  0  0  0  0  0  0  0  0  0  0
   19.5302   21.1176   23.5502 H   0  0  0  0  0  0  0  0  0  0  0  0
   19.6100   19.6008   25.1086 C   0  0  1  0  0  0  0  0  0  0  0  0
   19.4648   20.3791   25.8642 H   0  0  0  0  0  0  0  0  0  0  0  0
   18.2437   18.9434   24.8549 C   0  0  0  0  0  0  0  0  0  0  0  0
   17.5427   19.6600   24.4096 H   0  0  0  0  0  0  0  0  0  0  0  0
   17.8062   18.5932   25.7978 H   0  0  0  0  0  0  0  0  0  0  0  0
   18.3315   18.0789   24.1861 H   0  0  0  0  0  0  0  0  0  0  0  0
   20.5738   18.6158   25.7122 N   0  3  0  0  0  0  0  0  0  0  0  0
   20.7637   17.8405   25.0727 H   0  0  0  0  0  0  0  0  0  0  0  0
   21.4703   19.0568   25.9365 H   0  0  0  0  0  0  0  0  0  0  0  0
   20.2050   18.2154   26.5794 H   0  0  0  0  0  0  0  0  0  0  0  0
  1  2  1  0  0  0  0
  1  3  1  0  0  0  0
  1  4  1  0  0  0  0
  1  5  1  0  0  0  0
  5  6  1  0  0  0  0
  5  7  1  0  0  0  0
  5  8  1  0  0  0  0
  8  9  1  0  0  0  0
  8 10  1  0  0  0  0
  8 11  1  0  0  0  0
 11 12  1  0  0  0  0
 11 13  1  0  0  0  0
 11 14  1  0  0  0  0
 14 15  1  0  0  0  0
 14 16  1  0  0  0  0
 14 17  1  0  0  0  0
 17 18  1  0  0  0  0
 17 19  1  0  0  0  0
 19 20  1  0  0  0  0
 19 21  1  0  0  0  0
 19 22  1  0  0  0  0
 17 23  1  0  0  0  0
 23 24  1  0  0  0  0
 23 25  1  0  0  0  0
 23 26  1  0  0  0  0
M  END
> <VM2 Rank>
65

> <Conf_Id>
984

> <Probability>
0.02

> <Sum Probability>
99.84

> <Delta G>
4.051

> <G>
27.761

> <E>
-5.293

> <-TS>
33.054

> <U+W>
-26.754

> <U>
27.509

> <W>
-54.264

> <W(PB)>
-56.496

> <W(SA)>
2.232

> <Valence>
6.375

> <Coulomb>
20.014

> <VdW>
1.120

> <VdW6>
-8.976

> <VdW12>
10.096

> <Bond>
0.304

> <Angle>
1.986

> <Pdih>
4.086

> <Idih>
0.000

> <Tether>
0.000

$$$$
VeraChem MOL file


 26 25  0  0  0  0  0  0  0  0999 V2000     
   20.6433   19.9242   19.9617 C   0  0  0  0  0  0  0  0  0  0  0  0
   21.5665   20.0482   19.3810 H   0  0  0  0  0  0  0  0  0  0  0  0
   19.8012   20.1831   19.3069 H   0  0  0  0  0  0  0  0  0  0  0  0
   20.6673   20.6498   20.7821 H   0  0  0  0  0  0  0  0  0  0  0  0
   20.5173   18.4700   20.4730 C   0  0  0  0  0  0  0  0  0  0  0  0
   21.4008   18.1951   21.0657 H   0  0  0  0  0  0  0  0  0  0  0  0
   20.5207   17.8031   19.5994 H   0  0  0  0  0  0  0  0  0  0  0  0
   19.2214   18.2137   21.2848 C   0  0  0  0  0  0  0  0  0  0  0  0
   18.4214   18.8868   20.9470 H   0  0  0  0  0  0  0  0  0  0  0  0
   18.8695   17.1985   21.0542 H   0  0  0  0  0  0  0  0  0  0  0  0
   19.3857   18.3111   22.8237 C   0  0  0  0  0  0  0  0  0  0  0  0
   20.1121   17.5568   23.1541 H   0  0  0  0  0  0  0  0  0  0  0  0
   18.4264   18.0346   23.2791 H   0  0  0  0  0  0  0  0  0  0  0  0
   19.8184   19.7135   23.3283 C   0  0  0  0  0  0  0  0  0  0  0  0
   20.8213   19.9398   22.9468 H   0  0  0  0  0  0  0  0  0  0  0  0
   19.1487   20.4759   22.9089 H   0  0  0  0  0  0  0  0  0  0  0  0
   19.8532   19.8709   24.8671 C   0  0  1  0  0  0  0  0  0  0  0  0
   20.2455   20.8699   25.0813 H   0  0  0  0  0  0  0  0  0  0  0  0
   18.4500   19.7824   25.4927 C   0  0  0  0  0  0  0  0  0  0  0  0
   18.0292   18.7736   25.4094 H   0  0  0  0  0  0  0  0  0  0  0  0
   17.7610   20.4841   25.0065 H   0  0  0  0  0  0  0  0  0  0  0  0
   18.4892   20.0405   26.5581 H   0  0  0  0  0  0  0  0  0  0  0  0
   20.7987   18.9023   25.5228 N   0  3  0  0  0  0  0  0  0  0  0  0
   21.7466   18.9887   25.1452 H   0  0  0  0  0  0  0  0  0  0  0  0
   20.8561   19.0608   26.5327 H   0  0  0  0  0  0  0  0  0  0  0  0
   20.4969   17.9353   25.3806 H   0  0  0  0  0  0  0  0  0  0  0  0
  1  2  1  0  0  0  0
  1  3  1  0  0  0  0
  1  4  1  0  0  0  0
  1  5  1  0  0  0  0
  5  6  1  0  0  0  0
  5  7  1  0  0  0  0
  5  8  1  0  0  0  0
  8  9  1  0  0  0  0
  8 10  1  0  0  0  0
  8 11  1  0  0  0  0
 11 12  1  0  0  0  0
 11 13  1  0  0  0  0
 11 14  1  0  0  0  0
 14 15  1  0  0  0  0
 14 16  1  0  0  0  0
 14 17  1  0  0  0  0
 17 18  1  0  0  0  0
 17 19  1  0  0  0  0
 19 20  1  0  0  0  0
 19 21  1  0  0  0  0
 19 22  1  0  0  0  0
 17 23  1  0  0  0  0
 23 24  1  0  0  0  0
 23 25  1  0  0  0  0
 23 26  1  0  0  0  0
M  END
> <VM2 Rank>
66

> <Conf_Id>
736

> <Probability>
0.02

> <Sum Probability>
99.86

> <Delta G>
4.058

> <G>
27.768

> <E>
-5.254

> <-TS>
33.022

> <U+W>
-26.715

> <U>
27.573

> <W>
-54.289

> <W(PB)>
-56.541

> <W(SA)>
2.253

> <Valence>
6.363

> <Coulomb>
20.026

> <VdW>
1.184

> <VdW6>
-8.938

> <VdW12>
10.122

> <Bond>
0.298

> <Angle>
2.018

> <Pdih>
4.047

> <Idih>
0.000

> <Tether>
0.000

$$$$
VeraChem MOL file


 26 25  0  0  0  0  0  0  0  0999 V2000     
   19.5508   18.2246   19.4067 C   0  0  0  0  0  0  0  0  0  0  0  0
   20.0720   17.4548   18.8229 H   0  0  0  0  0  0  0  0  0  0  0  0
   18.5807   17.8140   19.7158 H   0  0  0  0  0  0  0  0  0  0  0  0
   19.3648   19.0806   18.7449 H   0  0  0  0  0  0  0  0  0  0  0  0
   20.3919   18.6421   20.6317 C   0  0  0  0  0  0  0  0  0  0  0  0
   21.3669   19.0177   20.2911 H   0  0  0  0  0  0  0  0  0  0  0  0
   20.5926   17.7548   21.2458 H   0  0  0  0  0  0  0  0  0  0  0  0
   19.6775   19.7298   21.4692 C   0  0  0  0  0  0  0  0  0  0  0  0
   19.4613   20.5877   20.8177 H   0  0  0  0  0  0  0  0  0  0  0  0
   18.7055   19.3525   21.8091 H   0  0  0  0  0  0  0  0  0  0  0  0
   20.5197   20.2298   22.6720 C   0  0  0  0  0  0  0  0  0  0  0  0
   20.0909   21.1651   23.0576 H   0  0  0  0  0  0  0  0  0  0  0  0
   21.5200   20.4977   22.3046 H   0  0  0  0  0  0  0  0  0  0  0  0
   20.6675   19.2108   23.8360 C   0  0  0  0  0  0  0  0  0  0  0  0
   20.6005   18.1805   23.4671 H   0  0  0  0  0  0  0  0  0  0  0  0
   21.6819   19.3154   24.2432 H   0  0  0  0  0  0  0  0  0  0  0  0
   19.6742   19.4157   25.0050 C   0  0  1  0  0  0  0  0  0  0  0  0
   19.7961   20.4363   25.3806 H   0  0  0  0  0  0  0  0  0  0  0  0
   18.2078   19.2330   24.5787 C   0  0  0  0  0  0  0  0  0  0  0  0
   17.9030   20.0150   23.8739 H   0  0  0  0  0  0  0  0  0  0  0  0
   17.5406   19.3039   25.4466 H   0  0  0  0  0  0  0  0  0  0  0  0
   18.0497   18.2557   24.1061 H   0  0  0  0  0  0  0  0  0  0  0  0
   19.9985   18.5022   26.1546 N   0  3  0  0  0  0  0  0  0  0  0  0
   20.9571   18.6398   26.4874 H   0  0  0  0  0  0  0  0  0  0  0  0
   19.3744   18.6656   26.9497 H   0  0  0  0  0  0  0  0  0  0  0  0
   19.9032   17.5183   25.8893 H   0  0  0  0  0  0  0  0  0  0  0  0
  1  2  1  0  0  0  0
  1  3  1  0  0  0  0
  1  4  1  0  0  0  0
  1  5  1  0  0  0  0
  5  6  1  0  0  0  0
  5  7  1  0  0  0  0
  5  8  1  0  0  0  0
  8  9  1  0  0  0  0
  8 10  1  0  0  0  0
  8 11  1  0  0  0  0
 11 12  1  0  0  0  0
 11 13  1  0  0  0  0
 11 14  1  0  0  0  0
 14 15  1  0  0  0  0
 14 16  1  0  0  0  0
 14 17  1  0  0  0  0
 17 18  1  0  0  0  0
 17 19  1  0  0  0  0
 19 20  1  0  0  0  0
 19 21  1  0  0  0  0
 19 22  1  0  0  0  0
 17 23  1  0  0  0  0
 23 24  1  0  0  0  0
 23 25  1  0  0  0  0
 23 26  1  0  0  0  0
M  END
> <VM2 Rank>
67

> <Conf_Id>
1375

> <Probability>
0.02

> <Sum Probability>
99.87

> <Delta G>
4.152

> <G>
27.862

> <E>
-5.039

> <-TS>
32.901

> <U+W>
-26.501

> <U>
27.603

> <W>
-54.104

> <W(PB)>
-56.397

> <W(SA)>
2.293

> <Valence>
6.568

> <Coulomb>
19.917

> <VdW>
1.118

> <VdW6>
-8.472

> <VdW12>
9.590

> <Bond>
0.286

> <Angle>
1.908

> <Pdih>
4.373

> <Idih>
0.000

> <Tether>
0.000

$$$$
VeraChem MOL file


 26 25  0  0  0  0  0  0  0  0999 V2000     
   19.4195   19.1024   19.2956 C   0  0  0  0  0  0  0  0  0  0  0  0
   19.5423   18.0784   18.9192 H   0  0  0  0  0  0  0  0  0  0  0  0
   18.3542   19.2639   19.5060 H   0  0  0  0  0  0  0  0  0  0  0  0
   19.7132   19.7930   18.4945 H   0  0  0  0  0  0  0  0  0  0  0  0
   20.2758   19.3366   20.5581 C   0  0  0  0  0  0  0  0  0  0  0  0
   20.1598   20.3801   20.8778 H   0  0  0  0  0  0  0  0  0  0  0  0
   21.3369   19.1984   20.3076 H   0  0  0  0  0  0  0  0  0  0  0  0
   19.8796   18.3722   21.7018 C   0  0  0  0  0  0  0  0  0  0  0  0
   18.8239   18.5195   21.9578 H   0  0  0  0  0  0  0  0  0  0  0  0
   19.9608   17.3407   21.3323 H   0  0  0  0  0  0  0  0  0  0  0  0
   20.7739   18.5079   22.9624 C   0  0  0  0  0  0  0  0  0  0  0  0
   21.8233   18.4361   22.6449 H   0  0  0  0  0  0  0  0  0  0  0  0
   20.6101   17.6421   23.6167 H   0  0  0  0  0  0  0  0  0  0  0  0
   20.5881   19.8262   23.7695 C   0  0  0  0  0  0  0  0  0  0  0  0
   21.5624   20.1102   24.1884 H   0  0  0  0  0  0  0  0  0  0  0  0
   20.3130   20.6516   23.1029 H   0  0  0  0  0  0  0  0  0  0  0  0
   19.5802   19.7692   24.9444 C   0  0  1  0  0  0  0  0  0  0  0  0
   19.5618   20.7647   25.3986 H   0  0  0  0  0  0  0  0  0  0  0  0
   18.1484   19.4444   24.4894 C   0  0  0  0  0  0  0  0  0  0  0  0
   18.0632   18.4087   24.1400 H   0  0  0  0  0  0  0  0  0  0  0  0
   17.8347   20.1140   23.6790 H   0  0  0  0  0  0  0  0  0  0  0  0
   17.4440   19.5748   25.3200 H   0  0  0  0  0  0  0  0  0  0  0  0
   20.0226   18.8292   26.0327 N   0  3  0  0  0  0  0  0  0  0  0  0
   20.0599   17.8633   25.6987 H   0  0  0  0  0  0  0  0  0  0  0  0
   20.9543   19.0707   26.3820 H   0  0  0  0  0  0  0  0  0  0  0  0
   19.3817   18.8533   26.8308 H   0  0  0  0  0  0  0  0  0  0  0  0
  1  2  1  0  0  0  0
  1  3  1  0  0  0  0
  1  4  1  0  0  0  0
  1  5  1  0  0  0  0
  5  6  1  0  0  0  0
  5  7  1  0  0  0  0
  5  8  1  0  0  0  0
  8  9  1  0  0  0  0
  8 10  1  0  0  0  0
  8 11  1  0  0  0  0
 11 12  1  0  0  0  0
 11 13  1  0  0  0  0
 11 14  1  0  0  0  0
 14 15  1  0  0  0  0
 14 16  1  0  0  0  0
 14 17  1  0  0  0  0
 17 18  1  0  0  0  0
 17 19  1  0  0  0  0
 19 20  1  0  0  0  0
 19 21  1  0  0  0  0
 19 22  1  0  0  0  0
 17 23  1  0  0  0  0
 23 24  1  0  0  0  0
 23 25  1  0  0  0  0
 23 26  1  0  0  0  0
M  END
> <VM2 Rank>
68

> <Conf_Id>
848

> <Probability>
0.02

> <Sum Probability>
99.89

> <Delta G>
4.157

> <G>
27.867

> <E>
-5.027

> <-TS>
32.894

> <U+W>
-26.489

> <U>
27.713

> <W>
-54.202

> <W(PB)>
-56.458

> <W(SA)>
2.256

> <Valence>
6.574

> <Coulomb>
20.039

> <VdW>
1.100

> <VdW6>
-8.929

> <VdW12>
10.029

> <Bond>
0.329

> <Angle>
2.177

> <Pdih>
4.068

> <Idih>
0.000

> <Tether>
0.000

$$$$
VeraChem MOL file


 26 25  0  0  0  0  0  0  0  0999 V2000     
   20.4399   19.0356   19.4807 C   0  0  0  0  0  0  0  0  0  0  0  0
   20.2419   18.6106   18.4881 H   0  0  0  0  0  0  0  0  0  0  0  0
   19.9818   20.0317   19.5082 H   0  0  0  0  0  0  0  0  0  0  0  0
   21.5264   19.1531   19.5841 H   0  0  0  0  0  0  0  0  0  0  0  0
   19.8725   18.1147   20.5850 C   0  0  0  0  0  0  0  0  0  0  0  0
   20.2641   17.0995   20.4299 H   0  0  0  0  0  0  0  0  0  0  0  0
   18.7807   18.0413   20.4824 H   0  0  0  0  0  0  0  0  0  0  0  0
   20.2357   18.5704   22.0191 C   0  0  0  0  0  0  0  0  0  0  0  0
   19.9250   17.7750   22.7063 H   0  0  0  0  0  0  0  0  0  0  0  0
   21.3269   18.6626   22.1086 H   0  0  0  0  0  0  0  0  0  0  0  0
   19.5573   19.9005   22.4336 C   0  0  0  0  0  0  0  0  0  0  0  0
   18.4659   19.7830   22.4042 H   0  0  0  0  0  0  0  0  0  0  0  0
   19.7922   20.6714   21.6891 H   0  0  0  0  0  0  0  0  0  0  0  0
   19.9977   20.4505   23.8200 C   0  0  0  0  0  0  0  0  0  0  0  0
   21.0717   20.6770   23.7953 H   0  0  0  0  0  0  0  0  0  0  0  0
   19.5006   21.4185   23.9661 H   0  0  0  0  0  0  0  0  0  0  0  0
   19.6955   19.5806   25.0671 C   0  0  1  0  0  0  0  0  0  0  0  0
   19.8544   20.2194   25.9415 H   0  0  0  0  0  0  0  0  0  0  0  0
   18.2342   19.1008   25.1111 C   0  0  0  0  0  0  0  0  0  0  0  0
   17.5442   19.9468   25.0033 H   0  0  0  0  0  0  0  0  0  0  0  0
   18.0181   18.6152   26.0706 H   0  0  0  0  0  0  0  0  0  0  0  0
   18.0206   18.3786   24.3141 H   0  0  0  0  0  0  0  0  0  0  0  0
   20.6552   18.4350   25.2374 N   0  3  0  0  0  0  0  0  0  0  0  0
   21.6246   18.7620   25.2809 H   0  0  0  0  0  0  0  0  0  0  0  0
   20.4692   17.9177   26.1013 H   0  0  0  0  0  0  0  0  0  0  0  0
   20.5878   17.7734   24.4617 H   0  0  0  0  0  0  0  0  0  0  0  0
  1  2  1  0  0  0  0
  1  3  1  0  0  0  0
  1  4  1  0  0  0  0
  1  5  1  0  0  0  0
  5  6  1  0  0  0  0
  5  7  1  0  0  0  0
  5  8  1  0  0  0  0
  8  9  1  0  0  0  0
  8 10  1  0  0  0  0
  8 11  1  0  0  0  0
 11 12  1  0  0  0  0
 11 13  1  0  0  0  0
 11 14  1  0  0  0  0
 14 15  1  0  0  0  0
 14 16  1  0  0  0  0
 14 17  1  0  0  0  0
 17 18  1  0  0  0  0
 17 19  1  0  0  0  0
 19 20  1  0  0  0  0
 19 21  1  0  0  0  0
 19 22  1  0  0  0  0
 17 23  1  0  0  0  0
 23 24  1  0  0  0  0
 23 25  1  0  0  0  0
 23 26  1  0  0  0  0
M  END
> <VM2 Rank>
69

> <Conf_Id>
1244

> <Probability>
0.02

> <Sum Probability>
99.91

> <Delta G>
4.160

> <G>
27.870

> <E>
-5.299

> <-TS>
33.170

> <U+W>
-26.761

> <U>
27.482

> <W>
-54.243

> <W(PB)>
-56.495

> <W(SA)>
2.251

> <Valence>
5.284

> <Coulomb>
21.247

> <VdW>
0.951

> <VdW6>
-9.416

> <VdW12>
10.366

> <Bond>
0.323

> <Angle>
2.522

> <Pdih>
2.439

> <Idih>
0.000

> <Tether>
0.000

$$$$
VeraChem MOL file


 26 25  0  0  0  0  0  0  0  0999 V2000     
   21.5436   19.2831   21.0331 C   0  0  0  0  0  0  0  0  0  0  0  0
   22.2243   20.1149   20.8105 H   0  0  0  0  0  0  0  0  0  0  0  0
   21.7724   18.9303   22.0449 H   0  0  0  0  0  0  0  0  0  0  0  0
   21.7666   18.4703   20.3298 H   0  0  0  0  0  0  0  0  0  0  0  0
   20.0724   19.7383   20.9025 C   0  0  0  0  0  0  0  0  0  0  0  0
   19.9254   20.1570   19.8972 H   0  0  0  0  0  0  0  0  0  0  0  0
   19.8644   20.5620   21.5971 H   0  0  0  0  0  0  0  0  0  0  0  0
   19.0524   18.5909   21.1067 C   0  0  0  0  0  0  0  0  0  0  0  0
   18.0420   18.9828   20.9259 H   0  0  0  0  0  0  0  0  0  0  0  0
   19.2192   17.8329   20.3290 H   0  0  0  0  0  0  0  0  0  0  0  0
   19.0773   17.8892   22.4915 C   0  0  0  0  0  0  0  0  0  0  0  0
   20.0415   17.3919   22.6533 H   0  0  0  0  0  0  0  0  0  0  0  0
   18.3378   17.0773   22.4561 H   0  0  0  0  0  0  0  0  0  0  0  0
   18.7125   18.8071   23.6901 C   0  0  0  0  0  0  0  0  0  0  0  0
   17.9288   19.5099   23.3779 H   0  0  0  0  0  0  0  0  0  0  0  0
   18.2656   18.1931   24.4834 H   0  0  0  0  0  0  0  0  0  0  0  0
   19.9053   19.5845   24.2920 C   0  0  1  0  0  0  0  0  0  0  0  0
   20.4224   20.1154   23.4895 H   0  0  0  0  0  0  0  0  0  0  0  0
   19.4068   20.6233   25.3090 C   0  0  0  0  0  0  0  0  0  0  0  0
   18.8799   20.1422   26.1426 H   0  0  0  0  0  0  0  0  0  0  0  0
   18.7187   21.3341   24.8345 H   0  0  0  0  0  0  0  0  0  0  0  0
   20.2458   21.1977   25.7206 H   0  0  0  0  0  0  0  0  0  0  0  0
   20.9178   18.6717   24.9292 N   0  3  0  0  0  0  0  0  0  0  0  0
   21.7154   19.1970   25.2984 H   0  0  0  0  0  0  0  0  0  0  0  0
   20.5090   18.1497   25.7088 H   0  0  0  0  0  0  0  0  0  0  0  0
   21.2817   17.9891   24.2596 H   0  0  0  0  0  0  0  0  0  0  0  0
  1  2  1  0  0  0  0
  1  3  1  0  0  0  0
  1  4  1  0  0  0  0
  1  5  1  0  0  0  0
  5  6  1  0  0  0  0
  5  7  1  0  0  0  0
  5  8  1  0  0  0  0
  8  9  1  0  0  0  0
  8 10  1  0  0  0  0
  8 11  1  0  0  0  0
 11 12  1  0  0  0  0
 11 13  1  0  0  0  0
 11 14  1  0  0  0  0
 14 15  1  0  0  0  0
 14 16  1  0  0  0  0
 14 17  1  0  0  0  0
 17 18  1  0  0  0  0
 17 19  1  0  0  0  0
 19 20  1  0  0  0  0
 19 21  1  0  0  0  0
 19 22  1  0  0  0  0
 17 23  1  0  0  0  0
 23 24  1  0  0  0  0
 23 25  1  0  0  0  0
 23 26  1  0  0  0  0
M  END
> <VM2 Rank>
70

> <Conf_Id>
160

> <Probability>
0.01

> <Sum Probability>
99.92

> <Delta G>
4.242

> <G>
27.952

> <E>
-5.592

> <-TS>
33.543

> <U+W>
-27.054

> <U>
27.275

> <W>
-54.328

> <W(PB)>
-56.534

> <W(SA)>
2.205

> <Valence>
5.855

> <Coulomb>
21.051

> <VdW>
0.369

> <VdW6>
-9.999

> <VdW12>
10.368

> <Bond>
0.292

> <Angle>
2.256

> <Pdih>
3.306

> <Idih>
0.000

> <Tether>
0.000

$$$$
VeraChem MOL file


 26 25  0  0  0  0  0  0  0  0999 V2000     
   21.4564   19.0946   20.5661 C   0  0  0  0  0  0  0  0  0  0  0  0
   21.4155   20.1895   20.4996 H   0  0  0  0  0  0  0  0  0  0  0  0
   21.8085   18.8173   21.5672 H   0  0  0  0  0  0  0  0  0  0  0  0
   22.2062   18.7424   19.8460 H   0  0  0  0  0  0  0  0  0  0  0  0
   20.0792   18.4661   20.2615 C   0  0  0  0  0  0  0  0  0  0  0  0
   20.1399   17.3763   20.3895 H   0  0  0  0  0  0  0  0  0  0  0  0
   19.8417   18.6347   19.2018 H   0  0  0  0  0  0  0  0  0  0  0  0
   18.9170   19.0259   21.1211 C   0  0  0  0  0  0  0  0  0  0  0  0
   18.7811   20.0976   20.9209 H   0  0  0  0  0  0  0  0  0  0  0  0
   17.9914   18.5417   20.7802 H   0  0  0  0  0  0  0  0  0  0  0  0
   19.0608   18.7757   22.6450 C   0  0  0  0  0  0  0  0  0  0  0  0
   19.6426   17.8606   22.8160 H   0  0  0  0  0  0  0  0  0  0  0  0
   18.0599   18.5819   23.0526 H   0  0  0  0  0  0  0  0  0  0  0  0
   19.6812   19.9797   23.4065 C   0  0  0  0  0  0  0  0  0  0  0  0
   20.6313   20.2690   22.9441 H   0  0  0  0  0  0  0  0  0  0  0  0
   19.0219   20.8508   23.2971 H   0  0  0  0  0  0  0  0  0  0  0  0
   19.9316   19.7358   24.9134 C   0  0  1  0  0  0  0  0  0  0  0  0
   20.3740   20.6499   25.3214 H   0  0  0  0  0  0  0  0  0  0  0  0
   18.6262   19.4677   25.6826 C   0  0  0  0  0  0  0  0  0  0  0  0
   18.1741   18.5115   25.3935 H   0  0  0  0  0  0  0  0  0  0  0  0
   17.8946   20.2642   25.4987 H   0  0  0  0  0  0  0  0  0  0  0  0
   18.8173   19.4346   26.7622 H   0  0  0  0  0  0  0  0  0  0  0  0
   20.9355   18.6427   25.1578 N   0  3  0  0  0  0  0  0  0  0  0  0
   20.5951   17.7419   24.8128 H   0  0  0  0  0  0  0  0  0  0  0  0
   21.8245   18.8375   24.6888 H   0  0  0  0  0  0  0  0  0  0  0  0
   21.1340   18.5340   26.1564 H   0  0  0  0  0  0  0  0  0  0  0  0
  1  2  1  0  0  0  0
  1  3  1  0  0  0  0
  1  4  1  0  0  0  0
  1  5  1  0  0  0  0
  5  6  1  0  0  0  0
  5  7  1  0  0  0  0
  5  8  1  0  0  0  0
  8  9  1  0  0  0  0
  8 10  1  0  0  0  0
  8 11  1  0  0  0  0
 11 12  1  0  0  0  0
 11 13  1  0  0  0  0
 11 14  1  0  0  0  0
 14 15  1  0  0  0  0
 14 16  1  0  0  0  0
 14 17  1  0  0  0  0
 17 18  1  0  0  0  0
 17 19  1  0  0  0  0
 19 20  1  0  0  0  0
 19 21  1  0  0  0  0
 19 22  1  0  0  0  0
 17 23  1  0  0  0  0
 23 24  1  0  0  0  0
 23 25  1  0  0  0  0
 23 26  1  0  0  0  0
M  END
> <VM2 Rank>
71

> <Conf_Id>
734

> <Probability>
0.01

> <Sum Probability>
99.93

> <Delta G>
4.262

> <G>
27.972

> <E>
-5.115

> <-TS>
33.087

> <U+W>
-26.577

> <U>
27.751

> <W>
-54.328

> <W(PB)>
-56.572

> <W(SA)>
2.244

> <Valence>
6.249

> <Coulomb>
20.445

> <VdW>
1.057

> <VdW6>
-9.101

> <VdW12>
10.158

> <Bond>
0.302

> <Angle>
1.929

> <Pdih>
4.018

> <Idih>
0.000

> <Tether>
0.000

$$$$
VeraChem MOL file


 26 25  0  0  0  0  0  0  0  0999 V2000     
   21.5625   18.8571   21.1160 C   0  0  0  0  0  0  0  0  0  0  0  0
   22.2321   18.3447   20.4132 H   0  0  0  0  0  0  0  0  0  0  0  0
   21.9804   19.8543   21.3053 H   0  0  0  0  0  0  0  0  0  0  0  0
   21.5831   18.2933   22.0538 H   0  0  0  0  0  0  0  0  0  0  0  0
   20.1372   18.9548   20.5242 C   0  0  0  0  0  0  0  0  0  0  0  0
   19.7295   17.9503   20.3447 H   0  0  0  0  0  0  0  0  0  0  0  0
   20.2179   19.4282   19.5356 H   0  0  0  0  0  0  0  0  0  0  0  0
   19.1524   19.7906   21.3825 C   0  0  0  0  0  0  0  0  0  0  0  0
   19.6766   20.6296   21.8590 H   0  0  0  0  0  0  0  0  0  0  0  0
   18.4271   20.2541   20.6994 H   0  0  0  0  0  0  0  0  0  0  0  0
   18.3394   18.9809   22.4287 C   0  0  0  0  0  0  0  0  0  0  0  0
   17.7755   18.1933   21.9104 H   0  0  0  0  0  0  0  0  0  0  0  0
   17.5787   19.6406   22.8671 H   0  0  0  0  0  0  0  0  0  0  0  0
   19.1638   18.3323   23.5708 C   0  0  0  0  0  0  0  0  0  0  0  0
   18.4730   17.8531   24.2772 H   0  0  0  0  0  0  0  0  0  0  0  0
   19.7665   17.5178   23.1514 H   0  0  0  0  0  0  0  0  0  0  0  0
   20.0836   19.3064   24.3438 C   0  0  1  0  0  0  0  0  0  0  0  0
   20.7515   19.7917   23.6261 H   0  0  0  0  0  0  0  0  0  0  0  0
   19.2825   20.3974   25.0763 C   0  0  0  0  0  0  0  0  0  0  0  0
   18.5614   19.9574   25.7763 H   0  0  0  0  0  0  0  0  0  0  0  0
   18.7327   21.0294   24.3691 H   0  0  0  0  0  0  0  0  0  0  0  0
   19.9529   21.0530   25.6454 H   0  0  0  0  0  0  0  0  0  0  0  0
   20.9666   18.5685   25.3117 N   0  3  0  0  0  0  0  0  0  0  0  0
   20.4155   18.0874   26.0275 H   0  0  0  0  0  0  0  0  0  0  0  0
   21.5396   17.8636   24.8396 H   0  0  0  0  0  0  0  0  0  0  0  0
   21.6049   19.2058   25.7962 H   0  0  0  0  0  0  0  0  0  0  0  0
  1  2  1  0  0  0  0
  1  3  1  0  0  0  0
  1  4  1  0  0  0  0
  1  5  1  0  0  0  0
  5  6  1  0  0  0  0
  5  7  1  0  0  0  0
  5  8  1  0  0  0  0
  8  9  1  0  0  0  0
  8 10  1  0  0  0  0
  8 11  1  0  0  0  0
 11 12  1  0  0  0  0
 11 13  1  0  0  0  0
 11 14  1  0  0  0  0
 14 15  1  0  0  0  0
 14 16  1  0  0  0  0
 14 17  1  0  0  0  0
 17 18  1  0  0  0  0
 17 19  1  0  0  0  0
 19 20  1  0  0  0  0
 19 21  1  0  0  0  0
 19 22  1  0  0  0  0
 17 23  1  0  0  0  0
 23 24  1  0  0  0  0
 23 25  1  0  0  0  0
 23 26  1  0  0  0  0
M  END
> <VM2 Rank>
72

> <Conf_Id>
265

> <Probability>
0.01

> <Sum Probability>
99.94

> <Delta G>
4.474

> <G>
28.184

> <E>
-5.279

> <-TS>
33.464

> <U+W>
-26.741

> <U>
27.819

> <W>
-54.560

> <W(PB)>
-56.768

> <W(SA)>
2.208

> <Valence>
6.497

> <Coulomb>
20.855

> <VdW>
0.467

> <VdW6>
-10.243

> <VdW12>
10.710

> <Bond>
0.303

> <Angle>
2.526

> <Pdih>
3.667

> <Idih>
0.000

> <Tether>
0.000

$$$$
VeraChem MOL file


 26 25  0  0  0  0  0  0  0  0999 V2000     
   20.7052   20.3056   20.8246 C   0  0  0  0  0  0  0  0  0  0  0  0
   20.2586   20.8293   21.6777 H   0  0  0  0  0  0  0  0  0  0  0  0
   21.7071   20.7249   20.6659 H   0  0  0  0  0  0  0  0  0  0  0  0
   20.1034   20.5294   19.9342 H   0  0  0  0  0  0  0  0  0  0  0  0
   20.7884   18.7812   21.0660 C   0  0  0  0  0  0  0  0  0  0  0  0
   21.4066   18.5674   21.9470 H   0  0  0  0  0  0  0  0  0  0  0  0
   21.3161   18.3224   20.2183 H   0  0  0  0  0  0  0  0  0  0  0  0
   19.4029   18.1029   21.2030 C   0  0  0  0  0  0  0  0  0  0  0  0
   18.8544   18.2375   20.2605 H   0  0  0  0  0  0  0  0  0  0  0  0
   19.5506   17.0192   21.3070 H   0  0  0  0  0  0  0  0  0  0  0  0
   18.5064   18.6017   22.3687 C   0  0  0  0  0  0  0  0  0  0  0  0
   17.5502   18.0659   22.2926 H   0  0  0  0  0  0  0  0  0  0  0  0
   18.2522   19.6593   22.2312 H   0  0  0  0  0  0  0  0  0  0  0  0
   19.0803   18.3389   23.7883 C   0  0  0  0  0  0  0  0  0  0  0  0
   18.2466   18.2461   24.4969 H   0  0  0  0  0  0  0  0  0  0  0  0
   19.5802   17.3614   23.7890 H   0  0  0  0  0  0  0  0  0  0  0  0
   20.0537   19.4187   24.3181 C   0  0  1  0  0  0  0  0  0  0  0  0
   20.7899   19.6419   23.5427 H   0  0  0  0  0  0  0  0  0  0  0  0
   19.3208   20.7230   24.6819 C   0  0  0  0  0  0  0  0  0  0  0  0
   18.8251   21.1642   23.8102 H   0  0  0  0  0  0  0  0  0  0  0  0
   20.0283   21.4683   25.0659 H   0  0  0  0  0  0  0  0  0  0  0  0
   18.5608   20.5485   25.4536 H   0  0  0  0  0  0  0  0  0  0  0  0
   20.8302   18.9159   25.5035 N   0  3  0  0  0  0  0  0  0  0  0  0
   21.3630   18.0718   25.2755 H   0  0  0  0  0  0  0  0  0  0  0  0
   21.4979   19.6164   25.8382 H   0  0  0  0  0  0  0  0  0  0  0  0
   20.2113   18.6866   26.2858 H   0  0  0  0  0  0  0  0  0  0  0  0
  1  2  1  0  0  0  0
  1  3  1  0  0  0  0
  1  4  1  0  0  0  0
  1  5  1  0  0  0  0
  5  6  1  0  0  0  0
  5  7  1  0  0  0  0
  5  8  1  0  0  0  0
  8  9  1  0  0  0  0
  8 10  1  0  0  0  0
  8 11  1  0  0  0  0
 11 12  1  0  0  0  0
 11 13  1  0  0  0  0
 11 14  1  0  0  0  0
 14 15  1  0  0  0  0
 14 16  1  0  0  0  0
 14 17  1  0  0  0  0
 17 18  1  0  0  0  0
 17 19  1  0  0  0  0
 19 20  1  0  0  0  0
 19 21  1  0  0  0  0
 19 22  1  0  0  0  0
 17 23  1  0  0  0  0
 23 24  1  0  0  0  0
 23 25  1  0  0  0  0
 23 26  1  0  0  0  0
M  END
> <VM2 Rank>
73

> <Conf_Id>
1021

> <Probability>
0.01

> <Sum Probability>
99.95

> <Delta G>
4.522

> <G>
28.231

> <E>
-5.461

> <-TS>
33.692

> <U+W>
-26.922

> <U>
27.547

> <W>
-54.470

> <W(PB)>
-56.656

> <W(SA)>
2.186

> <Valence>
6.488

> <Coulomb>
20.539

> <VdW>
0.521

> <VdW6>
-10.154

> <VdW12>
10.675

> <Bond>
0.309

> <Angle>
2.564

> <Pdih>
3.615

> <Idih>
0.000

> <Tether>
0.000

$$$$
VeraChem MOL file


 26 25  0  0  0  0  0  0  0  0999 V2000     
   20.7325   18.4115   19.8761 C   0  0  0  0  0  0  0  0  0  0  0  0
   20.8256   19.2782   19.2090 H   0  0  0  0  0  0  0  0  0  0  0  0
   21.6026   18.3950   20.5443 H   0  0  0  0  0  0  0  0  0  0  0  0
   20.7744   17.5054   19.2580 H   0  0  0  0  0  0  0  0  0  0  0  0
   19.4092   18.4625   20.6725 C   0  0  0  0  0  0  0  0  0  0  0  0
   19.3523   17.6012   21.3505 H   0  0  0  0  0  0  0  0  0  0  0  0
   18.5716   18.3431   19.9712 H   0  0  0  0  0  0  0  0  0  0  0  0
   19.2056   19.7848   21.4572 C   0  0  0  0  0  0  0  0  0  0  0  0
   19.1089   20.6049   20.7325 H   0  0  0  0  0  0  0  0  0  0  0  0
   18.2405   19.7380   21.9744 H   0  0  0  0  0  0  0  0  0  0  0  0
   20.3352   20.1554   22.4596 C   0  0  0  0  0  0  0  0  0  0  0  0
   20.1239   21.1412   22.8963 H   0  0  0  0  0  0  0  0  0  0  0  0
   21.2674   20.2899   21.8954 H   0  0  0  0  0  0  0  0  0  0  0  0
   20.5913   19.1320   23.6014 C   0  0  0  0  0  0  0  0  0  0  0  0
   20.3928   18.1081   23.2656 H   0  0  0  0  0  0  0  0  0  0  0  0
   21.6645   19.1602   23.8312 H   0  0  0  0  0  0  0  0  0  0  0  0
   19.8341   19.4137   24.9217 C   0  0  1  0  0  0  0  0  0  0  0  0
   20.1061   20.4172   25.2633 H   0  0  0  0  0  0  0  0  0  0  0  0
   18.3059   19.3607   24.7612 C   0  0  0  0  0  0  0  0  0  0  0  0
   17.8106   19.4383   25.7368 H   0  0  0  0  0  0  0  0  0  0  0  0
   17.9866   18.4228   24.2899 H   0  0  0  0  0  0  0  0  0  0  0  0
   17.9473   20.1991   24.1540 H   0  0  0  0  0  0  0  0  0  0  0  0
   20.2743   18.4674   26.0043 N   0  3  0  0  0  0  0  0  0  0  0  0
   20.0497   17.4974   25.7674 H   0  0  0  0  0  0  0  0  0  0  0  0
   21.2845   18.5195   26.1634 H   0  0  0  0  0  0  0  0  0  0  0  0
   19.8151   18.6783   26.8948 H   0  0  0  0  0  0  0  0  0  0  0  0
  1  2  1  0  0  0  0
  1  3  1  0  0  0  0
  1  4  1  0  0  0  0
  1  5  1  0  0  0  0
  5  6  1  0  0  0  0
  5  7  1  0  0  0  0
  5  8  1  0  0  0  0
  8  9  1  0  0  0  0
  8 10  1  0  0  0  0
  8 11  1  0  0  0  0
 11 12  1  0  0  0  0
 11 13  1  0  0  0  0
 11 14  1  0  0  0  0
 14 15  1  0  0  0  0
 14 16  1  0  0  0  0
 14 17  1  0  0  0  0
 17 18  1  0  0  0  0
 17 19  1  0  0  0  0
 19 20  1  0  0  0  0
 19 21  1  0  0  0  0
 19 22  1  0  0  0  0
 17 23  1  0  0  0  0
 23 24  1  0  0  0  0
 23 25  1  0  0  0  0
 23 26  1  0  0  0  0
M  END
> <VM2 Rank>
74

> <Conf_Id>
1302

> <Probability>
0.01

> <Sum Probability>
99.96

> <Delta G>
4.616

> <G>
28.326

> <E>
-4.564

> <-TS>
32.891

> <U+W>
-26.026

> <U>
28.262

> <W>
-54.288

> <W(PB)>
-56.488

> <W(SA)>
2.200

> <Valence>
7.096

> <Coulomb>
19.991

> <VdW>
1.175

> <VdW6>
-9.406

> <VdW12>
10.581

> <Bond>
0.360

> <Angle>
2.786

> <Pdih>
3.950

> <Idih>
0.000

> <Tether>
0.000

$$$$
VeraChem MOL file


 26 25  0  0  0  0  0  0  0  0999 V2000     
   20.8186   17.9928   20.0804 C   0  0  0  0  0  0  0  0  0  0  0  0
   20.6659   17.0352   20.5949 H   0  0  0  0  0  0  0  0  0  0  0  0
   20.9439   17.7823   19.0104 H   0  0  0  0  0  0  0  0  0  0  0  0
   21.7565   18.4324   20.4420 H   0  0  0  0  0  0  0  0  0  0  0  0
   19.6217   18.9438   20.3077 C   0  0  0  0  0  0  0  0  0  0  0  0
   18.7301   18.5124   19.8315 H   0  0  0  0  0  0  0  0  0  0  0  0
   19.8083   19.9005   19.8002 H   0  0  0  0  0  0  0  0  0  0  0  0
   19.3147   19.1951   21.8036 C   0  0  0  0  0  0  0  0  0  0  0  0
   18.3997   19.7989   21.8764 H   0  0  0  0  0  0  0  0  0  0  0  0
   19.1004   18.2327   22.2836 H   0  0  0  0  0  0  0  0  0  0  0  0
   20.4631   19.9178   22.5496 C   0  0  0  0  0  0  0  0  0  0  0  0
   20.7901   20.7723   21.9413 H   0  0  0  0  0  0  0  0  0  0  0  0
   21.3359   19.2565   22.6249 H   0  0  0  0  0  0  0  0  0  0  0  0
   20.0901   20.4572   23.9598 C   0  0  0  0  0  0  0  0  0  0  0  0
   20.9657   20.9967   24.3440 H   0  0  0  0  0  0  0  0  0  0  0  0
   19.3026   21.2168   23.8675 H   0  0  0  0  0  0  0  0  0  0  0  0
   19.6847   19.4176   25.0369 C   0  0  1  0  0  0  0  0  0  0  0  0
   19.8901   19.8782   26.0082 H   0  0  0  0  0  0  0  0  0  0  0  0
   18.1782   19.0986   25.0197 C   0  0  0  0  0  0  0  0  0  0  0  0
   17.9129   18.4688   25.8776 H   0  0  0  0  0  0  0  0  0  0  0  0
   17.8723   18.5683   24.1132 H   0  0  0  0  0  0  0  0  0  0  0  0
   17.5851   20.0186   25.0926 H   0  0  0  0  0  0  0  0  0  0  0  0
   20.5168   18.1651   24.9963 N   0  3  0  0  0  0  0  0  0  0  0  0
   20.3948   17.6711   24.1089 H   0  0  0  0  0  0  0  0  0  0  0  0
   21.5136   18.3759   25.0979 H   0  0  0  0  0  0  0  0  0  0  0  0
   20.2613   17.5202   25.7495 H   0  0  0  0  0  0  0  0  0  0  0  0
  1  2  1  0  0  0  0
  1  3  1  0  0  0  0
  1  4  1  0  0  0  0
  1  5  1  0  0  0  0
  5  6  1  0  0  0  0
  5  7  1  0  0  0  0
  5  8  1  0  0  0  0
  8  9  1  0  0  0  0
  8 10  1  0  0  0  0
  8 11  1  0  0  0  0
 11 12  1  0  0  0  0
 11 13  1  0  0  0  0
 11 14  1  0  0  0  0
 14 15  1  0  0  0  0
 14 16  1  0  0  0  0
 14 17  1  0  0  0  0
 17 18  1  0  0  0  0
 17 19  1  0  0  0  0
 19 20  1  0  0  0  0
 19 21  1  0  0  0  0
 19 22  1  0  0  0  0
 17 23  1  0  0  0  0
 23 24  1  0  0  0  0
 23 25  1  0  0  0  0
 23 26  1  0  0  0  0
M  END
> <VM2 Rank>
75

> <Conf_Id>
240

> <Probability>
0.01

> <Sum Probability>
99.96

> <Delta G>
4.722

> <G>
28.432

> <E>
-4.752

> <-TS>
33.183

> <U+W>
-26.214

> <U>
27.935

> <W>
-54.148

> <W(PB)>
-56.370

> <W(SA)>
2.221

> <Valence>
6.278

> <Coulomb>
20.605

> <VdW>
1.052

> <VdW6>
-9.401

> <VdW12>
10.453

> <Bond>
0.315

> <Angle>
2.523

> <Pdih>
3.440

> <Idih>
0.000

> <Tether>
0.000

$$$$
VeraChem MOL file


 26 25  0  0  0  0  0  0  0  0999 V2000     
   19.1677   18.3768   19.8100 C   0  0  0  0  0  0  0  0  0  0  0  0
   18.5135   18.9081   19.1067 H   0  0  0  0  0  0  0  0  0  0  0  0
   19.9817   17.9192   19.2328 H   0  0  0  0  0  0  0  0  0  0  0  0
   18.5820   17.5718   20.2728 H   0  0  0  0  0  0  0  0  0  0  0  0
   19.7201   19.3446   20.8776 C   0  0  0  0  0  0  0  0  0  0  0  0
   18.8785   19.8122   21.4043 H   0  0  0  0  0  0  0  0  0  0  0  0
   20.2733   20.1553   20.3834 H   0  0  0  0  0  0  0  0  0  0  0  0
   20.6479   18.6179   21.8797 C   0  0  0  0  0  0  0  0  0  0  0  0
   20.1108   17.7999   22.3735 H   0  0  0  0  0  0  0  0  0  0  0  0
   21.4615   18.1379   21.3184 H   0  0  0  0  0  0  0  0  0  0  0  0
   21.2806   19.5603   22.9340 C   0  0  0  0  0  0  0  0  0  0  0  0
   21.9058   20.2927   22.4050 H   0  0  0  0  0  0  0  0  0  0  0  0
   21.9795   18.9826   23.5534 H   0  0  0  0  0  0  0  0  0  0  0  0
   20.2972   20.3431   23.8540 C   0  0  0  0  0  0  0  0  0  0  0  0
   20.9069   21.0020   24.4859 H   0  0  0  0  0  0  0  0  0  0  0  0
   19.6779   21.0235   23.2561 H   0  0  0  0  0  0  0  0  0  0  0  0
   19.3965   19.5147   24.8075 C   0  0  1  0  0  0  0  0  0  0  0  0
   19.1309   20.1773   25.6371 H   0  0  0  0  0  0  0  0  0  0  0  0
   18.0688   19.0838   24.1582 C   0  0  0  0  0  0  0  0  0  0  0  0
   18.2122   18.3484   23.3613 H   0  0  0  0  0  0  0  0  0  0  0  0
   17.5433   19.9488   23.7354 H   0  0  0  0  0  0  0  0  0  0  0  0
   17.4075   18.6333   24.9084 H   0  0  0  0  0  0  0  0  0  0  0  0
   20.1091   18.3470   25.4328 N   0  3  0  0  0  0  0  0  0  0  0  0
   20.9475   18.6478   25.9377 H   0  0  0  0  0  0  0  0  0  0  0  0
   19.5088   17.8549   26.1006 H   0  0  0  0  0  0  0  0  0  0  0  0
   20.4022   17.6716   24.7227 H   0  0  0  0  0  0  0  0  0  0  0  0
  1  2  1  0  0  0  0
  1  3  1  0  0  0  0
  1  4  1  0  0  0  0
  1  5  1  0  0  0  0
  5  6  1  0  0  0  0
  5  7  1  0  0  0  0
  5  8  1  0  0  0  0
  8  9  1  0  0  0  0
  8 10  1  0  0  0  0
  8 11  1  0  0  0  0
 11 12  1  0  0  0  0
 11 13  1  0  0  0  0
 11 14  1  0  0  0  0
 14 15  1  0  0  0  0
 14 16  1  0  0  0  0
 14 17  1  0  0  0  0
 17 18  1  0  0  0  0
 17 19  1  0  0  0  0
 19 20  1  0  0  0  0
 19 21  1  0  0  0  0
 19 22  1  0  0  0  0
 17 23  1  0  0  0  0
 23 24  1  0  0  0  0
 23 25  1  0  0  0  0
 23 26  1  0  0  0  0
M  END
> <VM2 Rank>
76

> <Conf_Id>
544

> <Probability>
0.01

> <Sum Probability>
99.97

> <Delta G>
4.734

> <G>
28.444

> <E>
-5.154

> <-TS>
33.598

> <U+W>
-26.616

> <U>
27.716

> <W>
-54.332

> <W(PB)>
-56.532

> <W(SA)>
2.201

> <Valence>
6.453

> <Coulomb>
20.600

> <VdW>
0.663

> <VdW6>
-9.987

> <VdW12>
10.650

> <Bond>
0.338

> <Angle>
3.006

> <Pdih>
3.109

> <Idih>
0.000

> <Tether>
0.000

$$$$
VeraChem MOL file


 26 25  0  0  0  0  0  0  0  0999 V2000     
   19.6514   18.2681   19.9644 C   0  0  0  0  0  0  0  0  0  0  0  0
   20.0225   18.9307   19.1718 H   0  0  0  0  0  0  0  0  0  0  0  0
   19.5149   17.2691   19.5307 H   0  0  0  0  0  0  0  0  0  0  0  0
   18.6647   18.6292   20.2803 H   0  0  0  0  0  0  0  0  0  0  0  0
   20.6403   18.2132   21.1505 C   0  0  0  0  0  0  0  0  0  0  0  0
   21.5748   17.7465   20.8090 H   0  0  0  0  0  0  0  0  0  0  0  0
   20.2399   17.5523   21.9295 H   0  0  0  0  0  0  0  0  0  0  0  0
   20.9701   19.6102   21.7362 C   0  0  0  0  0  0  0  0  0  0  0  0
   21.7356   19.5125   22.5153 H   0  0  0  0  0  0  0  0  0  0  0  0
   21.4426   20.2139   20.9490 H   0  0  0  0  0  0  0  0  0  0  0  0
   19.7540   20.4008   22.2891 C   0  0  0  0  0  0  0  0  0  0  0  0
   19.1004   20.6711   21.4489 H   0  0  0  0  0  0  0  0  0  0  0  0
   20.1124   21.3566   22.6956 H   0  0  0  0  0  0  0  0  0  0  0  0
   18.8934   19.6895   23.3694 C   0  0  0  0  0  0  0  0  0  0  0  0
   18.0184   20.3281   23.5500 H   0  0  0  0  0  0  0  0  0  0  0  0
   18.4911   18.7431   22.9871 H   0  0  0  0  0  0  0  0  0  0  0  0
   19.6121   19.4598   24.7201 C   0  0  1  0  0  0  0  0  0  0  0  0
   20.1885   20.3588   24.9590 H   0  0  0  0  0  0  0  0  0  0  0  0
   18.5847   19.2349   25.8417 C   0  0  0  0  0  0  0  0  0  0  0  0
   17.9190   20.1013   25.9418 H   0  0  0  0  0  0  0  0  0  0  0  0
   19.0873   19.0910   26.8061 H   0  0  0  0  0  0  0  0  0  0  0  0
   17.9669   18.3502   25.6424 H   0  0  0  0  0  0  0  0  0  0  0  0
   20.5820   18.3115   24.6826 N   0  3  0  0  0  0  0  0  0  0  0  0
   20.0991   17.4237   24.5229 H   0  0  0  0  0  0  0  0  0  0  0  0
   21.2676   18.4300   23.9332 H   0  0  0  0  0  0  0  0  0  0  0  0
   21.0957   18.2268   25.5644 H   0  0  0  0  0  0  0  0  0  0  0  0
  1  2  1  0  0  0  0
  1  3  1  0  0  0  0
  1  4  1  0  0  0  0
  1  5  1  0  0  0  0
  5  6  1  0  0  0  0
  5  7  1  0  0  0  0
  5  8  1  0  0  0  0
  8  9  1  0  0  0  0
  8 10  1  0  0  0  0
  8 11  1  0  0  0  0
 11 12  1  0  0  0  0
 11 13  1  0  0  0  0
 11 14  1  0  0  0  0
 14 15  1  0  0  0  0
 14 16  1  0  0  0  0
 14 17  1  0  0  0  0
 17 18  1  0  0  0  0
 17 19  1  0  0  0  0
 19 20  1  0  0  0  0
 19 21  1  0  0  0  0
 19 22  1  0  0  0  0
 17 23  1  0  0  0  0
 23 24  1  0  0  0  0
 23 25  1  0  0  0  0
 23 26  1  0  0  0  0
M  END
> <VM2 Rank>
77

> <Conf_Id>
1298

> <Probability>
0.01

> <Sum Probability>
99.98

> <Delta G>
4.740

> <G>
28.450

> <E>
-4.948

> <-TS>
33.398

> <U+W>
-26.410

> <U>
27.564

> <W>
-53.974

> <W(PB)>
-56.203

> <W(SA)>
2.228

> <Valence>
5.430

> <Coulomb>
21.472

> <VdW>
0.662

> <VdW6>
-9.933

> <VdW12>
10.595

> <Bond>
0.322

> <Angle>
2.461

> <Pdih>
2.647

> <Idih>
0.000

> <Tether>
0.000

$$$$
VeraChem MOL file


 26 25  0  0  0  0  0  0  0  0999 V2000     
   20.9564   17.7825   20.0838 C   0  0  0  0  0  0  0  0  0  0  0  0
   21.2852   18.4309   19.2611 H   0  0  0  0  0  0  0  0  0  0  0  0
   21.8366   17.5213   20.6854 H   0  0  0  0  0  0  0  0  0  0  0  0
   20.5618   16.8569   19.6449 H   0  0  0  0  0  0  0  0  0  0  0  0
   19.8807   18.4794   20.9433 C   0  0  0  0  0  0  0  0  0  0  0  0
   19.5442   17.7863   21.7243 H   0  0  0  0  0  0  0  0  0  0  0  0
   19.0027   18.6987   20.3196 H   0  0  0  0  0  0  0  0  0  0  0  0
   20.4125   19.7917   21.5670 C   0  0  0  0  0  0  0  0  0  0  0  0
   21.3082   19.5972   22.1692 H   0  0  0  0  0  0  0  0  0  0  0  0
   20.7465   20.4533   20.7557 H   0  0  0  0  0  0  0  0  0  0  0  0
   19.3565   20.5559   22.4058 C   0  0  0  0  0  0  0  0  0  0  0  0
   18.5400   20.8646   21.7385 H   0  0  0  0  0  0  0  0  0  0  0  0
   19.8084   21.4884   22.7714 H   0  0  0  0  0  0  0  0  0  0  0  0
   18.7405   19.7948   23.6124 C   0  0  0  0  0  0  0  0  0  0  0  0
   17.9820   20.4563   24.0518 H   0  0  0  0  0  0  0  0  0  0  0  0
   18.1924   18.9065   23.2741 H   0  0  0  0  0  0  0  0  0  0  0  0
   19.7526   19.4085   24.7171 C   0  0  1  0  0  0  0  0  0  0  0  0
   20.4574   20.2364   24.8415 H   0  0  0  0  0  0  0  0  0  0  0  0
   19.0288   19.1871   26.0556 C   0  0  0  0  0  0  0  0  0  0  0  0
   18.2947   18.3751   25.9801 H   0  0  0  0  0  0  0  0  0  0  0  0
   18.5017   20.0965   26.3702 H   0  0  0  0  0  0  0  0  0  0  0  0
   19.7441   18.9293   26.8463 H   0  0  0  0  0  0  0  0  0  0  0  0
   20.5600   18.1881   24.3691 N   0  3  0  0  0  0  0  0  0  0  0  0
   19.9676   17.3557   24.3132 H   0  0  0  0  0  0  0  0  0  0  0  0
   21.0251   18.2971   23.4642 H   0  0  0  0  0  0  0  0  0  0  0  0
   21.2817   18.0036   25.0719 H   0  0  0  0  0  0  0  0  0  0  0  0
  1  2  1  0  0  0  0
  1  3  1  0  0  0  0
  1  4  1  0  0  0  0
  1  5  1  0  0  0  0
  5  6  1  0  0  0  0
  5  7  1  0  0  0  0
  5  8  1  0  0  0  0
  8  9  1  0  0  0  0
  8 10  1  0  0  0  0
  8 11  1  0  0  0  0
 11 12  1  0  0  0  0
 11 13  1  0  0  0  0
 11 14  1  0  0  0  0
 14 15  1  0  0  0  0
 14 16  1  0  0  0  0
 14 17  1  0  0  0  0
 17 18  1  0  0  0  0
 17 19  1  0  0  0  0
 19 20  1  0  0  0  0
 19 21  1  0  0  0  0
 19 22  1  0  0  0  0
 17 23  1  0  0  0  0
 23 24  1  0  0  0  0
 23 25  1  0  0  0  0
 23 26  1  0  0  0  0
M  END
> <VM2 Rank>
78

> <Conf_Id>
749

> <Probability>
0.01

> <Sum Probability>
99.98

> <Delta G>
4.844

> <G>
28.553

> <E>
-4.669

> <-TS>
33.223

> <U+W>
-26.131

> <U>
27.025

> <W>
-53.156

> <W(PB)>
-55.402

> <W(SA)>
2.245

> <Valence>
5.027

> <Coulomb>
21.327

> <VdW>
0.671

> <VdW6>
-9.248

> <VdW12>
9.920

> <Bond>
0.272

> <Angle>
2.161

> <Pdih>
2.594

> <Idih>
0.000

> <Tether>
0.000

$$$$
VeraChem MOL file


 26 25  0  0  0  0  0  0  0  0999 V2000     
   20.6617   17.7452   20.0998 C   0  0  0  0  0  0  0  0  0  0  0  0
   21.6578   17.6304   19.6530 H   0  0  0  0  0  0  0  0  0  0  0  0
   20.4319   16.8243   20.6512 H   0  0  0  0  0  0  0  0  0  0  0  0
   19.9359   17.8440   19.2821 H   0  0  0  0  0  0  0  0  0  0  0  0
   20.6207   18.9762   21.0296 C   0  0  0  0  0  0  0  0  0  0  0  0
   20.8858   19.8749   20.4553 H   0  0  0  0  0  0  0  0  0  0  0  0
   21.3880   18.8633   21.8055 H   0  0  0  0  0  0  0  0  0  0  0  0
   19.2230   19.1627   21.6660 C   0  0  0  0  0  0  0  0  0  0  0  0
   18.4834   19.2669   20.8600 H   0  0  0  0  0  0  0  0  0  0  0  0
   18.9289   18.2617   22.2170 H   0  0  0  0  0  0  0  0  0  0  0  0
   19.1182   20.4101   22.5802 C   0  0  0  0  0  0  0  0  0  0  0  0
   18.0800   20.5113   22.9237 H   0  0  0  0  0  0  0  0  0  0  0  0
   19.3070   21.3031   21.9686 H   0  0  0  0  0  0  0  0  0  0  0  0
   20.0745   20.4519   23.8084 C   0  0  0  0  0  0  0  0  0  0  0  0
   21.1161   20.5075   23.4681 H   0  0  0  0  0  0  0  0  0  0  0  0
   19.8963   21.4003   24.3322 H   0  0  0  0  0  0  0  0  0  0  0  0
   19.9404   19.3146   24.8536 C   0  0  1  0  0  0  0  0  0  0  0  0
   20.5162   19.6221   25.7321 H   0  0  0  0  0  0  0  0  0  0  0  0
   18.4863   19.1057   25.3113 C   0  0  0  0  0  0  0  0  0  0  0  0
   17.8612   18.7035   24.5052 H   0  0  0  0  0  0  0  0  0  0  0  0
   18.0457   20.0518   25.6494 H   0  0  0  0  0  0  0  0  0  0  0  0
   18.4453   18.4010   26.1507 H   0  0  0  0  0  0  0  0  0  0  0  0
   20.5632   18.0215   24.4051 N   0  3  0  0  0  0  0  0  0  0  0  0
   21.5628   18.1347   24.2153 H   0  0  0  0  0  0  0  0  0  0  0  0
   20.4684   17.2936   25.1191 H   0  0  0  0  0  0  0  0  0  0  0  0
   20.1237   17.6781   23.5480 H   0  0  0  0  0  0  0  0  0  0  0  0
  1  2  1  0  0  0  0
  1  3  1  0  0  0  0
  1  4  1  0  0  0  0
  1  5  1  0  0  0  0
  5  6  1  0  0  0  0
  5  7  1  0  0  0  0
  5  8  1  0  0  0  0
  8  9  1  0  0  0  0
  8 10  1  0  0  0  0
  8 11  1  0  0  0  0
 11 12  1  0  0  0  0
 11 13  1  0  0  0  0
 11 14  1  0  0  0  0
 14 15  1  0  0  0  0
 14 16  1  0  0  0  0
 14 17  1  0  0  0  0
 17 18  1  0  0  0  0
 17 19  1  0  0  0  0
 19 20  1  0  0  0  0
 19 21  1  0  0  0  0
 19 22  1  0  0  0  0
 17 23  1  0  0  0  0
 23 24  1  0  0  0  0
 23 25  1  0  0  0  0
 23 26  1  0  0  0  0
M  END
> <VM2 Rank>
79

> <Conf_Id>
150

> <Probability>
0.00

> <Sum Probability>
99.99

> <Delta G>
4.904

> <G>
28.614

> <E>
-5.029

> <-TS>
33.643

> <U+W>
-26.491

> <U>
27.281

> <W>
-53.772

> <W(PB)>
-55.968

> <W(SA)>
2.197

> <Valence>
5.160

> <Coulomb>
21.564

> <VdW>
0.558

> <VdW6>
-10.215

> <VdW12>
10.773

> <Bond>
0.332

> <Angle>
2.658

> <Pdih>
2.170

> <Idih>
0.000

> <Tether>
0.000

$$$$
VeraChem MOL file


 26 25  0  0  0  0  0  0  0  0999 V2000     
   20.1993   19.0780   19.4450 C   0  0  0  0  0  0  0  0  0  0  0  0
   20.8984   19.9021   19.6319 H   0  0  0  0  0  0  0  0  0  0  0  0
   20.5183   18.5804   18.5200 H   0  0  0  0  0  0  0  0  0  0  0  0
   19.2031   19.5044   19.2696 H   0  0  0  0  0  0  0  0  0  0  0  0
   20.1747   18.0717   20.6182 C   0  0  0  0  0  0  0  0  0  0  0  0
   21.1879   17.6856   20.7975 H   0  0  0  0  0  0  0  0  0  0  0  0
   19.5643   17.2063   20.3243 H   0  0  0  0  0  0  0  0  0  0  0  0
   19.5971   18.6609   21.9281 C   0  0  0  0  0  0  0  0  0  0  0  0
   18.5945   19.0676   21.7369 H   0  0  0  0  0  0  0  0  0  0  0  0
   19.4737   17.8332   22.6360 H   0  0  0  0  0  0  0  0  0  0  0  0
   20.4961   19.7501   22.5642 C   0  0  0  0  0  0  0  0  0  0  0  0
   20.7075   20.5233   21.8151 H   0  0  0  0  0  0  0  0  0  0  0  0
   21.4710   19.3171   22.8247 H   0  0  0  0  0  0  0  0  0  0  0  0
   19.8832   20.4668   23.8013 C   0  0  0  0  0  0  0  0  0  0  0  0
   20.5949   21.2425   24.1127 H   0  0  0  0  0  0  0  0  0  0  0  0
   18.9790   21.0117   23.4997 H   0  0  0  0  0  0  0  0  0  0  0  0
   19.5751   19.6023   25.0517 C   0  0  1  0  0  0  0  0  0  0  0  0
   19.6163   20.2752   25.9138 H   0  0  0  0  0  0  0  0  0  0  0  0
   18.1515   19.0150   25.0312 C   0  0  0  0  0  0  0  0  0  0  0  0
   18.0093   18.2851   24.2290 H   0  0  0  0  0  0  0  0  0  0  0  0
   17.4062   19.8095   24.9025 H   0  0  0  0  0  0  0  0  0  0  0  0
   17.9331   18.5119   25.9811 H   0  0  0  0  0  0  0  0  0  0  0  0
   20.6109   18.5434   25.3143 N   0  3  0  0  0  0  0  0  0  0  0  0
   20.6520   17.8693   24.5461 H   0  0  0  0  0  0  0  0  0  0  0  0
   21.5442   18.9519   25.4163 H   0  0  0  0  0  0  0  0  0  0  0  0
   20.4078   18.0244   26.1733 H   0  0  0  0  0  0  0  0  0  0  0  0
  1  2  1  0  0  0  0
  1  3  1  0  0  0  0
  1  4  1  0  0  0  0
  1  5  1  0  0  0  0
  5  6  1  0  0  0  0
  5  7  1  0  0  0  0
  5  8  1  0  0  0  0
  8  9  1  0  0  0  0
  8 10  1  0  0  0  0
  8 11  1  0  0  0  0
 11 12  1  0  0  0  0
 11 13  1  0  0  0  0
 11 14  1  0  0  0  0
 14 15  1  0  0  0  0
 14 16  1  0  0  0  0
 14 17  1  0  0  0  0
 17 18  1  0  0  0  0
 17 19  1  0  0  0  0
 19 20  1  0  0  0  0
 19 21  1  0  0  0  0
 19 22  1  0  0  0  0
 17 23  1  0  0  0  0
 23 24  1  0  0  0  0
 23 25  1  0  0  0  0
 23 26  1  0  0  0  0
M  END
> <VM2 Rank>
80

> <Conf_Id>
241

> <Probability>
0.00

> <Sum Probability>
99.99

> <Delta G>
4.932

> <G>
28.642

> <E>
-4.460

> <-TS>
33.102

> <U+W>
-25.922

> <U>
28.238

> <W>
-54.160

> <W(PB)>
-56.416

> <W(SA)>
2.256

> <Valence>
6.520

> <Coulomb>
20.564

> <VdW>
1.154

> <VdW6>
-9.254

> <VdW12>
10.408

> <Bond>
0.327

> <Angle>
2.699

> <Pdih>
3.494

> <Idih>
0.000

> <Tether>
0.000

$$$$
VeraChem MOL file


 26 25  0  0  0  0  0  0  0  0999 V2000     
   20.7936   19.1846   19.9616 C   0  0  0  0  0  0  0  0  0  0  0  0
   21.7689   19.0346   19.4810 H   0  0  0  0  0  0  0  0  0  0  0  0
   20.0158   18.9740   19.2162 H   0  0  0  0  0  0  0  0  0  0  0  0
   20.7232   20.2427   20.2428 H   0  0  0  0  0  0  0  0  0  0  0  0
   20.6486   18.2613   21.1921 C   0  0  0  0  0  0  0  0  0  0  0  0
   21.4288   18.5048   21.9239 H   0  0  0  0  0  0  0  0  0  0  0  0
   20.8394   17.2251   20.8794 H   0  0  0  0  0  0  0  0  0  0  0  0
   19.2450   18.3297   21.8469 C   0  0  0  0  0  0  0  0  0  0  0  0
   18.4994   18.0134   21.1044 H   0  0  0  0  0  0  0  0  0  0  0  0
   19.1778   17.5887   22.6523 H   0  0  0  0  0  0  0  0  0  0  0  0
   18.8345   19.7265   22.3844 C   0  0  0  0  0  0  0  0  0  0  0  0
   17.8195   19.6621   22.7978 H   0  0  0  0  0  0  0  0  0  0  0  0
   18.7470   20.4176   21.5356 H   0  0  0  0  0  0  0  0  0  0  0  0
   19.7842   20.3671   23.4387 C   0  0  0  0  0  0  0  0  0  0  0  0
   20.7736   20.5347   22.9952 H   0  0  0  0  0  0  0  0  0  0  0  0
   19.3988   21.3705   23.6622 H   0  0  0  0  0  0  0  0  0  0  0  0
   19.9494   19.6255   24.7904 C   0  0  1  0  0  0  0  0  0  0  0  0
   20.4685   20.3122   25.4662 H   0  0  0  0  0  0  0  0  0  0  0  0
   18.5982   19.2796   25.4400 C   0  0  0  0  0  0  0  0  0  0  0  0
   17.9610   20.1698   25.5102 H   0  0  0  0  0  0  0  0  0  0  0  0
   18.7480   18.8967   26.4569 H   0  0  0  0  0  0  0  0  0  0  0  0
   18.0593   18.5136   24.8698 H   0  0  0  0  0  0  0  0  0  0  0  0
   20.8345   18.4138   24.7000 N   0  3  0  0  0  0  0  0  0  0  0  0
   21.7709   18.6593   24.3671 H   0  0  0  0  0  0  0  0  0  0  0  0
   20.9432   17.9619   25.6124 H   0  0  0  0  0  0  0  0  0  0  0  0
   20.4476   17.7222   24.0543 H   0  0  0  0  0  0  0  0  0  0  0  0
  1  2  1  0  0  0  0
  1  3  1  0  0  0  0
  1  4  1  0  0  0  0
  1  5  1  0  0  0  0
  5  6  1  0  0  0  0
  5  7  1  0  0  0  0
  5  8  1  0  0  0  0
  8  9  1  0  0  0  0
  8 10  1  0  0  0  0
  8 11  1  0  0  0  0
 11 12  1  0  0  0  0
 11 13  1  0  0  0  0
 11 14  1  0  0  0  0
 14 15  1  0  0  0  0
 14 16  1  0  0  0  0
 14 17  1  0  0  0  0
 17 18  1  0  0  0  0
 17 19  1  0  0  0  0
 19 20  1  0  0  0  0
 19 21  1  0  0  0  0
 19 22  1  0  0  0  0
 17 23  1  0  0  0  0
 23 24  1  0  0  0  0
 23 25  1  0  0  0  0
 23 26  1  0  0  0  0
M  END
> <VM2 Rank>
81

> <Conf_Id>
1237

> <Probability>
0.00

> <Sum Probability>
99.99

> <Delta G>
5.060

> <G>
28.770

> <E>
-5.031

> <-TS>
33.801

> <U+W>
-26.493

> <U>
27.883

> <W>
-54.375

> <W(PB)>
-56.572

> <W(SA)>
2.197

> <Valence>
5.604

> <Coulomb>
21.671

> <VdW>
0.608

> <VdW6>
-10.842

> <VdW12>
11.450

> <Bond>
0.377

> <Angle>
2.942

> <Pdih>
2.285

> <Idih>
0.000

> <Tether>
0.000

$$$$
VeraChem MOL file


 26 25  0  0  0  0  0  0  0  0999 V2000     
   19.8368   19.4878   19.8365 C   0  0  0  0  0  0  0  0  0  0  0  0
   20.6185   18.9409   19.2935 H   0  0  0  0  0  0  0  0  0  0  0  0
   19.0586   19.7669   19.1145 H   0  0  0  0  0  0  0  0  0  0  0  0
   20.2737   20.4154   20.2267 H   0  0  0  0  0  0  0  0  0  0  0  0
   19.2392   18.6234   20.9696 C   0  0  0  0  0  0  0  0  0  0  0  0
   18.7165   17.7667   20.5221 H   0  0  0  0  0  0  0  0  0  0  0  0
   18.4725   19.1986   21.5038 H   0  0  0  0  0  0  0  0  0  0  0  0
   20.3044   18.0889   21.9609 C   0  0  0  0  0  0  0  0  0  0  0  0
   19.8278   17.4186   22.6856 H   0  0  0  0  0  0  0  0  0  0  0  0
   21.0093   17.4551   21.4054 H   0  0  0  0  0  0  0  0  0  0  0  0
   21.1154   19.1789   22.7095 C   0  0  0  0  0  0  0  0  0  0  0  0
   21.7227   19.7245   21.9752 H   0  0  0  0  0  0  0  0  0  0  0  0
   21.8464   18.6887   23.3657 H   0  0  0  0  0  0  0  0  0  0  0  0
   20.2965   20.2206   23.5281 C   0  0  0  0  0  0  0  0  0  0  0  0
   21.0098   20.9691   23.8970 H   0  0  0  0  0  0  0  0  0  0  0  0
   19.6220   20.7781   22.8660 H   0  0  0  0  0  0  0  0  0  0  0  0
   19.5122   19.7036   24.7629 C   0  0  1  0  0  0  0  0  0  0  0  0
   19.3688   20.5655   25.4218 H   0  0  0  0  0  0  0  0  0  0  0  0
   18.1045   19.1894   24.4127 C   0  0  0  0  0  0  0  0  0  0  0  0
   17.5365   18.9845   25.3285 H   0  0  0  0  0  0  0  0  0  0  0  0
   18.1318   18.2649   23.8288 H   0  0  0  0  0  0  0  0  0  0  0  0
   17.5456   19.9409   23.8417 H   0  0  0  0  0  0  0  0  0  0  0  0
   20.2790   18.6954   25.5738 N   0  3  0  0  0  0  0  0  0  0  0  0
   19.7635   18.4198   26.4144 H   0  0  0  0  0  0  0  0  0  0  0  0
   20.4613   17.8482   25.0304 H   0  0  0  0  0  0  0  0  0  0  0  0
   21.1829   19.0689   25.8767 H   0  0  0  0  0  0  0  0  0  0  0  0
  1  2  1  0  0  0  0
  1  3  1  0  0  0  0
  1  4  1  0  0  0  0
  1  5  1  0  0  0  0
  5  6  1  0  0  0  0
  5  7  1  0  0  0  0
  5  8  1  0  0  0  0
  8  9  1  0  0  0  0
  8 10  1  0  0  0  0
  8 11  1  0  0  0  0
 11 12  1  0  0  0  0
 11 13  1  0  0  0  0
 11 14  1  0  0  0  0
 14 15  1  0  0  0  0
 14 16  1  0  0  0  0
 14 17  1  0  0  0  0
 17 18  1  0  0  0  0
 17 19  1  0  0  0  0
 19 20  1  0  0  0  0
 19 21  1  0  0  0  0
 19 22  1  0  0  0  0
 17 23  1  0  0  0  0
 23 24  1  0  0  0  0
 23 25  1  0  0  0  0
 23 26  1  0  0  0  0
M  END
> <VM2 Rank>
82

> <Conf_Id>
76

> <Probability>
0.00

> <Sum Probability>
100.00

> <Delta G>
5.265

> <G>
28.975

> <E>
-4.847

> <-TS>
33.822

> <U+W>
-26.309

> <U>
28.161

> <W>
-54.470

> <W(PB)>
-56.647

> <W(SA)>
2.177

> <Valence>
6.893

> <Coulomb>
20.537

> <VdW>
0.732

> <VdW6>
-10.681

> <VdW12>
11.413

> <Bond>
0.380

> <Angle>
3.328

> <Pdih>
3.184

> <Idih>
0.000

> <Tether>
0.000

$$$$
VeraChem MOL file


 26 25  0  0  0  0  0  0  0  0999 V2000     
   21.4035   18.3183   20.6713 C   0  0  0  0  0  0  0  0  0  0  0  0
   22.4707   18.5048   20.4940 H   0  0  0  0  0  0  0  0  0  0  0  0
   21.3293   17.5362   21.4354 H   0  0  0  0  0  0  0  0  0  0  0  0
   20.9751   17.9263   19.7397 H   0  0  0  0  0  0  0  0  0  0  0  0
   20.6924   19.6223   21.1007 C   0  0  0  0  0  0  0  0  0  0  0  0
   20.8957   20.3902   20.3412 H   0  0  0  0  0  0  0  0  0  0  0  0
   21.1386   20.0029   22.0257 H   0  0  0  0  0  0  0  0  0  0  0  0
   19.1540   19.4756   21.2371 C   0  0  0  0  0  0  0  0  0  0  0  0
   18.7071   20.4648   21.4070 H   0  0  0  0  0  0  0  0  0  0  0  0
   18.7630   19.1413   20.2661 H   0  0  0  0  0  0  0  0  0  0  0  0
   18.6505   18.4901   22.3278 C   0  0  0  0  0  0  0  0  0  0  0  0
   19.2577   17.5777   22.3486 H   0  0  0  0  0  0  0  0  0  0  0  0
   17.6480   18.1540   22.0287 H   0  0  0  0  0  0  0  0  0  0  0  0
   18.5171   19.0943   23.7524 C   0  0  0  0  0  0  0  0  0  0  0  0
   17.8162   19.9387   23.7138 H   0  0  0  0  0  0  0  0  0  0  0  0
   18.0506   18.3447   24.4055 H   0  0  0  0  0  0  0  0  0  0  0  0
   19.8348   19.5692   24.4010 C   0  0  1  0  0  0  0  0  0  0  0  0
   20.2499   20.3726   23.7871 H   0  0  0  0  0  0  0  0  0  0  0  0
   19.5658   20.1383   25.8031 C   0  0  0  0  0  0  0  0  0  0  0  0
   18.8527   20.9707   25.7553 H   0  0  0  0  0  0  0  0  0  0  0  0
   20.4917   20.5187   26.2517 H   0  0  0  0  0  0  0  0  0  0  0  0
   19.1524   19.3721   26.4708 H   0  0  0  0  0  0  0  0  0  0  0  0
   20.8699   18.4799   24.4606 N   0  3  0  0  0  0  0  0  0  0  0  0
   20.5461   17.6893   25.0243 H   0  0  0  0  0  0  0  0  0  0  0  0
   21.0841   18.1283   23.5233 H   0  0  0  0  0  0  0  0  0  0  0  0
   21.7442   18.8156   24.8748 H   0  0  0  0  0  0  0  0  0  0  0  0
  1  2  1  0  0  0  0
  1  3  1  0  0  0  0
  1  4  1  0  0  0  0
  1  5  1  0  0  0  0
  5  6  1  0  0  0  0
  5  7  1  0  0  0  0
  5  8  1  0  0  0  0
  8  9  1  0  0  0  0
  8 10  1  0  0  0  0
  8 11  1  0  0  0  0
 11 12  1  0  0  0  0
 11 13  1  0  0  0  0
 11 14  1  0  0  0  0
 14 15  1  0  0  0  0
 14 16  1  0  0  0  0
 14 17  1  0  0  0  0
 17 18  1  0  0  0  0
 17 19  1  0  0  0  0
 19 20  1  0  0  0  0
 19 21  1  0  0  0  0
 19 22  1  0  0  0  0
 17 23  1  0  0  0  0
 23 24  1  0  0  0  0
 23 25  1  0  0  0  0
 23 26  1  0  0  0  0
M  END
> <VM2 Rank>
83

> <Conf_Id>
1073

> <Probability>
0.00

> <Sum Probability>
100.00

> <Delta G>
5.339

> <G>
29.049

> <E>
-4.379

> <-TS>
33.428

> <U+W>
-25.841

> <U>
27.602

> <W>
-53.443

> <W(PB)>
-55.679

> <W(SA)>
2.236

> <Valence>
6.052

> <Coulomb>
21.011

> <VdW>
0.540

> <VdW6>
-9.881

> <VdW12>
10.420

> <Bond>
0.319

> <Angle>
2.619

> <Pdih>
3.114

> <Idih>
0.000

> <Tether>
0.000

$$$$
VeraChem MOL file


 26 25  0  0  0  0  0  0  0  0999 V2000     
   20.0038   20.4644   20.8048 C   0  0  0  0  0  0  0  0  0  0  0  0
   19.3333   20.6959   21.6394 H   0  0  0  0  0  0  0  0  0  0  0  0
   20.6933   21.3096   20.6824 H   0  0  0  0  0  0  0  0  0  0  0  0
   19.3927   20.3994   19.8952 H   0  0  0  0  0  0  0  0  0  0  0  0
   20.7888   19.1513   21.0319 C   0  0  0  0  0  0  0  0  0  0  0  0
   21.5008   19.2599   21.8609 H   0  0  0  0  0  0  0  0  0  0  0  0
   21.4009   18.9670   20.1378 H   0  0  0  0  0  0  0  0  0  0  0  0
   19.8696   17.9254   21.2619 C   0  0  0  0  0  0  0  0  0  0  0  0
   18.9049   18.0761   20.7580 H   0  0  0  0  0  0  0  0  0  0  0  0
   20.3280   17.0617   20.7604 H   0  0  0  0  0  0  0  0  0  0  0  0
   19.6372   17.5273   22.7445 C   0  0  0  0  0  0  0  0  0  0  0  0
   20.5918   17.2512   23.2102 H   0  0  0  0  0  0  0  0  0  0  0  0
   19.0395   16.6053   22.7426 H   0  0  0  0  0  0  0  0  0  0  0  0
   18.8846   18.5734   23.6100 C   0  0  0  0  0  0  0  0  0  0  0  0
   18.0863   19.0287   23.0093 H   0  0  0  0  0  0  0  0  0  0  0  0
   18.3789   18.0506   24.4327 H   0  0  0  0  0  0  0  0  0  0  0  0
   19.7839   19.6748   24.2175 C   0  0  1  0  0  0  0  0  0  0  0  0
   20.3471   20.1527   23.4126 H   0  0  0  0  0  0  0  0  0  0  0  0
   18.9227   20.7489   24.9007 C   0  0  0  0  0  0  0  0  0  0  0  0
   18.2245   21.2020   24.1860 H   0  0  0  0  0  0  0  0  0  0  0  0
   19.5516   21.5516   25.3051 H   0  0  0  0  0  0  0  0  0  0  0  0
   18.3383   20.3236   25.7262 H   0  0  0  0  0  0  0  0  0  0  0  0
   20.7975   19.1226   25.1827 N   0  3  0  0  0  0  0  0  0  0  0  0
   21.3955   19.8623   25.5616 H   0  0  0  0  0  0  0  0  0  0  0  0
   20.3442   18.6600   25.9751 H   0  0  0  0  0  0  0  0  0  0  0  0
   21.4078   18.4354   24.7330 H   0  0  0  0  0  0  0  0  0  0  0  0
  1  2  1  0  0  0  0
  1  3  1  0  0  0  0
  1  4  1  0  0  0  0
  1  5  1  0  0  0  0
  5  6  1  0  0  0  0
  5  7  1  0  0  0  0
  5  8  1  0  0  0  0
  8  9  1  0  0  0  0
  8 10  1  0  0  0  0
  8 11  1  0  0  0  0
 11 12  1  0  0  0  0
 11 13  1  0  0  0  0
 11 14  1  0  0  0  0
 14 15  1  0  0  0  0
 14 16  1  0  0  0  0
 14 17  1  0  0  0  0
 17 18  1  0  0  0  0
 17 19  1  0  0  0  0
 19 20  1  0  0  0  0
 19 21  1  0  0  0  0
 19 22  1  0  0  0  0
 17 23  1  0  0  0  0
 23 24  1  0  0  0  0
 23 25  1  0  0  0  0
 23 26  1  0  0  0  0
M  END
> <VM2 Rank>
84

> <Conf_Id>
369

> <Probability>
0.00

> <Sum Probability>
100.00

> <Delta G>
5.964

> <G>
29.674

> <E>
-3.801

> <-TS>
33.476

> <U+W>
-25.263

> <U>
29.018

> <W>
-54.281

> <W(PB)>
-56.489

> <W(SA)>
2.207

> <Valence>
7.756

> <Coulomb>
20.779

> <VdW>
0.484

> <VdW6>
-10.173

> <VdW12>
10.657

> <Bond>
0.300

> <Angle>
2.387

> <Pdih>
5.069

> <Idih>
0.000

> <Tether>
0.000

$$$$
VeraChem MOL file


 26 25  0  0  0  0  0  0  0  0999 V2000     
   19.1228   18.4514   20.2128 C   0  0  0  0  0  0  0  0  0  0  0  0
   18.8003   17.5953   20.8193 H   0  0  0  0  0  0  0  0  0  0  0  0
   18.5446   19.3323   20.5181 H   0  0  0  0  0  0  0  0  0  0  0  0
   18.8678   18.2364   19.1670 H   0  0  0  0  0  0  0  0  0  0  0  0
   20.6408   18.6966   20.3589 C   0  0  0  0  0  0  0  0  0  0  0  0
   20.9282   19.5741   19.7630 H   0  0  0  0  0  0  0  0  0  0  0  0
   21.1795   17.8434   19.9234 H   0  0  0  0  0  0  0  0  0  0  0  0
   21.1130   18.8844   21.8230 C   0  0  0  0  0  0  0  0  0  0  0  0
   20.9031   17.9717   22.3936 H   0  0  0  0  0  0  0  0  0  0  0  0
   22.2072   18.9845   21.8086 H   0  0  0  0  0  0  0  0  0  0  0  0
   20.5200   20.1346   22.5289 C   0  0  0  0  0  0  0  0  0  0  0  0
   20.3045   20.9015   21.7721 H   0  0  0  0  0  0  0  0  0  0  0  0
   21.2821   20.5815   23.1823 H   0  0  0  0  0  0  0  0  0  0  0  0
   19.2380   19.8640   23.3630 C   0  0  0  0  0  0  0  0  0  0  0  0
   18.6254   20.7752   23.3460 H   0  0  0  0  0  0  0  0  0  0  0  0
   18.6280   19.0803   22.8981 H   0  0  0  0  0  0  0  0  0  0  0  0
   19.5176   19.5083   24.8417 C   0  0  1  0  0  0  0  0  0  0  0  0
   20.1009   20.3232   25.2814 H   0  0  0  0  0  0  0  0  0  0  0  0
   18.1976   19.3890   25.6203 C   0  0  0  0  0  0  0  0  0  0  0  0
   18.3892   19.1800   26.6800 H   0  0  0  0  0  0  0  0  0  0  0  0
   17.5723   18.5812   25.2202 H   0  0  0  0  0  0  0  0  0  0  0  0
   17.6256   20.3236   25.5641 H   0  0  0  0  0  0  0  0  0  0  0  0
   20.3382   18.2597   25.0054 N   0  3  0  0  0  0  0  0  0  0  0  0
   21.2323   18.3398   24.5134 H   0  0  0  0  0  0  0  0  0  0  0  0
   20.5435   18.0729   25.9910 H   0  0  0  0  0  0  0  0  0  0  0  0
   19.8496   17.4417   24.6323 H   0  0  0  0  0  0  0  0  0  0  0  0
  1  2  1  0  0  0  0
  1  3  1  0  0  0  0
  1  4  1  0  0  0  0
  1  5  1  0  0  0  0
  5  6  1  0  0  0  0
  5  7  1  0  0  0  0
  5  8  1  0  0  0  0
  8  9  1  0  0  0  0
  8 10  1  0  0  0  0
  8 11  1  0  0  0  0
 11 12  1  0  0  0  0
 11 13  1  0  0  0  0
 11 14  1  0  0  0  0
 14 15  1  0  0  0  0
 14 16  1  0  0  0  0
 14 17  1  0  0  0  0
 17 18  1  0  0  0  0
 17 19  1  0  0  0  0
 19 20  1  0  0  0  0
 19 21  1  0  0  0  0
 19 22  1  0  0  0  0
 17 23  1  0  0  0  0
 23 24  1  0  0  0  0
 23 25  1  0  0  0  0
 23 26  1  0  0  0  0
M  END
> <VM2 Rank>
85

> <Conf_Id>
825

> <Probability>
0.00

> <Sum Probability>
100.00

> <Delta G>
6.148

> <G>
29.858

> <E>
-3.254

> <-TS>
33.111

> <U+W>
-24.715

> <U>
29.339

> <W>
-54.054

> <W(PB)>
-56.307

> <W(SA)>
2.253

> <Valence>
7.538

> <Coulomb>
20.791

> <VdW>
1.011

> <VdW6>
-9.264

> <VdW12>
10.275

> <Bond>
0.315

> <Angle>
1.806

> <Pdih>
5.416

> <Idih>
0.000

> <Tether>
0.000

$$$$
VeraChem MOL file


 26 25  0  0  0  0  0  0  0  0999 V2000     
   21.5063   18.5800   21.1446 C   0  0  0  0  0  0  0  0  0  0  0  0
   21.3987   18.0449   22.0942 H   0  0  0  0  0  0  0  0  0  0  0  0
   21.4560   17.8377   20.3374 H   0  0  0  0  0  0  0  0  0  0  0  0
   22.5075   19.0294   21.1215 H   0  0  0  0  0  0  0  0  0  0  0  0
   20.4189   19.6639   20.9595 C   0  0  0  0  0  0  0  0  0  0  0  0
   20.5575   20.1140   19.9664 H   0  0  0  0  0  0  0  0  0  0  0  0
   20.5567   20.4832   21.6778 H   0  0  0  0  0  0  0  0  0  0  0  0
   18.9794   19.0984   21.0503 C   0  0  0  0  0  0  0  0  0  0  0  0
   18.3680   19.6099   20.2939 H   0  0  0  0  0  0  0  0  0  0  0  0
   18.9698   18.0378   20.7633 H   0  0  0  0  0  0  0  0  0  0  0  0
   18.2704   19.2844   22.4190 C   0  0  0  0  0  0  0  0  0  0  0  0
   17.2420   18.9157   22.3023 H   0  0  0  0  0  0  0  0  0  0  0  0
   18.1668   20.3531   22.6422 H   0  0  0  0  0  0  0  0  0  0  0  0
   18.9061   18.5241   23.6150 C   0  0  0  0  0  0  0  0  0  0  0  0
   18.1318   18.3574   24.3756 H   0  0  0  0  0  0  0  0  0  0  0  0
   19.2076   17.5249   23.2746 H   0  0  0  0  0  0  0  0  0  0  0  0
   20.1076   19.2261   24.2937 C   0  0  1  0  0  0  0  0  0  0  0  0
   20.8413   19.4884   23.5281 H   0  0  0  0  0  0  0  0  0  0  0  0
   19.6913   20.5147   25.0260 C   0  0  0  0  0  0  0  0  0  0  0  0
   19.3095   21.2685   24.3287 H   0  0  0  0  0  0  0  0  0  0  0  0
   20.5510   20.9594   25.5424 H   0  0  0  0  0  0  0  0  0  0  0  0
   18.9140   20.3133   25.7736 H   0  0  0  0  0  0  0  0  0  0  0  0
   20.8079   18.2963   25.2459 N   0  3  0  0  0  0  0  0  0  0  0  0
   21.1325   17.4468   24.7757 H   0  0  0  0  0  0  0  0  0  0  0  0
   21.6264   18.7419   25.6701 H   0  0  0  0  0  0  0  0  0  0  0  0
   20.1892   18.0078   26.0086 H   0  0  0  0  0  0  0  0  0  0  0  0
  1  2  1  0  0  0  0
  1  3  1  0  0  0  0
  1  4  1  0  0  0  0
  1  5  1  0  0  0  0
  5  6  1  0  0  0  0
  5  7  1  0  0  0  0
  5  8  1  0  0  0  0
  8  9  1  0  0  0  0
  8 10  1  0  0  0  0
  8 11  1  0  0  0  0
 11 12  1  0  0  0  0
 11 13  1  0  0  0  0
 11 14  1  0  0  0  0
 14 15  1  0  0  0  0
 14 16  1  0  0  0  0
 14 17  1  0  0  0  0
 17 18  1  0  0  0  0
 17 19  1  0  0  0  0
 19 20  1  0  0  0  0
 19 21  1  0  0  0  0
 19 22  1  0  0  0  0
 17 23  1  0  0  0  0
 23 24  1  0  0  0  0
 23 25  1  0  0  0  0
 23 26  1  0  0  0  0
M  END
> <VM2 Rank>
86

> <Conf_Id>
390

> <Probability>
0.00

> <Sum Probability>
100.00

> <Delta G>
6.573

> <G>
30.282

> <E>
-3.100

> <-TS>
33.382

> <U+W>
-24.562

> <U>
29.944

> <W>
-54.506

> <W(PB)>
-56.701

> <W(SA)>
2.195

> <Valence>
8.447

> <Coulomb>
20.858

> <VdW>
0.639

> <VdW6>
-10.246

> <VdW12>
10.886

> <Bond>
0.318

> <Angle>
2.793

> <Pdih>
5.337

> <Idih>
0.000

> <Tether>
0.000

$$$$
VeraChem MOL file


 26 25  0  0  0  0  0  0  0  0999 V2000     
   21.4425   18.0967   20.3361 C   0  0  0  0  0  0  0  0  0  0  0  0
   20.9370   17.8849   19.3847 H   0  0  0  0  0  0  0  0  0  0  0  0
   22.4842   18.3604   20.1114 H   0  0  0  0  0  0  0  0  0  0  0  0
   21.4496   17.1741   20.9307 H   0  0  0  0  0  0  0  0  0  0  0  0
   20.7409   19.2450   21.0913 C   0  0  0  0  0  0  0  0  0  0  0  0
   20.7837   20.1578   20.4804 H   0  0  0  0  0  0  0  0  0  0  0  0
   21.2960   19.4719   22.0093 H   0  0  0  0  0  0  0  0  0  0  0  0
   19.2614   18.9079   21.3988 C   0  0  0  0  0  0  0  0  0  0  0  0
   18.7220   18.8610   20.4424 H   0  0  0  0  0  0  0  0  0  0  0  0
   19.1633   17.9070   21.8395 H   0  0  0  0  0  0  0  0  0  0  0  0
   18.5717   19.9627   22.3013 C   0  0  0  0  0  0  0  0  0  0  0  0
   17.5366   20.0812   21.9520 H   0  0  0  0  0  0  0  0  0  0  0  0
   19.0416   20.9461   22.1610 H   0  0  0  0  0  0  0  0  0  0  0  0
   18.5119   19.6160   23.8145 C   0  0  0  0  0  0  0  0  0  0  0  0
   17.9350   20.4123   24.3037 H   0  0  0  0  0  0  0  0  0  0  0  0
   17.9334   18.6950   23.9654 H   0  0  0  0  0  0  0  0  0  0  0  0
   19.8814   19.4930   24.5227 C   0  0  1  0  0  0  0  0  0  0  0  0
   20.5391   20.2806   24.1423 H   0  0  0  0  0  0  0  0  0  0  0  0
   19.7213   19.6901   26.0391 C   0  0  0  0  0  0  0  0  0  0  0  0
   19.0549   18.9321   26.4697 H   0  0  0  0  0  0  0  0  0  0  0  0
   19.3036   20.6796   26.2629 H   0  0  0  0  0  0  0  0  0  0  0  0
   20.6921   19.6190   26.5450 H   0  0  0  0  0  0  0  0  0  0  0  0
   20.5569   18.1766   24.2503 N   0  3  0  0  0  0  0  0  0  0  0  0
   20.6767   18.0285   23.2437 H   0  0  0  0  0  0  0  0  0  0  0  0
   21.4826   18.1331   24.6864 H   0  0  0  0  0  0  0  0  0  0  0  0
   20.0079   17.3945   24.6172 H   0  0  0  0  0  0  0  0  0  0  0  0
  1  2  1  0  0  0  0
  1  3  1  0  0  0  0
  1  4  1  0  0  0  0
  1  5  1  0  0  0  0
  5  6  1  0  0  0  0
  5  7  1  0  0  0  0
  5  8  1  0  0  0  0
  8  9  1  0  0  0  0
  8 10  1  0  0  0  0
  8 11  1  0  0  0  0
 11 12  1  0  0  0  0
 11 13  1  0  0  0  0
 11 14  1  0  0  0  0
 14 15  1  0  0  0  0
 14 16  1  0  0  0  0
 14 17  1  0  0  0  0
 17 18  1  0  0  0  0
 17 19  1  0  0  0  0
 19 20  1  0  0  0  0
 19 21  1  0  0  0  0
 19 22  1  0  0  0  0
 17 23  1  0  0  0  0
 23 24  1  0  0  0  0
 23 25  1  0  0  0  0
 23 26  1  0  0  0  0
M  END
> <VM2 Rank>
87

> <Conf_Id>
293

> <Probability>
0.00

> <Sum Probability>
100.00

> <Delta G>
7.071

> <G>
30.781

> <E>
-2.480

> <-TS>
33.261

> <U+W>
-23.942

> <U>
28.935

> <W>
-52.876

> <W(PB)>
-55.147

> <W(SA)>
2.271

> <Valence>
7.029

> <Coulomb>
21.124

> <VdW>
0.782

> <VdW6>
-9.551

> <VdW12>
10.332

> <Bond>
0.264

> <Angle>
2.108

> <Pdih>
4.656

> <Idih>
0.000

> <Tether>
0.000

$$$$
VeraChem MOL file


 26 25  0  0  0  0  0  0  0  0999 V2000     
   19.4756   17.6704   20.6351 C   0  0  0  0  0  0  0  0  0  0  0  0
   19.8982   16.8930   19.9856 H   0  0  0  0  0  0  0  0  0  0  0  0
   19.4892   17.2897   21.6625 H   0  0  0  0  0  0  0  0  0  0  0  0
   18.4276   17.8159   20.3422 H   0  0  0  0  0  0  0  0  0  0  0  0
   20.2753   18.9864   20.4955 C   0  0  0  0  0  0  0  0  0  0  0  0
   20.2348   19.3005   19.4431 H   0  0  0  0  0  0  0  0  0  0  0  0
   21.3374   18.8098   20.7154 H   0  0  0  0  0  0  0  0  0  0  0  0
   19.7193   20.1332   21.3794 C   0  0  0  0  0  0  0  0  0  0  0  0
   19.6844   21.0449   20.7670 H   0  0  0  0  0  0  0  0  0  0  0  0
   18.6765   19.9317   21.6491 H   0  0  0  0  0  0  0  0  0  0  0  0
   20.5770   20.4538   22.6351 C   0  0  0  0  0  0  0  0  0  0  0  0
   20.1786   21.3488   23.1324 H   0  0  0  0  0  0  0  0  0  0  0  0
   21.5805   20.7368   22.2882 H   0  0  0  0  0  0  0  0  0  0  0  0
   20.7297   19.3106   23.6763 C   0  0  0  0  0  0  0  0  0  0  0  0
   20.7768   18.3349   23.1817 H   0  0  0  0  0  0  0  0  0  0  0  0
   21.7091   19.4374   24.1561 H   0  0  0  0  0  0  0  0  0  0  0  0
   19.6722   19.2931   24.8070 C   0  0  1  0  0  0  0  0  0  0  0  0
   19.7172   20.2539   25.3289 H   0  0  0  0  0  0  0  0  0  0  0  0
   18.2362   19.0972   24.2937 C   0  0  0  0  0  0  0  0  0  0  0  0
   17.5408   18.9610   25.1310 H   0  0  0  0  0  0  0  0  0  0  0  0
   18.1605   18.2186   23.6417 H   0  0  0  0  0  0  0  0  0  0  0  0
   17.8965   19.9785   23.7389 H   0  0  0  0  0  0  0  0  0  0  0  0
   20.0027   18.2434   25.8319 N   0  3  0  0  0  0  0  0  0  0  0  0
   20.9373   18.3823   26.2266 H   0  0  0  0  0  0  0  0  0  0  0  0
   19.3385   18.2594   26.6109 H   0  0  0  0  0  0  0  0  0  0  0  0
   19.9760   17.3037   25.4273 H   0  0  0  0  0  0  0  0  0  0  0  0
  1  2  1  0  0  0  0
  1  3  1  0  0  0  0
  1  4  1  0  0  0  0
  1  5  1  0  0  0  0
  5  6  1  0  0  0  0
  5  7  1  0  0  0  0
  5  8  1  0  0  0  0
  8  9  1  0  0  0  0
  8 10  1  0  0  0  0
  8 11  1  0  0  0  0
 11 12  1  0  0  0  0
 11 13  1  0  0  0  0
 11 14  1  0  0  0  0
 14 15  1  0  0  0  0
 14 16  1  0  0  0  0
 14 17  1  0  0  0  0
 17 18  1  0  0  0  0
 17 19  1  0  0  0  0
 19 20  1  0  0  0  0
 19 21  1  0  0  0  0
 19 22  1  0  0  0  0
 17 23  1  0  0  0  0
 23 24  1  0  0  0  0
 23 25  1  0  0  0  0
 23 26  1  0  0  0  0
M  END
> <VM2 Rank>
88

> <Conf_Id>
735

> <Probability>
0.00

> <Sum Probability>
100.00

> <Delta G>
7.219

> <G>
30.929

> <E>
-2.287

> <-TS>
33.216

> <U+W>
-23.749

> <U>
30.750

> <W>
-54.498

> <W(PB)>
-56.711

> <W(SA)>
2.212

> <Valence>
9.482

> <Coulomb>
20.298

> <VdW>
0.970

> <VdW6>
-9.658

> <VdW12>
10.628

> <Bond>
0.353

> <Angle>
2.952

> <Pdih>
6.177

> <Idih>
0.000

> <Tether>
0.000

$$$$
VeraChem MOL file


 26 25  0  0  0  0  0  0  0  0999 V2000     
   20.9180   19.5748   19.9553 C   0  0  0  0  0  0  0  0  0  0  0  0
   20.5579   18.9704   19.1127 H   0  0  0  0  0  0  0  0  0  0  0  0
   20.2476   20.4354   20.0685 H   0  0  0  0  0  0  0  0  0  0  0  0
   21.9106   19.9607   19.6893 H   0  0  0  0  0  0  0  0  0  0  0  0
   20.9936   18.7337   21.2501 C   0  0  0  0  0  0  0  0  0  0  0  0
   21.3812   19.3612   22.0619 H   0  0  0  0  0  0  0  0  0  0  0  0
   21.7269   17.9290   21.0997 H   0  0  0  0  0  0  0  0  0  0  0  0
   19.6307   18.1030   21.6376 C   0  0  0  0  0  0  0  0  0  0  0  0
   19.2053   17.6317   20.7406 H   0  0  0  0  0  0  0  0  0  0  0  0
   19.7787   17.2791   22.3481 H   0  0  0  0  0  0  0  0  0  0  0  0
   18.5978   19.1116   22.2079 C   0  0  0  0  0  0  0  0  0  0  0  0
   17.6056   18.8245   21.8331 H   0  0  0  0  0  0  0  0  0  0  0  0
   18.7784   20.1181   21.8093 H   0  0  0  0  0  0  0  0  0  0  0  0
   18.5052   19.1752   23.7569 C   0  0  0  0  0  0  0  0  0  0  0  0
   17.6803   19.8581   24.0008 H   0  0  0  0  0  0  0  0  0  0  0  0
   18.2085   18.1967   24.1571 H   0  0  0  0  0  0  0  0  0  0  0  0
   19.7830   19.6689   24.4745 C   0  0  1  0  0  0  0  0  0  0  0  0
   20.2244   20.4740   23.8791 H   0  0  0  0  0  0  0  0  0  0  0  0
   19.4370   20.2306   25.8634 C   0  0  0  0  0  0  0  0  0  0  0  0
   18.7401   21.0740   25.7815 H   0  0  0  0  0  0  0  0  0  0  0  0
   20.3387   20.5951   26.3710 H   0  0  0  0  0  0  0  0  0  0  0  0
   18.9736   19.4642   26.4973 H   0  0  0  0  0  0  0  0  0  0  0  0
   20.8228   18.5902   24.6082 N   0  3  0  0  0  0  0  0  0  0  0  0
   21.6813   18.9480   25.0368 H   0  0  0  0  0  0  0  0  0  0  0  0
   20.4862   17.8206   25.1931 H   0  0  0  0  0  0  0  0  0  0  0  0
   21.0673   18.2010   23.6937 H   0  0  0  0  0  0  0  0  0  0  0  0
  1  2  1  0  0  0  0
  1  3  1  0  0  0  0
  1  4  1  0  0  0  0
  1  5  1  0  0  0  0
  5  6  1  0  0  0  0
  5  7  1  0  0  0  0
  5  8  1  0  0  0  0
  8  9  1  0  0  0  0
  8 10  1  0  0  0  0
  8 11  1  0  0  0  0
 11 12  1  0  0  0  0
 11 13  1  0  0  0  0
 11 14  1  0  0  0  0
 14 15  1  0  0  0  0
 14 16  1  0  0  0  0
 14 17  1  0  0  0  0
 17 18  1  0  0  0  0
 17 19  1  0  0  0  0
 19 20  1  0  0  0  0
 19 21  1  0  0  0  0
 19 22  1  0  0  0  0
 17 23  1  0  0  0  0
 23 24  1  0  0  0  0
 23 25  1  0  0  0  0
 23 26  1  0  0  0  0
M  END
> <VM2 Rank>
89

> <Conf_Id>
1090

> <Probability>
0.00

> <Sum Probability>
100.00

> <Delta G>
7.300

> <G>
31.010

> <E>
-2.223

> <-TS>
33.233

> <U+W>
-23.685

> <U>
30.033

> <W>
-53.719

> <W(PB)>
-55.956

> <W(SA)>
2.237

> <Valence>
7.748

> <Coulomb>
21.341

> <VdW>
0.945

> <VdW6>
-9.748

> <VdW12>
10.694

> <Bond>
0.311

> <Angle>
2.245

> <Pdih>
5.192

> <Idih>
0.000

> <Tether>
0.000

$$$$
VeraChem MOL file


 26 25  0  0  0  0  0  0  0  0999 V2000     
   19.5268   17.8560   20.0289 C   0  0  0  0  0  0  0  0  0  0  0  0
   19.6772   18.4731   19.1335 H   0  0  0  0  0  0  0  0  0  0  0  0
   19.8299   16.8295   19.7854 H   0  0  0  0  0  0  0  0  0  0  0  0
   18.4536   17.8446   20.2598 H   0  0  0  0  0  0  0  0  0  0  0  0
   20.3447   18.3979   21.2199 C   0  0  0  0  0  0  0  0  0  0  0  0
   21.4144   18.3636   20.9694 H   0  0  0  0  0  0  0  0  0  0  0  0
   20.2048   17.7360   22.0823 H   0  0  0  0  0  0  0  0  0  0  0  0
   19.9428   19.8497   21.5737 C   0  0  0  0  0  0  0  0  0  0  0  0
   20.1556   20.4825   20.7008 H   0  0  0  0  0  0  0  0  0  0  0  0
   18.8596   19.9270   21.7351 H   0  0  0  0  0  0  0  0  0  0  0  0
   20.7148   20.4190   22.7917 C   0  0  0  0  0  0  0  0  0  0  0  0
   21.0511   21.4299   22.5227 H   0  0  0  0  0  0  0  0  0  0  0  0
   21.6398   19.8534   22.9651 H   0  0  0  0  0  0  0  0  0  0  0  0
   19.8946   20.5513   24.1081 C   0  0  0  0  0  0  0  0  0  0  0  0
   20.5063   21.1288   24.8135 H   0  0  0  0  0  0  0  0  0  0  0  0
   19.0053   21.1699   23.9285 H   0  0  0  0  0  0  0  0  0  0  0  0
   19.4800   19.2473   24.8363 C   0  0  1  0  0  0  0  0  0  0  0  0
   19.2559   19.5281   25.8702 H   0  0  0  0  0  0  0  0  0  0  0  0
   18.1903   18.6255   24.2710 C   0  0  0  0  0  0  0  0  0  0  0  0
   18.3232   18.2334   23.2592 H   0  0  0  0  0  0  0  0  0  0  0  0
   17.3807   19.3652   24.2462 H   0  0  0  0  0  0  0  0  0  0  0  0
   17.8576   17.7958   24.9066 H   0  0  0  0  0  0  0  0  0  0  0  0
   20.5941   18.2413   24.9244 N   0  3  0  0  0  0  0  0  0  0  0  0
   20.3095   17.4120   25.4534 H   0  0  0  0  0  0  0  0  0  0  0  0
   20.8860   17.9336   23.9942 H   0  0  0  0  0  0  0  0  0  0  0  0
   21.4159   18.6353   25.3913 H   0  0  0  0  0  0  0  0  0  0  0  0
  1  2  1  0  0  0  0
  1  3  1  0  0  0  0
  1  4  1  0  0  0  0
  1  5  1  0  0  0  0
  5  6  1  0  0  0  0
  5  7  1  0  0  0  0
  5  8  1  0  0  0  0
  8  9  1  0  0  0  0
  8 10  1  0  0  0  0
  8 11  1  0  0  0  0
 11 12  1  0  0  0  0
 11 13  1  0  0  0  0
 11 14  1  0  0  0  0
 14 15  1  0  0  0  0
 14 16  1  0  0  0  0
 14 17  1  0  0  0  0
 17 18  1  0  0  0  0
 17 19  1  0  0  0  0
 19 20  1  0  0  0  0
 19 21  1  0  0  0  0
 19 22  1  0  0  0  0
 17 23  1  0  0  0  0
 23 24  1  0  0  0  0
 23 25  1  0  0  0  0
 23 26  1  0  0  0  0
M  END
> <VM2 Rank>
90

> <Conf_Id>
550

> <Probability>
0.00

> <Sum Probability>
100.00

> <Delta G>
7.526

> <G>
31.236

> <E>
-2.127

> <-TS>
33.363

> <U+W>
-23.589

> <U>
30.698

> <W>
-54.287

> <W(PB)>
-56.480

> <W(SA)>
2.193

> <Valence>
8.810

> <Coulomb>
21.309

> <VdW>
0.579

> <VdW6>
-9.948

> <VdW12>
10.527

> <Bond>
0.332

> <Angle>
3.013

> <Pdih>
5.465

> <Idih>
0.000

> <Tether>
0.000

$$$$
VeraChem MOL file


 26 25  0  0  0  0  0  0  0  0999 V2000     
   19.7446   17.4944   21.0070 C   0  0  0  0  0  0  0  0  0  0  0  0
   19.2515   16.9639   20.1821 H   0  0  0  0  0  0  0  0  0  0  0  0
   20.6104   16.8938   21.3144 H   0  0  0  0  0  0  0  0  0  0  0  0
   19.0343   17.5303   21.8385 H   0  0  0  0  0  0  0  0  0  0  0  0
   20.1796   18.9057   20.5495 C   0  0  0  0  0  0  0  0  0  0  0  0
   19.3034   19.4928   20.2411 H   0  0  0  0  0  0  0  0  0  0  0  0
   20.7945   18.7880   19.6460 H   0  0  0  0  0  0  0  0  0  0  0  0
   21.0093   19.6862   21.6021 C   0  0  0  0  0  0  0  0  0  0  0  0
   21.6212   19.0030   22.2008 H   0  0  0  0  0  0  0  0  0  0  0  0
   21.7371   20.3002   21.0536 H   0  0  0  0  0  0  0  0  0  0  0  0
   20.1932   20.6595   22.4966 C   0  0  0  0  0  0  0  0  0  0  0  0
   19.7102   21.3947   21.8381 H   0  0  0  0  0  0  0  0  0  0  0  0
   20.8909   21.2396   23.1164 H   0  0  0  0  0  0  0  0  0  0  0  0
   19.1006   20.0494   23.4157 C   0  0  0  0  0  0  0  0  0  0  0  0
   18.4805   20.8852   23.7661 H   0  0  0  0  0  0  0  0  0  0  0  0
   18.4201   19.4082   22.8451 H   0  0  0  0  0  0  0  0  0  0  0  0
   19.6375   19.3118   24.6658 C   0  0  1  0  0  0  0  0  0  0  0  0
   20.3816   19.9544   25.1462 H   0  0  0  0  0  0  0  0  0  0  0  0
   18.4975   19.0666   25.6679 C   0  0  0  0  0  0  0  0  0  0  0  0
   17.7153   18.4327   25.2318 H   0  0  0  0  0  0  0  0  0  0  0  0
   18.0373   20.0136   25.9764 H   0  0  0  0  0  0  0  0  0  0  0  0
   18.8741   18.5720   26.5718 H   0  0  0  0  0  0  0  0  0  0  0  0
   20.3257   18.0145   24.3494 N   0  3  0  0  0  0  0  0  0  0  0  0
   21.0961   18.1570   23.6929 H   0  0  0  0  0  0  0  0  0  0  0  0
   20.7126   17.5813   25.1928 H   0  0  0  0  0  0  0  0  0  0  0  0
   19.6784   17.3446   23.9272 H   0  0  0  0  0  0  0  0  0  0  0  0
  1  2  1  0  0  0  0
  1  3  1  0  0  0  0
  1  4  1  0  0  0  0
  1  5  1  0  0  0  0
  5  6  1  0  0  0  0
  5  7  1  0  0  0  0
  5  8  1  0  0  0  0
  8  9  1  0  0  0  0
  8 10  1  0  0  0  0
  8 11  1  0  0  0  0
 11 12  1  0  0  0  0
 11 13  1  0  0  0  0
 11 14  1  0  0  0  0
 14 15  1  0  0  0  0
 14 16  1  0  0  0  0
 14 17  1  0  0  0  0
 17 18  1  0  0  0  0
 17 19  1  0  0  0  0
 19 20  1  0  0  0  0
 19 21  1  0  0  0  0
 19 22  1  0  0  0  0
 17 23  1  0  0  0  0
 23 24  1  0  0  0  0
 23 25  1  0  0  0  0
 23 26  1  0  0  0  0
M  END
> <VM2 Rank>
91

> <Conf_Id>
1004

> <Probability>
0.00

> <Sum Probability>
100.00

> <Delta G>
7.609

> <G>
31.319

> <E>
-1.648

> <-TS>
32.967

> <U+W>
-23.110

> <U>
30.162

> <W>
-53.272

> <W(PB)>
-55.469

> <W(SA)>
2.197

> <Valence>
7.945

> <Coulomb>
21.781

> <VdW>
0.435

> <VdW6>
-10.033

> <VdW12>
10.468

> <Bond>
0.353

> <Angle>
3.282

> <Pdih>
4.310

> <Idih>
0.000

> <Tether>
0.000

$$$$
VeraChem MOL file


 26 25  0  0  0  0  0  0  0  0999 V2000     
   20.4649   17.6308   20.2300 C   0  0  0  0  0  0  0  0  0  0  0  0
   19.8939   16.7594   19.8839 H   0  0  0  0  0  0  0  0  0  0  0  0
   20.8041   18.1836   19.3441 H   0  0  0  0  0  0  0  0  0  0  0  0
   21.3516   17.2627   20.7621 H   0  0  0  0  0  0  0  0  0  0  0  0
   19.5972   18.5240   21.1412 C   0  0  0  0  0  0  0  0  0  0  0  0
   19.2331   17.9306   21.9873 H   0  0  0  0  0  0  0  0  0  0  0  0
   18.7044   18.8464   20.5870 H   0  0  0  0  0  0  0  0  0  0  0  0
   20.3758   19.7703   21.6268 C   0  0  0  0  0  0  0  0  0  0  0  0
   21.3443   19.4851   22.0581 H   0  0  0  0  0  0  0  0  0  0  0  0
   20.6177   20.3805   20.7453 H   0  0  0  0  0  0  0  0  0  0  0  0
   19.5745   20.6474   22.6247 C   0  0  0  0  0  0  0  0  0  0  0  0
   18.4964   20.4648   22.5248 H   0  0  0  0  0  0  0  0  0  0  0  0
   19.7120   21.6960   22.3263 H   0  0  0  0  0  0  0  0  0  0  0  0
   20.0188   20.5372   24.1123 C   0  0  0  0  0  0  0  0  0  0  0  0
   21.0869   20.7794   24.1888 H   0  0  0  0  0  0  0  0  0  0  0  0
   19.5031   21.3257   24.6761 H   0  0  0  0  0  0  0  0  0  0  0  0
   19.7558   19.1963   24.8418 C   0  0  1  0  0  0  0  0  0  0  0  0
   20.0342   19.3456   25.8896 H   0  0  0  0  0  0  0  0  0  0  0  0
   18.2677   18.8044   24.8229 C   0  0  0  0  0  0  0  0  0  0  0  0
   17.9160   18.5725   23.8118 H   0  0  0  0  0  0  0  0  0  0  0  0
   17.6485   19.6181   25.2205 H   0  0  0  0  0  0  0  0  0  0  0  0
   18.0954   17.9206   25.4493 H   0  0  0  0  0  0  0  0  0  0  0  0
   20.6334   18.0776   24.3544 N   0  3  0  0  0  0  0  0  0  0  0  0
   20.4363   17.2029   24.8492 H   0  0  0  0  0  0  0  0  0  0  0  0
   20.4947   17.9142   23.3538 H   0  0  0  0  0  0  0  0  0  0  0  0
   21.6244   18.2931   24.4965 H   0  0  0  0  0  0  0  0  0  0  0  0
  1  2  1  0  0  0  0
  1  3  1  0  0  0  0
  1  4  1  0  0  0  0
  1  5  1  0  0  0  0
  5  6  1  0  0  0  0
  5  7  1  0  0  0  0
  5  8  1  0  0  0  0
  8  9  1  0  0  0  0
  8 10  1  0  0  0  0
  8 11  1  0  0  0  0
 11 12  1  0  0  0  0
 11 13  1  0  0  0  0
 11 14  1  0  0  0  0
 14 15  1  0  0  0  0
 14 16  1  0  0  0  0
 14 17  1  0  0  0  0
 17 18  1  0  0  0  0
 17 19  1  0  0  0  0
 19 20  1  0  0  0  0
 19 21  1  0  0  0  0
 19 22  1  0  0  0  0
 17 23  1  0  0  0  0
 23 24  1  0  0  0  0
 23 25  1  0  0  0  0
 23 26  1  0  0  0  0
M  END
> <VM2 Rank>
92

> <Conf_Id>
764

> <Probability>
0.00

> <Sum Probability>
100.00

> <Delta G>
7.754

> <G>
31.464

> <E>
-2.237

> <-TS>
33.701

> <U+W>
-23.699

> <U>
29.525

> <W>
-53.224

> <W(PB)>
-55.435

> <W(SA)>
2.211

> <Valence>
7.633

> <Coulomb>
21.335

> <VdW>
0.556

> <VdW6>
-10.324

> <VdW12>
10.880

> <Bond>
0.326

> <Angle>
2.670

> <Pdih>
4.637

> <Idih>
0.000

> <Tether>
0.000

$$$$
VeraChem MOL file


 26 25  0  0  0  0  0  0  0  0999 V2000     
   18.8707   19.3335   20.4890 C   0  0  0  0  0  0  0  0  0  0  0  0
   19.0639   20.3882   20.7147 H   0  0  0  0  0  0  0  0  0  0  0  0
   18.4478   19.2936   19.4769 H   0  0  0  0  0  0  0  0  0  0  0  0
   18.1109   18.9550   21.1837 H   0  0  0  0  0  0  0  0  0  0  0  0
   20.1664   18.4973   20.5610 C   0  0  0  0  0  0  0  0  0  0  0  0
   20.9423   18.9751   19.9467 H   0  0  0  0  0  0  0  0  0  0  0  0
   19.9741   17.5199   20.0969 H   0  0  0  0  0  0  0  0  0  0  0  0
   20.7111   18.2533   21.9922 C   0  0  0  0  0  0  0  0  0  0  0  0
   19.9905   17.6801   22.5823 H   0  0  0  0  0  0  0  0  0  0  0  0
   21.5808   17.5895   21.8895 H   0  0  0  0  0  0  0  0  0  0  0  0
   21.1863   19.5211   22.7529 C   0  0  0  0  0  0  0  0  0  0  0  0
   21.6831   20.1930   22.0397 H   0  0  0  0  0  0  0  0  0  0  0  0
   21.9776   19.2247   23.4542 H   0  0  0  0  0  0  0  0  0  0  0  0
   20.1147   20.3338   23.5418 C   0  0  0  0  0  0  0  0  0  0  0  0
   20.6350   21.1950   23.9811 H   0  0  0  0  0  0  0  0  0  0  0  0
   19.3804   20.7760   22.8613 H   0  0  0  0  0  0  0  0  0  0  0  0
   19.3806   19.6189   24.7076 C   0  0  1  0  0  0  0  0  0  0  0  0
   19.1509   20.3910   25.4484 H   0  0  0  0  0  0  0  0  0  0  0  0
   18.0272   19.0211   24.2806 C   0  0  0  0  0  0  0  0  0  0  0  0
   17.3960   19.7854   23.8107 H   0  0  0  0  0  0  0  0  0  0  0  0
   17.4853   18.6423   25.1557 H   0  0  0  0  0  0  0  0  0  0  0  0
   18.1374   18.1923   23.5757 H   0  0  0  0  0  0  0  0  0  0  0  0
   20.2309   18.6090   25.4290 N   0  3  0  0  0  0  0  0  0  0  0  0
   20.5100   17.8493   24.8034 H   0  0  0  0  0  0  0  0  0  0  0  0
   21.0859   19.0359   25.7963 H   0  0  0  0  0  0  0  0  0  0  0  0
   19.7309   18.1936   26.2201 H   0  0  0  0  0  0  0  0  0  0  0  0
  1  2  1  0  0  0  0
  1  3  1  0  0  0  0
  1  4  1  0  0  0  0
  1  5  1  0  0  0  0
  5  6  1  0  0  0  0
  5  7  1  0  0  0  0
  5  8  1  0  0  0  0
  8  9  1  0  0  0  0
  8 10  1  0  0  0  0
  8 11  1  0  0  0  0
 11 12  1  0  0  0  0
 11 13  1  0  0  0  0
 11 14  1  0  0  0  0
 14 15  1  0  0  0  0
 14 16  1  0  0  0  0
 14 17  1  0  0  0  0
 17 18  1  0  0  0  0
 17 19  1  0  0  0  0
 19 20  1  0  0  0  0
 19 21  1  0  0  0  0
 19 22  1  0  0  0  0
 17 23  1  0  0  0  0
 23 24  1  0  0  0  0
 23 25  1  0  0  0  0
 23 26  1  0  0  0  0
M  END
> <VM2 Rank>
93

> <Conf_Id>
223

> <Probability>
0.00

> <Sum Probability>
100.00

> <Delta G>
8.060

> <G>
31.770

> <E>
-1.720

> <-TS>
33.490

> <U+W>
-23.182

> <U>
31.350

> <W>
-54.532

> <W(PB)>
-56.674

> <W(SA)>
2.142

> <Valence>
9.658

> <Coulomb>
20.873

> <VdW>
0.819

> <VdW6>
-10.581

> <VdW12>
11.401

> <Bond>
0.428

> <Angle>
4.179

> <Pdih>
5.051

> <Idih>
0.000

> <Tether>
0.000

$$$$
VeraChem MOL file


 26 25  0  0  0  0  0  0  0  0999 V2000     
   20.7757   18.0023   20.3232 C   0  0  0  0  0  0  0  0  0  0  0  0
   20.8286   16.9430   20.0403 H   0  0  0  0  0  0  0  0  0  0  0  0
   20.7380   18.5926   19.3985 H   0  0  0  0  0  0  0  0  0  0  0  0
   21.7061   18.2505   20.8476 H   0  0  0  0  0  0  0  0  0  0  0  0
   19.5297   18.2659   21.1997 C   0  0  0  0  0  0  0  0  0  0  0  0
   19.5840   17.6551   22.1076 H   0  0  0  0  0  0  0  0  0  0  0  0
   18.6416   17.9181   20.6537 H   0  0  0  0  0  0  0  0  0  0  0  0
   19.3341   19.7634   21.5512 C   0  0  0  0  0  0  0  0  0  0  0  0
   19.3527   20.3361   20.6135 H   0  0  0  0  0  0  0  0  0  0  0  0
   18.3291   19.9242   21.9628 H   0  0  0  0  0  0  0  0  0  0  0  0
   20.3987   20.3553   22.5138 C   0  0  0  0  0  0  0  0  0  0  0  0
   20.6696   21.3479   22.1280 H   0  0  0  0  0  0  0  0  0  0  0  0
   21.3312   19.7799   22.4790 H   0  0  0  0  0  0  0  0  0  0  0  0
   19.9404   20.5563   23.9879 C   0  0  0  0  0  0  0  0  0  0  0  0
   20.7248   21.1345   24.4937 H   0  0  0  0  0  0  0  0  0  0  0  0
   19.0503   21.1985   24.0147 H   0  0  0  0  0  0  0  0  0  0  0  0
   19.6935   19.2893   24.8455 C   0  0  1  0  0  0  0  0  0  0  0  0
   19.7795   19.5997   25.8914 H   0  0  0  0  0  0  0  0  0  0  0  0
   18.2711   18.7238   24.6816 C   0  0  0  0  0  0  0  0  0  0  0  0
   17.5208   19.4980   24.8839 H   0  0  0  0  0  0  0  0  0  0  0  0
   18.1007   17.9076   25.3941 H   0  0  0  0  0  0  0  0  0  0  0  0
   18.0893   18.3311   23.6778 H   0  0  0  0  0  0  0  0  0  0  0  0
   20.7448   18.2316   24.6511 N   0  3  0  0  0  0  0  0  0  0  0  0
   20.5777   17.4207   25.2537 H   0  0  0  0  0  0  0  0  0  0  0  0
   20.7610   17.9053   23.6820 H   0  0  0  0  0  0  0  0  0  0  0  0
   21.6783   18.5902   24.8714 H   0  0  0  0  0  0  0  0  0  0  0  0
  1  2  1  0  0  0  0
  1  3  1  0  0  0  0
  1  4  1  0  0  0  0
  1  5  1  0  0  0  0
  5  6  1  0  0  0  0
  5  7  1  0  0  0  0
  5  8  1  0  0  0  0
  8  9  1  0  0  0  0
  8 10  1  0  0  0  0
  8 11  1  0  0  0  0
 11 12  1  0  0  0  0
 11 13  1  0  0  0  0
 11 14  1  0  0  0  0
 14 15  1  0  0  0  0
 14 16  1  0  0  0  0
 14 17  1  0  0  0  0
 17 18  1  0  0  0  0
 17 19  1  0  0  0  0
 19 20  1  0  0  0  0
 19 21  1  0  0  0  0
 19 22  1  0  0  0  0
 17 23  1  0  0  0  0
 23 24  1  0  0  0  0
 23 25  1  0  0  0  0
 23 26  1  0  0  0  0
M  END
> <VM2 Rank>
94

> <Conf_Id>
822

> <Probability>
0.00

> <Sum Probability>
100.00

> <Delta G>
8.655

> <G>
32.365

> <E>
-0.991

> <-TS>
33.356

> <U+W>
-22.453

> <U>
31.359

> <W>
-53.812

> <W(PB)>
-56.007

> <W(SA)>
2.195

> <Valence>
9.442

> <Coulomb>
21.140

> <VdW>
0.777

> <VdW6>
-10.521

> <VdW12>
11.299

> <Bond>
0.381

> <Angle>
3.342

> <Pdih>
5.718

> <Idih>
0.000

> <Tether>
0.000

$$$$
