VeraChem MOL file


 25 25  0  0  0  0  0  0  0  0999 V2000     
   21.2649   19.5700   21.1384 C   0  0  0  0  0  0  0  0  0  0  0  0
   21.7746   19.7415   20.1803 H   0  0  0  0  0  0  0  0  0  0  0  0
   22.0469   19.7183   21.8916 H   0  0  0  0  0  0  0  0  0  0  0  0
   20.7595   18.1038   21.1583 C   0  0  0  0  0  0  0  0  0  0  0  0
   19.7152   18.0409   20.8265 H   0  0  0  0  0  0  0  0  0  0  0  0
   21.3327   17.5468   20.4045 H   0  0  0  0  0  0  0  0  0  0  0  0
   20.9530   17.3662   22.5094 C   0  0  0  0  0  0  0  0  0  0  0  0
   22.0134   17.4005   22.7947 H   0  0  0  0  0  0  0  0  0  0  0  0
   20.7267   16.3039   22.3451 H   0  0  0  0  0  0  0  0  0  0  0  0
   20.0858   17.8548   23.7003 C   0  0  0  0  0  0  0  0  0  0  0  0
   19.0203   17.7989   23.4478 H   0  0  0  0  0  0  0  0  0  0  0  0
   20.2246   17.1310   24.5147 H   0  0  0  0  0  0  0  0  0  0  0  0
   20.4544   19.2646   24.2301 C   0  0  0  0  0  0  0  0  0  0  0  0
   21.4703   19.5138   23.9017 H   0  0  0  0  0  0  0  0  0  0  0  0
   19.4858   20.3914   23.7946 C   0  0  0  0  0  0  0  0  0  0  0  0
   18.5769   20.3182   24.4070 H   0  0  0  0  0  0  0  0  0  0  0  0
   19.9398   21.3598   24.0412 H   0  0  0  0  0  0  0  0  0  0  0  0
   19.0436   20.4095   22.3086 C   0  0  0  0  0  0  0  0  0  0  0  0
   18.3091   21.2185   22.1958 H   0  0  0  0  0  0  0  0  0  0  0  0
   18.4890   19.4967   22.0627 H   0  0  0  0  0  0  0  0  0  0  0  0
   20.1645   20.6553   21.2676 C   0  0  0  0  0  0  0  0  0  0  0  0
   19.6822   20.7604   20.2861 H   0  0  0  0  0  0  0  0  0  0  0  0
   20.6411   21.6244   21.4682 H   0  0  0  0  0  0  0  0  0  0  0  0
   20.4524   19.2274   25.6528 O   0  0  0  0  0  0  0  0  0  0  0  0
   20.7316   20.1156   25.9588 H   0  0  0  0  0  0  0  0  0  0  0  0
  1  2  1  0  0  0  0
  1  3  1  0  0  0  0
  1  4  1  0  0  0  0
  4  5  1  0  0  0  0
  4  6  1  0  0  0  0
  4  7  1  0  0  0  0
  7  8  1  0  0  0  0
  7  9  1  0  0  0  0
  7 10  1  0  0  0  0
 10 11  1  0  0  0  0
 10 12  1  0  0  0  0
 10 13  1  0  0  0  0
 13 14  1  0  0  0  0
 13 15  1  0  0  0  0
 15 16  1  0  0  0  0
 15 17  1  0  0  0  0
 15 18  1  0  0  0  0
 18 19  1  0  0  0  0
 18 20  1  0  0  0  0
  1 21  1  0  0  0  0
 18 21  1  0  0  0  0
 21 22  1  0  0  0  0
 21 23  1  0  0  0  0
 13 24  1  0  0  0  0
 24 25  1  0  0  0  0
M  END
> <VM2 Rank>
1

> <Conf_Id>
1872

> <Probability>
4.62

> <Sum Probability>
4.62

> <Delta G>
0.000

> <G>
62.075

> <E>
29.291

> <-TS>
32.785

> <U+W>
8.723

> <U>
10.905

> <W>
-2.182

> <W(PB)>
-4.296

> <W(SA)>
2.114

> <Valence>
16.378

> <Coulomb>
-8.448

> <VdW>
2.976

> <VdW6>
-12.570

> <VdW12>
15.546

> <Bond>
0.439

> <Angle>
5.049

> <Pdih>
10.889

> <Idih>
0.000

> <Tether>
0.000

$$$$
VeraChem MOL file


 25 25  0  0  0  0  0  0  0  0999 V2000     
   21.2656   19.5696   21.1386 C   0  0  0  0  0  0  0  0  0  0  0  0
   21.7735   19.7405   20.1795 H   0  0  0  0  0  0  0  0  0  0  0  0
   22.0495   19.7177   21.8898 H   0  0  0  0  0  0  0  0  0  0  0  0
   20.7600   18.1034   21.1596 C   0  0  0  0  0  0  0  0  0  0  0  0
   19.7157   18.0406   20.8279 H   0  0  0  0  0  0  0  0  0  0  0  0
   21.3330   17.5460   20.4059 H   0  0  0  0  0  0  0  0  0  0  0  0
   20.9535   17.3659   22.5109 C   0  0  0  0  0  0  0  0  0  0  0  0
   22.0137   17.4008   22.7968 H   0  0  0  0  0  0  0  0  0  0  0  0
   20.7279   16.3034   22.3460 H   0  0  0  0  0  0  0  0  0  0  0  0
   20.0833   17.8542   23.6993 C   0  0  0  0  0  0  0  0  0  0  0  0
   19.0192   17.8029   23.4394 H   0  0  0  0  0  0  0  0  0  0  0  0
   20.2120   17.1260   24.5111 H   0  0  0  0  0  0  0  0  0  0  0  0
   20.4528   19.2643   24.2284 C   0  0  0  0  0  0  0  0  0  0  0  0
   21.4658   19.5191   23.8957 H   0  0  0  0  0  0  0  0  0  0  0  0
   19.4814   20.3887   23.7951 C   0  0  0  0  0  0  0  0  0  0  0  0
   18.5734   20.3112   24.4078 H   0  0  0  0  0  0  0  0  0  0  0  0
   19.9342   21.3556   24.0498 H   0  0  0  0  0  0  0  0  0  0  0  0
   19.0430   20.4114   22.3078 C   0  0  0  0  0  0  0  0  0  0  0  0
   18.3105   21.2223   22.1955 H   0  0  0  0  0  0  0  0  0  0  0  0
   18.4869   19.5004   22.0586 H   0  0  0  0  0  0  0  0  0  0  0  0
   20.1666   20.6565   21.2694 C   0  0  0  0  0  0  0  0  0  0  0  0
   20.6448   21.6242   21.4731 H   0  0  0  0  0  0  0  0  0  0  0  0
   19.6860   20.7651   20.2874 H   0  0  0  0  0  0  0  0  0  0  0  0
   20.4578   19.2289   25.6509 O   0  0  0  0  0  0  0  0  0  0  0  0
   21.1308   18.5667   25.9134 H   0  0  0  0  0  0  0  0  0  0  0  0
  1  2  1  0  0  0  0
  1  3  1  0  0  0  0
  1  4  1  0  0  0  0
  4  5  1  0  0  0  0
  4  6  1  0  0  0  0
  4  7  1  0  0  0  0
  7  8  1  0  0  0  0
  7  9  1  0  0  0  0
  7 10  1  0  0  0  0
 10 11  1  0  0  0  0
 10 12  1  0  0  0  0
 10 13  1  0  0  0  0
 13 14  1  0  0  0  0
 13 15  1  0  0  0  0
 15 16  1  0  0  0  0
 15 17  1  0  0  0  0
 15 18  1  0  0  0  0
 18 19  1  0  0  0  0
 18 20  1  0  0  0  0
  1 21  1  0  0  0  0
 18 21  1  0  0  0  0
 21 22  1  0  0  0  0
 21 23  1  0  0  0  0
 13 24  1  0  0  0  0
 24 25  1  0  0  0  0
M  END
> <VM2 Rank>
2

> <Conf_Id>
252

> <Probability>
4.35

> <Sum Probability>
8.96

> <Delta G>
0.036

> <G>
62.111

> <E>
29.304

> <-TS>
32.807

> <U+W>
8.736

> <U>
10.865

> <W>
-2.128

> <W(PB)>
-4.247

> <W(SA)>
2.118

> <Valence>
16.387

> <Coulomb>
-8.479

> <VdW>
2.957

> <VdW6>
-12.577

> <VdW12>
15.534

> <Bond>
0.441

> <Angle>
5.029

> <Pdih>
10.916

> <Idih>
0.000

> <Tether>
0.000

$$$$
VeraChem MOL file


 25 25  0  0  0  0  0  0  0  0999 V2000     
   21.2426   19.6238   21.1382 C   0  0  0  0  0  0  0  0  0  0  0  0
   21.7261   19.8585   20.1799 H   0  0  0  0  0  0  0  0  0  0  0  0
   21.8987   20.0759   21.8906 H   0  0  0  0  0  0  0  0  0  0  0  0
   21.2325   18.0789   21.2749 C   0  0  0  0  0  0  0  0  0  0  0  0
   22.2545   17.7322   21.4793 H   0  0  0  0  0  0  0  0  0  0  0  0
   20.9679   17.6586   20.2950 H   0  0  0  0  0  0  0  0  0  0  0  0
   20.2644   17.4647   22.3170 C   0  0  0  0  0  0  0  0  0  0  0  0
   20.3178   16.3727   22.2097 H   0  0  0  0  0  0  0  0  0  0  0  0
   19.2271   17.7162   22.0679 H   0  0  0  0  0  0  0  0  0  0  0  0
   20.5611   17.7975   23.8020 C   0  0  0  0  0  0  0  0  0  0  0  0
   19.8658   17.2092   24.4160 H   0  0  0  0  0  0  0  0  0  0  0  0
   21.5666   17.4356   24.0523 H   0  0  0  0  0  0  0  0  0  0  0  0
   20.4475   19.2813   24.2301 C   0  0  0  0  0  0  0  0  0  0  0  0
   21.3424   19.8223   23.9009 H   0  0  0  0  0  0  0  0  0  0  0  0
   19.1906   20.0142   23.6941 C   0  0  0  0  0  0  0  0  0  0  0  0
   18.3986   19.2986   23.4435 H   0  0  0  0  0  0  0  0  0  0  0  0
   18.7750   20.6279   24.5047 H   0  0  0  0  0  0  0  0  0  0  0  0
   19.4602   20.9672   22.4991 C   0  0  0  0  0  0  0  0  0  0  0  0
   20.2333   21.6946   22.7825 H   0  0  0  0  0  0  0  0  0  0  0  0
   18.5490   21.5570   22.3301 H   0  0  0  0  0  0  0  0  0  0  0  0
   19.8481   20.3025   21.1520 C   0  0  0  0  0  0  0  0  0  0  0  0
   19.0662   19.6065   20.8220 H   0  0  0  0  0  0  0  0  0  0  0  0
   19.8607   21.0979   20.3943 H   0  0  0  0  0  0  0  0  0  0  0  0
   20.4169   19.3130   25.6526 O   0  0  0  0  0  0  0  0  0  0  0  0
   21.2420   18.8843   25.9623 H   0  0  0  0  0  0  0  0  0  0  0  0
  1  2  1  0  0  0  0
  1  3  1  0  0  0  0
  1  4  1  0  0  0  0
  4  5  1  0  0  0  0
  4  6  1  0  0  0  0
  4  7  1  0  0  0  0
  7  8  1  0  0  0  0
  7  9  1  0  0  0  0
  7 10  1  0  0  0  0
 10 11  1  0  0  0  0
 10 12  1  0  0  0  0
 10 13  1  0  0  0  0
 13 14  1  0  0  0  0
 13 15  1  0  0  0  0
 15 16  1  0  0  0  0
 15 17  1  0  0  0  0
 15 18  1  0  0  0  0
 18 19  1  0  0  0  0
 18 20  1  0  0  0  0
  1 21  1  0  0  0  0
 18 21  1  0  0  0  0
 21 22  1  0  0  0  0
 21 23  1  0  0  0  0
 13 24  1  0  0  0  0
 24 25  1  0  0  0  0
M  END
> <VM2 Rank>
3

> <Conf_Id>
1283

> <Probability>
4.24

> <Sum Probability>
13.20

> <Delta G>
0.051

> <G>
62.126

> <E>
29.342

> <-TS>
32.784

> <U+W>
8.774

> <U>
10.905

> <W>
-2.131

> <W(PB)>
-4.281

> <W(SA)>
2.150

> <Valence>
16.378

> <Coulomb>
-8.448

> <VdW>
2.976

> <VdW6>
-12.570

> <VdW12>
15.546

> <Bond>
0.439

> <Angle>
5.049

> <Pdih>
10.889

> <Idih>
0.000

> <Tether>
0.000

$$$$
VeraChem MOL file


 25 25  0  0  0  0  0  0  0  0999 V2000     
   21.2430   19.6245   21.1385 C   0  0  0  0  0  0  0  0  0  0  0  0
   21.7249   19.8584   20.1793 H   0  0  0  0  0  0  0  0  0  0  0  0
   21.9002   20.0781   21.8890 H   0  0  0  0  0  0  0  0  0  0  0  0
   21.2350   18.0795   21.2768 C   0  0  0  0  0  0  0  0  0  0  0  0
   22.2571   17.7349   21.4844 H   0  0  0  0  0  0  0  0  0  0  0  0
   20.9743   17.6580   20.2963 H   0  0  0  0  0  0  0  0  0  0  0  0
   20.2653   17.4628   22.3162 C   0  0  0  0  0  0  0  0  0  0  0  0
   20.3215   16.3710   22.2094 H   0  0  0  0  0  0  0  0  0  0  0  0
   19.2283   17.7120   22.0636 H   0  0  0  0  0  0  0  0  0  0  0  0
   20.5560   17.7963   23.8025 C   0  0  0  0  0  0  0  0  0  0  0  0
   19.8580   17.2117   24.4166 H   0  0  0  0  0  0  0  0  0  0  0  0
   21.5594   17.4346   24.0612 H   0  0  0  0  0  0  0  0  0  0  0  0
   20.4461   19.2803   24.2284 C   0  0  0  0  0  0  0  0  0  0  0  0
   21.3429   19.8153   23.8949 H   0  0  0  0  0  0  0  0  0  0  0  0
   19.1884   20.0128   23.6930 C   0  0  0  0  0  0  0  0  0  0  0  0
   18.4006   19.2950   23.4350 H   0  0  0  0  0  0  0  0  0  0  0  0
   18.7624   20.6225   24.5010 H   0  0  0  0  0  0  0  0  0  0  0  0
   19.4604   20.9678   22.5005 C   0  0  0  0  0  0  0  0  0  0  0  0
   20.2338   21.6946   22.7845 H   0  0  0  0  0  0  0  0  0  0  0  0
   18.5496   21.5582   22.3308 H   0  0  0  0  0  0  0  0  0  0  0  0
   19.8483   20.3032   21.1533 C   0  0  0  0  0  0  0  0  0  0  0  0
   19.8606   21.0987   20.3957 H   0  0  0  0  0  0  0  0  0  0  0  0
   19.0666   19.6071   20.8233 H   0  0  0  0  0  0  0  0  0  0  0  0
   20.4215   19.3158   25.6507 O   0  0  0  0  0  0  0  0  0  0  0  0
   20.4281   20.2612   25.9086 H   0  0  0  0  0  0  0  0  0  0  0  0
  1  2  1  0  0  0  0
  1  3  1  0  0  0  0
  1  4  1  0  0  0  0
  4  5  1  0  0  0  0
  4  6  1  0  0  0  0
  4  7  1  0  0  0  0
  7  8  1  0  0  0  0
  7  9  1  0  0  0  0
  7 10  1  0  0  0  0
 10 11  1  0  0  0  0
 10 12  1  0  0  0  0
 10 13  1  0  0  0  0
 13 14  1  0  0  0  0
 13 15  1  0  0  0  0
 15 16  1  0  0  0  0
 15 17  1  0  0  0  0
 15 18  1  0  0  0  0
 18 19  1  0  0  0  0
 18 20  1  0  0  0  0
  1 21  1  0  0  0  0
 18 21  1  0  0  0  0
 21 22  1  0  0  0  0
 21 23  1  0  0  0  0
 13 24  1  0  0  0  0
 24 25  1  0  0  0  0
M  END
> <VM2 Rank>
4

> <Conf_Id>
1289

> <Probability>
4.24

> <Sum Probability>
17.44

> <Delta G>
0.051

> <G>
62.126

> <E>
29.319

> <-TS>
32.807

> <U+W>
8.752

> <U>
10.865

> <W>
-2.113

> <W(PB)>
-4.265

> <W(SA)>
2.152

> <Valence>
16.387

> <Coulomb>
-8.479

> <VdW>
2.957

> <VdW6>
-12.577

> <VdW12>
15.534

> <Bond>
0.441

> <Angle>
5.030

> <Pdih>
10.916

> <Idih>
0.000

> <Tether>
0.000

$$$$
VeraChem MOL file


 25 25  0  0  0  0  0  0  0  0999 V2000     
   20.7558   19.2415   20.8006 C   0  0  0  0  0  0  0  0  0  0  0  0
   20.7018   19.0670   19.7173 H   0  0  0  0  0  0  0  0  0  0  0  0
   21.8175   19.4275   21.0082 H   0  0  0  0  0  0  0  0  0  0  0  0
   20.2662   17.9509   21.5066 C   0  0  0  0  0  0  0  0  0  0  0  0
   19.2041   18.0306   21.7639 H   0  0  0  0  0  0  0  0  0  0  0  0
   20.3136   17.1256   20.7829 H   0  0  0  0  0  0  0  0  0  0  0  0
   21.1004   17.5255   22.7406 C   0  0  0  0  0  0  0  0  0  0  0  0
   22.0421   17.0936   22.3754 H   0  0  0  0  0  0  0  0  0  0  0  0
   20.5849   16.7050   23.2571 H   0  0  0  0  0  0  0  0  0  0  0  0
   21.4660   18.6396   23.7585 C   0  0  0  0  0  0  0  0  0  0  0  0
   22.1040   18.1862   24.5284 H   0  0  0  0  0  0  0  0  0  0  0  0
   22.1069   19.3873   23.2791 H   0  0  0  0  0  0  0  0  0  0  0  0
   20.2997   19.3461   24.4924 C   0  0  0  0  0  0  0  0  0  0  0  0
   20.7561   20.0337   25.2188 H   0  0  0  0  0  0  0  0  0  0  0  0
   19.3298   20.1868   23.6260 C   0  0  0  0  0  0  0  0  0  0  0  0
   18.5532   19.5556   23.1805 H   0  0  0  0  0  0  0  0  0  0  0  0
   18.7874   20.8467   24.3157 H   0  0  0  0  0  0  0  0  0  0  0  0
   19.9923   21.0753   22.5396 C   0  0  0  0  0  0  0  0  0  0  0  0
   21.0294   21.3196   22.8029 H   0  0  0  0  0  0  0  0  0  0  0  0
   19.4641   22.0386   22.5337 H   0  0  0  0  0  0  0  0  0  0  0  0
   19.9095   20.5060   21.0994 C   0  0  0  0  0  0  0  0  0  0  0  0
   18.8591   20.3095   20.8450 H   0  0  0  0  0  0  0  0  0  0  0  0
   20.2359   21.2961   20.4094 H   0  0  0  0  0  0  0  0  0  0  0  0
   19.5444   18.3713   25.1963 O   0  0  0  0  0  0  0  0  0  0  0  0
   19.2506   17.7297   24.5185 H   0  0  0  0  0  0  0  0  0  0  0  0
  1  2  1  0  0  0  0
  1  3  1  0  0  0  0
  1  4  1  0  0  0  0
  4  5  1  0  0  0  0
  4  6  1  0  0  0  0
  4  7  1  0  0  0  0
  7  8  1  0  0  0  0
  7  9  1  0  0  0  0
  7 10  1  0  0  0  0
 10 11  1  0  0  0  0
 10 12  1  0  0  0  0
 10 13  1  0  0  0  0
 13 14  1  0  0  0  0
 13 15  1  0  0  0  0
 15 16  1  0  0  0  0
 15 17  1  0  0  0  0
 15 18  1  0  0  0  0
 18 19  1  0  0  0  0
 18 20  1  0  0  0  0
  1 21  1  0  0  0  0
 18 21  1  0  0  0  0
 21 22  1  0  0  0  0
 21 23  1  0  0  0  0
 13 24  1  0  0  0  0
 24 25  1  0  0  0  0
M  END
> <VM2 Rank>
5

> <Conf_Id>
1358

> <Probability>
3.77

> <Sum Probability>
21.21

> <Delta G>
0.120

> <G>
62.195

> <E>
29.408

> <-TS>
32.788

> <U+W>
8.840

> <U>
10.304

> <W>
-1.464

> <W(PB)>
-3.587

> <W(SA)>
2.123

> <Valence>
17.199

> <Coulomb>
-9.376

> <VdW>
2.481

> <VdW6>
-13.059

> <VdW12>
15.540

> <Bond>
0.429

> <Angle>
5.594

> <Pdih>
11.176

> <Idih>
0.000

> <Tether>
0.000

$$$$
VeraChem MOL file


 25 25  0  0  0  0  0  0  0  0999 V2000     
   20.6501   19.4973   20.8001 C   0  0  0  0  0  0  0  0  0  0  0  0
   20.4907   19.5762   19.7160 H   0  0  0  0  0  0  0  0  0  0  0  0
   21.5267   20.1245   21.0072 H   0  0  0  0  0  0  0  0  0  0  0  0
   20.9570   18.0085   21.1066 C   0  0  0  0  0  0  0  0  0  0  0  0
   20.0808   17.3965   20.8526 H   0  0  0  0  0  0  0  0  0  0  0  0
   21.7508   17.6839   20.4201 H   0  0  0  0  0  0  0  0  0  0  0  0
   21.4170   17.6748   22.5495 C   0  0  0  0  0  0  0  0  0  0  0  0
   22.3179   18.2438   22.8126 H   0  0  0  0  0  0  0  0  0  0  0  0
   21.7331   16.6226   22.5493 H   0  0  0  0  0  0  0  0  0  0  0  0
   20.3162   17.8308   23.6324 C   0  0  0  0  0  0  0  0  0  0  0  0
   19.3227   17.7181   23.1847 H   0  0  0  0  0  0  0  0  0  0  0  0
   20.4042   16.9845   24.3262 H   0  0  0  0  0  0  0  0  0  0  0  0
   20.3951   19.1158   24.4931 C   0  0  0  0  0  0  0  0  0  0  0  0
   21.2035   18.9620   25.2223 H   0  0  0  0  0  0  0  0  0  0  0  0
   20.7115   20.4392   23.7539 C   0  0  0  0  0  0  0  0  0  0  0  0
   20.8339   21.2155   24.5206 H   0  0  0  0  0  0  0  0  0  0  0  0
   21.6952   20.3693   23.2774 H   0  0  0  0  0  0  0  0  0  0  0  0
   19.6636   20.9554   22.7310 C   0  0  0  0  0  0  0  0  0  0  0  0
   20.0173   21.9279   22.3622 H   0  0  0  0  0  0  0  0  0  0  0  0
   18.7159   21.1658   23.2440 H   0  0  0  0  0  0  0  0  0  0  0  0
   19.3849   20.0568   21.5003 C   0  0  0  0  0  0  0  0  0  0  0  0
   18.6961   19.2451   21.7595 H   0  0  0  0  0  0  0  0  0  0  0  0
   18.8319   20.6662   20.7723 H   0  0  0  0  0  0  0  0  0  0  0  0
   19.1687   19.2644   25.1932 O   0  0  0  0  0  0  0  0  0  0  0  0
   18.5070   19.5019   24.5126 H   0  0  0  0  0  0  0  0  0  0  0  0
  1  2  1  0  0  0  0
  1  3  1  0  0  0  0
  1  4  1  0  0  0  0
  4  5  1  0  0  0  0
  4  6  1  0  0  0  0
  4  7  1  0  0  0  0
  7  8  1  0  0  0  0
  7  9  1  0  0  0  0
  7 10  1  0  0  0  0
 10 11  1  0  0  0  0
 10 12  1  0  0  0  0
 10 13  1  0  0  0  0
 13 14  1  0  0  0  0
 13 15  1  0  0  0  0
 15 16  1  0  0  0  0
 15 17  1  0  0  0  0
 15 18  1  0  0  0  0
 18 19  1  0  0  0  0
 18 20  1  0  0  0  0
  1 21  1  0  0  0  0
 18 21  1  0  0  0  0
 21 22  1  0  0  0  0
 21 23  1  0  0  0  0
 13 24  1  0  0  0  0
 24 25  1  0  0  0  0
M  END
> <VM2 Rank>
6

> <Conf_Id>
1238

> <Probability>
3.62

> <Sum Probability>
24.84

> <Delta G>
0.144

> <G>
62.220

> <E>
29.432

> <-TS>
32.788

> <U+W>
8.864

> <U>
10.304

> <W>
-1.439

> <W(PB)>
-3.553

> <W(SA)>
2.114

> <Valence>
17.199

> <Coulomb>
-9.376

> <VdW>
2.481

> <VdW6>
-13.059

> <VdW12>
15.540

> <Bond>
0.429

> <Angle>
5.593

> <Pdih>
11.176

> <Idih>
0.000

> <Tether>
0.000

$$$$
VeraChem MOL file


 25 25  0  0  0  0  0  0  0  0999 V2000     
   21.2427   19.6234   21.1390 C   0  0  0  0  0  0  0  0  0  0  0  0
   21.8982   20.0741   21.8927 H   0  0  0  0  0  0  0  0  0  0  0  0
   21.7270   19.8592   20.1814 H   0  0  0  0  0  0  0  0  0  0  0  0
   21.2319   18.0785   21.2740 C   0  0  0  0  0  0  0  0  0  0  0  0
   20.9662   17.6591   20.2939 H   0  0  0  0  0  0  0  0  0  0  0  0
   22.2540   17.7313   21.4771 H   0  0  0  0  0  0  0  0  0  0  0  0
   20.2649   17.4640   22.3168 C   0  0  0  0  0  0  0  0  0  0  0  0
   20.3195   16.3721   22.2097 H   0  0  0  0  0  0  0  0  0  0  0  0
   19.2273   17.7145   22.0680 H   0  0  0  0  0  0  0  0  0  0  0  0
   20.5624   17.7974   23.8015 C   0  0  0  0  0  0  0  0  0  0  0  0
   19.8736   17.2021   24.4153 H   0  0  0  0  0  0  0  0  0  0  0  0
   21.5707   17.4429   24.0517 H   0  0  0  0  0  0  0  0  0  0  0  0
   20.4456   19.2809   24.2303 C   0  0  0  0  0  0  0  0  0  0  0  0
   21.3417   19.8211   23.9035 H   0  0  0  0  0  0  0  0  0  0  0  0
   19.1892   20.0151   23.6944 C   0  0  0  0  0  0  0  0  0  0  0  0
   18.3966   19.3011   23.4403 H   0  0  0  0  0  0  0  0  0  0  0  0
   18.7731   20.6324   24.5021 H   0  0  0  0  0  0  0  0  0  0  0  0
   19.4613   20.9676   22.4996 C   0  0  0  0  0  0  0  0  0  0  0  0
   20.2358   21.6934   22.7833 H   0  0  0  0  0  0  0  0  0  0  0  0
   18.5514   21.5593   22.3301 H   0  0  0  0  0  0  0  0  0  0  0  0
   19.8483   20.3022   21.1527 C   0  0  0  0  0  0  0  0  0  0  0  0
   19.8609   21.0974   20.3947 H   0  0  0  0  0  0  0  0  0  0  0  0
   19.0662   19.6064   20.8231 H   0  0  0  0  0  0  0  0  0  0  0  0
   20.4176   19.3139   25.6518 O   0  0  0  0  0  0  0  0  0  0  0  0
   19.6033   18.8431   25.9239 H   0  0  0  0  0  0  0  0  0  0  0  0
  1  2  1  0  0  0  0
  1  3  1  0  0  0  0
  1  4  1  0  0  0  0
  4  5  1  0  0  0  0
  4  6  1  0  0  0  0
  4  7  1  0  0  0  0
  7  8  1  0  0  0  0
  7  9  1  0  0  0  0
  7 10  1  0  0  0  0
 10 11  1  0  0  0  0
 10 12  1  0  0  0  0
 10 13  1  0  0  0  0
 13 14  1  0  0  0  0
 13 15  1  0  0  0  0
 15 16  1  0  0  0  0
 15 17  1  0  0  0  0
 15 18  1  0  0  0  0
 18 19  1  0  0  0  0
 18 20  1  0  0  0  0
  1 21  1  0  0  0  0
 18 21  1  0  0  0  0
 21 22  1  0  0  0  0
 21 23  1  0  0  0  0
 13 24  1  0  0  0  0
 24 25  1  0  0  0  0
M  END
> <VM2 Rank>
7

> <Conf_Id>
1319

> <Probability>
3.54

> <Sum Probability>
28.38

> <Delta G>
0.159

> <G>
62.234

> <E>
29.468

> <-TS>
32.766

> <U+W>
8.900

> <U>
10.935

> <W>
-2.035

> <W(PB)>
-4.170

> <W(SA)>
2.136

> <Valence>
16.757

> <Coulomb>
-8.731

> <VdW>
2.908

> <VdW6>
-12.597

> <VdW12>
15.505

> <Bond>
0.434

> <Angle>
5.070

> <Pdih>
11.254

> <Idih>
0.000

> <Tether>
0.000

$$$$
VeraChem MOL file


 25 25  0  0  0  0  0  0  0  0999 V2000     
   21.2648   19.5703   21.1392 C   0  0  0  0  0  0  0  0  0  0  0  0
   21.7759   19.7416   20.1819 H   0  0  0  0  0  0  0  0  0  0  0  0
   22.0453   19.7192   21.8938 H   0  0  0  0  0  0  0  0  0  0  0  0
   20.7595   18.1041   21.1590 C   0  0  0  0  0  0  0  0  0  0  0  0
   19.7151   18.0410   20.8276 H   0  0  0  0  0  0  0  0  0  0  0  0
   21.3326   17.5474   20.4049 H   0  0  0  0  0  0  0  0  0  0  0  0
   20.9539   17.3667   22.5099 C   0  0  0  0  0  0  0  0  0  0  0  0
   22.0142   17.4030   22.7956 H   0  0  0  0  0  0  0  0  0  0  0  0
   20.7298   16.3039   22.3451 H   0  0  0  0  0  0  0  0  0  0  0  0
   20.0853   17.8531   23.7005 C   0  0  0  0  0  0  0  0  0  0  0  0
   19.0206   17.7958   23.4445 H   0  0  0  0  0  0  0  0  0  0  0  0
   20.2262   17.1264   24.5121 H   0  0  0  0  0  0  0  0  0  0  0  0
   20.4528   19.2635   24.2303 C   0  0  0  0  0  0  0  0  0  0  0  0
   21.4690   19.5140   23.9045 H   0  0  0  0  0  0  0  0  0  0  0  0
   19.4868   20.3924   23.7941 C   0  0  0  0  0  0  0  0  0  0  0  0
   18.5775   20.3290   24.4063 H   0  0  0  0  0  0  0  0  0  0  0  0
   19.9481   21.3576   24.0405 H   0  0  0  0  0  0  0  0  0  0  0  0
   19.0436   20.4104   22.3083 C   0  0  0  0  0  0  0  0  0  0  0  0
   18.3099   21.2202   22.1958 H   0  0  0  0  0  0  0  0  0  0  0  0
   18.4880   19.4981   22.0628 H   0  0  0  0  0  0  0  0  0  0  0  0
   20.1639   20.6551   21.2666 C   0  0  0  0  0  0  0  0  0  0  0  0
   19.6814   20.7587   20.2850 H   0  0  0  0  0  0  0  0  0  0  0  0
   20.6402   21.6246   21.4660 H   0  0  0  0  0  0  0  0  0  0  0  0
   20.4534   19.2272   25.6521 O   0  0  0  0  0  0  0  0  0  0  0  0
   19.5443   18.9850   25.9234 H   0  0  0  0  0  0  0  0  0  0  0  0
  1  2  1  0  0  0  0
  1  3  1  0  0  0  0
  1  4  1  0  0  0  0
  4  5  1  0  0  0  0
  4  6  1  0  0  0  0
  4  7  1  0  0  0  0
  7  8  1  0  0  0  0
  7  9  1  0  0  0  0
  7 10  1  0  0  0  0
 10 11  1  0  0  0  0
 10 12  1  0  0  0  0
 10 13  1  0  0  0  0
 13 14  1  0  0  0  0
 13 15  1  0  0  0  0
 15 16  1  0  0  0  0
 15 17  1  0  0  0  0
 15 18  1  0  0  0  0
 18 19  1  0  0  0  0
 18 20  1  0  0  0  0
  1 21  1  0  0  0  0
 18 21  1  0  0  0  0
 21 22  1  0  0  0  0
 21 23  1  0  0  0  0
 13 24  1  0  0  0  0
 24 25  1  0  0  0  0
M  END
> <VM2 Rank>
8

> <Conf_Id>
1088

> <Probability>
3.45

> <Sum Probability>
31.83

> <Delta G>
0.173

> <G>
62.249

> <E>
29.482

> <-TS>
32.767

> <U+W>
8.915

> <U>
10.935

> <W>
-2.020

> <W(PB)>
-4.135

> <W(SA)>
2.115

> <Valence>
16.757

> <Coulomb>
-8.731

> <VdW>
2.908

> <VdW6>
-12.597

> <VdW12>
15.506

> <Bond>
0.434

> <Angle>
5.069

> <Pdih>
11.254

> <Idih>
0.000

> <Tether>
0.000

$$$$
VeraChem MOL file


 25 25  0  0  0  0  0  0  0  0999 V2000     
   20.0803   19.1697   20.7504 C   0  0  0  0  0  0  0  0  0  0  0  0
   19.0107   18.9953   20.9242 H   0  0  0  0  0  0  0  0  0  0  0  0
   20.1849   19.2407   19.6591 H   0  0  0  0  0  0  0  0  0  0  0  0
   20.9185   17.9471   21.2069 C   0  0  0  0  0  0  0  0  0  0  0  0
   20.6300   17.0925   20.5798 H   0  0  0  0  0  0  0  0  0  0  0  0
   21.9788   18.1293   20.9847 H   0  0  0  0  0  0  0  0  0  0  0  0
   20.7706   17.5143   22.6888 C   0  0  0  0  0  0  0  0  0  0  0  0
   21.3065   16.5618   22.8000 H   0  0  0  0  0  0  0  0  0  0  0  0
   19.7236   17.2820   22.9200 H   0  0  0  0  0  0  0  0  0  0  0  0
   21.3722   18.5110   23.7173 C   0  0  0  0  0  0  0  0  0  0  0  0
   21.9097   17.9337   24.4817 H   0  0  0  0  0  0  0  0  0  0  0  0
   22.1513   19.1196   23.2465 H   0  0  0  0  0  0  0  0  0  0  0  0
   20.3595   19.4244   24.4523 C   0  0  0  0  0  0  0  0  0  0  0  0
   20.9207   20.2486   24.9153 H   0  0  0  0  0  0  0  0  0  0  0  0
   19.2245   20.0354   23.5968 C   0  0  0  0  0  0  0  0  0  0  0  0
   18.6142   19.2442   23.1484 H   0  0  0  0  0  0  0  0  0  0  0  0
   18.5459   20.5592   24.2831 H   0  0  0  0  0  0  0  0  0  0  0  0
   19.6555   21.0579   22.5141 C   0  0  0  0  0  0  0  0  0  0  0  0
   20.1730   21.8994   22.9943 H   0  0  0  0  0  0  0  0  0  0  0  0
   18.7403   21.4818   22.0787 H   0  0  0  0  0  0  0  0  0  0  0  0
   20.5312   20.5264   21.3509 C   0  0  0  0  0  0  0  0  0  0  0  0
   20.5016   21.2807   20.5527 H   0  0  0  0  0  0  0  0  0  0  0  0
   21.5851   20.4838   21.6483 H   0  0  0  0  0  0  0  0  0  0  0  0
   19.7517   18.6568   25.4824 O   0  0  0  0  0  0  0  0  0  0  0  0
   19.3540   17.8800   25.0396 H   0  0  0  0  0  0  0  0  0  0  0  0
  1  2  1  0  0  0  0
  1  3  1  0  0  0  0
  1  4  1  0  0  0  0
  4  5  1  0  0  0  0
  4  6  1  0  0  0  0
  4  7  1  0  0  0  0
  7  8  1  0  0  0  0
  7  9  1  0  0  0  0
  7 10  1  0  0  0  0
 10 11  1  0  0  0  0
 10 12  1  0  0  0  0
 10 13  1  0  0  0  0
 13 14  1  0  0  0  0
 13 15  1  0  0  0  0
 15 16  1  0  0  0  0
 15 17  1  0  0  0  0
 15 18  1  0  0  0  0
 18 19  1  0  0  0  0
 18 20  1  0  0  0  0
  1 21  1  0  0  0  0
 18 21  1  0  0  0  0
 21 22  1  0  0  0  0
 21 23  1  0  0  0  0
 13 24  1  0  0  0  0
 24 25  1  0  0  0  0
M  END
> <VM2 Rank>
9

> <Conf_Id>
1973

> <Probability>
3.28

> <Sum Probability>
35.10

> <Delta G>
0.204

> <G>
62.280

> <E>
29.544

> <-TS>
32.736

> <U+W>
8.976

> <U>
10.541

> <W>
-1.565

> <W(PB)>
-3.702

> <W(SA)>
2.137

> <Valence>
17.202

> <Coulomb>
-9.327

> <VdW>
2.666

> <VdW6>
-12.816

> <VdW12>
15.482

> <Bond>
0.428

> <Angle>
5.357

> <Pdih>
11.417

> <Idih>
0.000

> <Tether>
0.000

$$$$
VeraChem MOL file


 25 25  0  0  0  0  0  0  0  0999 V2000     
   20.1531   19.0665   20.7485 C   0  0  0  0  0  0  0  0  0  0  0  0
   19.2964   18.4001   20.9115 H   0  0  0  0  0  0  0  0  0  0  0  0
   20.2913   19.0932   19.6589 H   0  0  0  0  0  0  0  0  0  0  0  0
   21.4468   18.4774   21.3680 C   0  0  0  0  0  0  0  0  0  0  0  0
   21.9914   17.9420   20.5782 H   0  0  0  0  0  0  0  0  0  0  0  0
   22.1269   19.2805   21.6734 H   0  0  0  0  0  0  0  0  0  0  0  0
   21.2261   17.4756   22.5300 C   0  0  0  0  0  0  0  0  0  0  0  0
   22.1885   17.2849   23.0239 H   0  0  0  0  0  0  0  0  0  0  0  0
   20.9218   16.5152   22.0920 H   0  0  0  0  0  0  0  0  0  0  0  0
   20.1679   17.8555   23.5975 C   0  0  0  0  0  0  0  0  0  0  0  0
   19.1790   17.9439   23.1352 H   0  0  0  0  0  0  0  0  0  0  0  0
   20.0822   17.0028   24.2841 H   0  0  0  0  0  0  0  0  0  0  0  0
   20.4783   19.1050   24.4552 C   0  0  0  0  0  0  0  0  0  0  0  0
   21.4580   18.9582   24.9320 H   0  0  0  0  0  0  0  0  0  0  0  0
   20.5056   20.4674   23.7180 C   0  0  0  0  0  0  0  0  0  0  0  0
   20.4363   21.2553   24.4802 H   0  0  0  0  0  0  0  0  0  0  0  0
   21.4879   20.6252   23.2606 H   0  0  0  0  0  0  0  0  0  0  0  0
   19.3798   20.7007   22.6734 C   0  0  0  0  0  0  0  0  0  0  0  0
   19.0430   21.7412   22.7781 H   0  0  0  0  0  0  0  0  0  0  0  0
   18.4952   20.0903   22.8935 H   0  0  0  0  0  0  0  0  0  0  0  0
   19.8185   20.5129   21.1978 C   0  0  0  0  0  0  0  0  0  0  0  0
   19.0039   20.8803   20.5587 H   0  0  0  0  0  0  0  0  0  0  0  0
   20.6752   21.1671   20.9863 H   0  0  0  0  0  0  0  0  0  0  0  0
   19.4879   19.1819   25.4716 O   0  0  0  0  0  0  0  0  0  0  0  0
   18.6539   19.4166   25.0167 H   0  0  0  0  0  0  0  0  0  0  0  0
  1  2  1  0  0  0  0
  1  3  1  0  0  0  0
  1  4  1  0  0  0  0
  4  5  1  0  0  0  0
  4  6  1  0  0  0  0
  4  7  1  0  0  0  0
  7  8  1  0  0  0  0
  7  9  1  0  0  0  0
  7 10  1  0  0  0  0
 10 11  1  0  0  0  0
 10 12  1  0  0  0  0
 10 13  1  0  0  0  0
 13 14  1  0  0  0  0
 13 15  1  0  0  0  0
 15 16  1  0  0  0  0
 15 17  1  0  0  0  0
 15 18  1  0  0  0  0
 18 19  1  0  0  0  0
 18 20  1  0  0  0  0
  1 21  1  0  0  0  0
 18 21  1  0  0  0  0
 21 22  1  0  0  0  0
 21 23  1  0  0  0  0
 13 24  1  0  0  0  0
 24 25  1  0  0  0  0
M  END
> <VM2 Rank>
10

> <Conf_Id>
1940

> <Probability>
3.12

> <Sum Probability>
38.22

> <Delta G>
0.234

> <G>
62.309

> <E>
29.573

> <-TS>
32.736

> <U+W>
9.006

> <U>
10.541

> <W>
-1.536

> <W(PB)>
-3.659

> <W(SA)>
2.123

> <Valence>
17.202

> <Coulomb>
-9.327

> <VdW>
2.666

> <VdW6>
-12.816

> <VdW12>
15.482

> <Bond>
0.428

> <Angle>
5.357

> <Pdih>
11.417

> <Idih>
0.000

> <Tether>
0.000

$$$$
VeraChem MOL file


 25 25  0  0  0  0  0  0  0  0999 V2000     
   20.8851   19.4385   20.6772 C   0  0  0  0  0  0  0  0  0  0  0  0
   20.0833   19.0985   20.0076 H   0  0  0  0  0  0  0  0  0  0  0  0
   21.6960   19.7742   20.0164 H   0  0  0  0  0  0  0  0  0  0  0  0
   21.4146   18.2317   21.4956 C   0  0  0  0  0  0  0  0  0  0  0  0
   21.8471   17.5225   20.7765 H   0  0  0  0  0  0  0  0  0  0  0  0
   22.2522   18.5336   22.1375 H   0  0  0  0  0  0  0  0  0  0  0  0
   20.3317   17.4722   22.3048 C   0  0  0  0  0  0  0  0  0  0  0  0
   20.5191   16.3945   22.2031 H   0  0  0  0  0  0  0  0  0  0  0  0
   19.3425   17.6223   21.8576 H   0  0  0  0  0  0  0  0  0  0  0  0
   20.2996   17.7914   23.8223 C   0  0  0  0  0  0  0  0  0  0  0  0
   19.3732   17.3876   24.2515 H   0  0  0  0  0  0  0  0  0  0  0  0
   21.1186   17.2322   24.2933 H   0  0  0  0  0  0  0  0  0  0  0  0
   20.4467   19.2757   24.2334 C   0  0  0  0  0  0  0  0  0  0  0  0
   21.3877   19.6707   23.8312 H   0  0  0  0  0  0  0  0  0  0  0  0
   19.2856   20.2042   23.8067 C   0  0  0  0  0  0  0  0  0  0  0  0
   18.3471   19.8297   24.2357 H   0  0  0  0  0  0  0  0  0  0  0  0
   19.4603   21.1819   24.2752 H   0  0  0  0  0  0  0  0  0  0  0  0
   19.0880   20.4406   22.2863 C   0  0  0  0  0  0  0  0  0  0  0  0
   18.4539   21.3308   22.1759 H   0  0  0  0  0  0  0  0  0  0  0  0
   18.5011   19.6284   21.8425 H   0  0  0  0  0  0  0  0  0  0  0  0
   20.3927   20.6709   21.4806 C   0  0  0  0  0  0  0  0  0  0  0  0
   21.1921   21.0630   22.1224 H   0  0  0  0  0  0  0  0  0  0  0  0
   20.1939   21.4691   20.7523 H   0  0  0  0  0  0  0  0  0  0  0  0
   20.5200   19.3177   25.6531 O   0  0  0  0  0  0  0  0  0  0  0  0
   21.2930   18.7744   25.9128 H   0  0  0  0  0  0  0  0  0  0  0  0
  1  2  1  0  0  0  0
  1  3  1  0  0  0  0
  1  4  1  0  0  0  0
  4  5  1  0  0  0  0
  4  6  1  0  0  0  0
  4  7  1  0  0  0  0
  7  8  1  0  0  0  0
  7  9  1  0  0  0  0
  7 10  1  0  0  0  0
 10 11  1  0  0  0  0
 10 12  1  0  0  0  0
 10 13  1  0  0  0  0
 13 14  1  0  0  0  0
 13 15  1  0  0  0  0
 15 16  1  0  0  0  0
 15 17  1  0  0  0  0
 15 18  1  0  0  0  0
 18 19  1  0  0  0  0
 18 20  1  0  0  0  0
  1 21  1  0  0  0  0
 18 21  1  0  0  0  0
 21 22  1  0  0  0  0
 21 23  1  0  0  0  0
 13 24  1  0  0  0  0
 24 25  1  0  0  0  0
M  END
> <VM2 Rank>
11

> <Conf_Id>
1354

> <Probability>
3.04

> <Sum Probability>
41.26

> <Delta G>
0.248

> <G>
62.324

> <E>
29.662

> <-TS>
32.661

> <U+W>
9.095

> <U>
11.209

> <W>
-2.114

> <W(PB)>
-4.242

> <W(SA)>
2.128

> <Valence>
16.993

> <Coulomb>
-8.421

> <VdW>
2.637

> <VdW6>
-12.542

> <VdW12>
15.179

> <Bond>
0.410

> <Angle>
5.145

> <Pdih>
11.438

> <Idih>
0.000

> <Tether>
0.000

$$$$
VeraChem MOL file


 25 25  0  0  0  0  0  0  0  0999 V2000     
   20.8852   19.4382   20.6772 C   0  0  0  0  0  0  0  0  0  0  0  0
   20.0837   19.0975   20.0076 H   0  0  0  0  0  0  0  0  0  0  0  0
   21.6958   19.7745   20.0163 H   0  0  0  0  0  0  0  0  0  0  0  0
   21.4157   18.2319   21.4957 C   0  0  0  0  0  0  0  0  0  0  0  0
   21.8490   17.5231   20.7767 H   0  0  0  0  0  0  0  0  0  0  0  0
   22.2529   18.5341   22.1380 H   0  0  0  0  0  0  0  0  0  0  0  0
   20.3335   17.4711   22.3047 C   0  0  0  0  0  0  0  0  0  0  0  0
   20.5247   16.3937   22.2064 H   0  0  0  0  0  0  0  0  0  0  0  0
   19.3449   17.6168   21.8549 H   0  0  0  0  0  0  0  0  0  0  0  0
   20.2967   17.7936   23.8216 C   0  0  0  0  0  0  0  0  0  0  0  0
   19.3700   17.3910   24.2508 H   0  0  0  0  0  0  0  0  0  0  0  0
   21.1145   17.2381   24.2996 H   0  0  0  0  0  0  0  0  0  0  0  0
   20.4461   19.2770   24.2334 C   0  0  0  0  0  0  0  0  0  0  0  0
   21.3891   19.6672   23.8313 H   0  0  0  0  0  0  0  0  0  0  0  0
   19.2861   20.2078   23.8073 C   0  0  0  0  0  0  0  0  0  0  0  0
   18.3469   19.8344   24.2363 H   0  0  0  0  0  0  0  0  0  0  0  0
   19.4590   21.1888   24.2688 H   0  0  0  0  0  0  0  0  0  0  0  0
   19.0876   20.4385   22.2865 C   0  0  0  0  0  0  0  0  0  0  0  0
   18.4505   21.3263   22.1726 H   0  0  0  0  0  0  0  0  0  0  0  0
   18.5033   19.6229   21.8453 H   0  0  0  0  0  0  0  0  0  0  0  0
   20.3918   20.6702   21.4805 C   0  0  0  0  0  0  0  0  0  0  0  0
   21.1913   21.0630   22.1218 H   0  0  0  0  0  0  0  0  0  0  0  0
   20.1922   21.4682   20.7521 H   0  0  0  0  0  0  0  0  0  0  0  0
   20.5212   19.3148   25.6531 O   0  0  0  0  0  0  0  0  0  0  0  0
   20.6741   20.2496   25.9037 H   0  0  0  0  0  0  0  0  0  0  0  0
  1  2  1  0  0  0  0
  1  3  1  0  0  0  0
  1  4  1  0  0  0  0
  4  5  1  0  0  0  0
  4  6  1  0  0  0  0
  4  7  1  0  0  0  0
  7  8  1  0  0  0  0
  7  9  1  0  0  0  0
  7 10  1  0  0  0  0
 10 11  1  0  0  0  0
 10 12  1  0  0  0  0
 10 13  1  0  0  0  0
 13 14  1  0  0  0  0
 13 15  1  0  0  0  0
 15 16  1  0  0  0  0
 15 17  1  0  0  0  0
 15 18  1  0  0  0  0
 18 19  1  0  0  0  0
 18 20  1  0  0  0  0
  1 21  1  0  0  0  0
 18 21  1  0  0  0  0
 21 22  1  0  0  0  0
 21 23  1  0  0  0  0
 13 24  1  0  0  0  0
 24 25  1  0  0  0  0
M  END
> <VM2 Rank>
12

> <Conf_Id>
337

> <Probability>
2.99

> <Sum Probability>
44.26

> <Delta G>
0.258

> <G>
62.334

> <E>
29.672

> <-TS>
32.661

> <U+W>
9.105

> <U>
11.209

> <W>
-2.104

> <W(PB)>
-4.233

> <W(SA)>
2.129

> <Valence>
16.993

> <Coulomb>
-8.421

> <VdW>
2.637

> <VdW6>
-12.542

> <VdW12>
15.179

> <Bond>
0.410

> <Angle>
5.145

> <Pdih>
11.438

> <Idih>
0.000

> <Tether>
0.000

$$$$
VeraChem MOL file


 25 25  0  0  0  0  0  0  0  0999 V2000     
   20.5591   19.2234   20.6054 C   0  0  0  0  0  0  0  0  0  0  0  0
   20.0763   18.4739   19.9637 H   0  0  0  0  0  0  0  0  0  0  0  0
   21.1341   19.8678   19.9264 H   0  0  0  0  0  0  0  0  0  0  0  0
   21.5726   18.5184   21.5415 C   0  0  0  0  0  0  0  0  0  0  0  0
   22.3220   18.0317   20.9025 H   0  0  0  0  0  0  0  0  0  0  0  0
   22.1402   19.2598   22.1154 H   0  0  0  0  0  0  0  0  0  0  0  0
   20.9931   17.4302   22.4800 C   0  0  0  0  0  0  0  0  0  0  0  0
   21.8386   16.9472   22.9888 H   0  0  0  0  0  0  0  0  0  0  0  0
   20.5211   16.6439   21.8754 H   0  0  0  0  0  0  0  0  0  0  0  0
   19.9900   17.9010   23.5648 C   0  0  0  0  0  0  0  0  0  0  0  0
   18.9905   18.0125   23.1325 H   0  0  0  0  0  0  0  0  0  0  0  0
   19.8842   17.0796   24.2859 H   0  0  0  0  0  0  0  0  0  0  0  0
   20.3950   19.1974   24.3132 C   0  0  0  0  0  0  0  0  0  0  0  0
   21.4728   19.3728   24.1966 H   0  0  0  0  0  0  0  0  0  0  0  0
   19.6236   20.4599   23.8542 C   0  0  0  0  0  0  0  0  0  0  0  0
   18.5449   20.2748   23.9391 H   0  0  0  0  0  0  0  0  0  0  0  0
   19.8434   21.2626   24.5704 H   0  0  0  0  0  0  0  0  0  0  0  0
   19.9447   21.0003   22.4339 C   0  0  0  0  0  0  0  0  0  0  0  0
   21.0133   21.2318   22.3378 H   0  0  0  0  0  0  0  0  0  0  0  0
   19.4320   21.9670   22.3357 H   0  0  0  0  0  0  0  0  0  0  0  0
   19.4629   20.0969   21.2692 C   0  0  0  0  0  0  0  0  0  0  0  0
   19.0483   20.7444   20.4844 H   0  0  0  0  0  0  0  0  0  0  0  0
   18.6158   19.4787   21.5871 H   0  0  0  0  0  0  0  0  0  0  0  0
   20.1230   19.0154   25.6978 O   0  0  0  0  0  0  0  0  0  0  0  0
   20.6688   18.2570   25.9937 H   0  0  0  0  0  0  0  0  0  0  0  0
  1  2  1  0  0  0  0
  1  3  1  0  0  0  0
  1  4  1  0  0  0  0
  4  5  1  0  0  0  0
  4  6  1  0  0  0  0
  4  7  1  0  0  0  0
  7  8  1  0  0  0  0
  7  9  1  0  0  0  0
  7 10  1  0  0  0  0
 10 11  1  0  0  0  0
 10 12  1  0  0  0  0
 10 13  1  0  0  0  0
 13 14  1  0  0  0  0
 13 15  1  0  0  0  0
 15 16  1  0  0  0  0
 15 17  1  0  0  0  0
 15 18  1  0  0  0  0
 18 19  1  0  0  0  0
 18 20  1  0  0  0  0
  1 21  1  0  0  0  0
 18 21  1  0  0  0  0
 21 22  1  0  0  0  0
 21 23  1  0  0  0  0
 13 24  1  0  0  0  0
 24 25  1  0  0  0  0
M  END
> <VM2 Rank>
13

> <Conf_Id>
584

> <Probability>
2.61

> <Sum Probability>
46.87

> <Delta G>
0.340

> <G>
62.415

> <E>
29.635

> <-TS>
32.781

> <U+W>
9.067

> <U>
11.150

> <W>
-2.083

> <W(PB)>
-4.217

> <W(SA)>
2.134

> <Valence>
16.583

> <Coulomb>
-8.361

> <VdW>
2.928

> <VdW6>
-12.539

> <VdW12>
15.467

> <Bond>
0.441

> <Angle>
5.093

> <Pdih>
11.049

> <Idih>
0.000

> <Tether>
0.000

$$$$
VeraChem MOL file


 25 25  0  0  0  0  0  0  0  0999 V2000     
   20.5224   19.3667   20.6072 C   0  0  0  0  0  0  0  0  0  0  0  0
   19.6589   19.5528   19.9542 H   0  0  0  0  0  0  0  0  0  0  0  0
   21.3927   19.3139   19.9388 H   0  0  0  0  0  0  0  0  0  0  0  0
   20.3561   17.9772   21.2757 C   0  0  0  0  0  0  0  0  0  0  0  0
   20.5298   17.2224   20.4965 H   0  0  0  0  0  0  0  0  0  0  0  0
   19.3161   17.8175   21.5818 H   0  0  0  0  0  0  0  0  0  0  0  0
   21.3213   17.6840   22.4535 C   0  0  0  0  0  0  0  0  0  0  0  0
   22.2421   18.2750   22.3657 H   0  0  0  0  0  0  0  0  0  0  0  0
   21.6428   16.6374   22.3642 H   0  0  0  0  0  0  0  0  0  0  0  0
   20.6952   17.8464   23.8656 C   0  0  0  0  0  0  0  0  0  0  0  0
   19.8001   17.2154   23.9426 H   0  0  0  0  0  0  0  0  0  0  0  0
   21.4093   17.4371   24.5924 H   0  0  0  0  0  0  0  0  0  0  0  0
   20.3433   19.2868   24.3135 C   0  0  0  0  0  0  0  0  0  0  0  0
   21.2313   19.9238   24.2045 H   0  0  0  0  0  0  0  0  0  0  0  0
   19.1498   19.9143   23.5476 C   0  0  0  0  0  0  0  0  0  0  0  0
   18.5267   19.1271   23.1115 H   0  0  0  0  0  0  0  0  0  0  0  0
   18.4859   20.4241   24.2584 H   0  0  0  0  0  0  0  0  0  0  0  0
   19.5400   20.9512   22.4626 C   0  0  0  0  0  0  0  0  0  0  0  0
   19.7910   21.8928   22.9700 H   0  0  0  0  0  0  0  0  0  0  0  0
   18.6578   21.1712   21.8462 H   0  0  0  0  0  0  0  0  0  0  0  0
   20.7302   20.5862   21.5400 C   0  0  0  0  0  0  0  0  0  0  0  0
   20.9242   21.4571   20.8991 H   0  0  0  0  0  0  0  0  0  0  0  0
   21.6487   20.4655   22.1256 H   0  0  0  0  0  0  0  0  0  0  0  0
   20.0056   19.2301   25.6944 O   0  0  0  0  0  0  0  0  0  0  0  0
   19.8524   20.1537   25.9841 H   0  0  0  0  0  0  0  0  0  0  0  0
  1  2  1  0  0  0  0
  1  3  1  0  0  0  0
  1  4  1  0  0  0  0
  4  5  1  0  0  0  0
  4  6  1  0  0  0  0
  4  7  1  0  0  0  0
  7  8  1  0  0  0  0
  7  9  1  0  0  0  0
  7 10  1  0  0  0  0
 10 11  1  0  0  0  0
 10 12  1  0  0  0  0
 10 13  1  0  0  0  0
 13 14  1  0  0  0  0
 13 15  1  0  0  0  0
 15 16  1  0  0  0  0
 15 17  1  0  0  0  0
 15 18  1  0  0  0  0
 18 19  1  0  0  0  0
 18 20  1  0  0  0  0
  1 21  1  0  0  0  0
 18 21  1  0  0  0  0
 21 22  1  0  0  0  0
 21 23  1  0  0  0  0
 13 24  1  0  0  0  0
 24 25  1  0  0  0  0
M  END
> <VM2 Rank>
14

> <Conf_Id>
1859

> <Probability>
2.57

> <Sum Probability>
49.44

> <Delta G>
0.348

> <G>
62.424

> <E>
29.643

> <-TS>
32.781

> <U+W>
9.075

> <U>
11.150

> <W>
-2.074

> <W(PB)>
-4.196

> <W(SA)>
2.121

> <Valence>
16.583

> <Coulomb>
-8.361

> <VdW>
2.928

> <VdW6>
-12.539

> <VdW12>
15.466

> <Bond>
0.441

> <Angle>
5.093

> <Pdih>
11.049

> <Idih>
0.000

> <Tether>
0.000

$$$$
VeraChem MOL file


 25 25  0  0  0  0  0  0  0  0999 V2000     
   20.5220   19.3658   20.6059 C   0  0  0  0  0  0  0  0  0  0  0  0
   19.6590   19.5520   19.9524 H   0  0  0  0  0  0  0  0  0  0  0  0
   21.3927   19.3110   19.9382 H   0  0  0  0  0  0  0  0  0  0  0  0
   20.3535   17.9781   21.2770 C   0  0  0  0  0  0  0  0  0  0  0  0
   19.3140   17.8224   21.5866 H   0  0  0  0  0  0  0  0  0  0  0  0
   20.5229   17.2212   20.4989 H   0  0  0  0  0  0  0  0  0  0  0  0
   21.3216   17.6858   22.4526 C   0  0  0  0  0  0  0  0  0  0  0  0
   22.2419   18.2773   22.3626 H   0  0  0  0  0  0  0  0  0  0  0  0
   21.6438   16.6394   22.3619 H   0  0  0  0  0  0  0  0  0  0  0  0
   20.6984   17.8469   23.8658 C   0  0  0  0  0  0  0  0  0  0  0  0
   19.8032   17.2156   23.9415 H   0  0  0  0  0  0  0  0  0  0  0  0
   21.4150   17.4331   24.5873 H   0  0  0  0  0  0  0  0  0  0  0  0
   20.3447   19.2873   24.3153 C   0  0  0  0  0  0  0  0  0  0  0  0
   21.2297   19.9290   24.2094 H   0  0  0  0  0  0  0  0  0  0  0  0
   19.1520   19.9158   23.5494 C   0  0  0  0  0  0  0  0  0  0  0  0
   18.5223   19.1300   23.1202 H   0  0  0  0  0  0  0  0  0  0  0  0
   18.4975   20.4311   24.2653 H   0  0  0  0  0  0  0  0  0  0  0  0
   19.5401   20.9501   22.4607 C   0  0  0  0  0  0  0  0  0  0  0  0
   19.7908   21.8924   22.9669 H   0  0  0  0  0  0  0  0  0  0  0  0
   18.6569   21.1685   21.8453 H   0  0  0  0  0  0  0  0  0  0  0  0
   20.7301   20.5856   21.5380 C   0  0  0  0  0  0  0  0  0  0  0  0
   21.6485   20.4653   22.1239 H   0  0  0  0  0  0  0  0  0  0  0  0
   20.9238   21.4563   20.8968 H   0  0  0  0  0  0  0  0  0  0  0  0
   20.0016   19.2276   25.6952 O   0  0  0  0  0  0  0  0  0  0  0  0
   20.7879   18.8834   26.1680 H   0  0  0  0  0  0  0  0  0  0  0  0
  1  2  1  0  0  0  0
  1  3  1  0  0  0  0
  1  4  1  0  0  0  0
  4  5  1  0  0  0  0
  4  6  1  0  0  0  0
  4  7  1  0  0  0  0
  7  8  1  0  0  0  0
  7  9  1  0  0  0  0
  7 10  1  0  0  0  0
 10 11  1  0  0  0  0
 10 12  1  0  0  0  0
 10 13  1  0  0  0  0
 13 14  1  0  0  0  0
 13 15  1  0  0  0  0
 15 16  1  0  0  0  0
 15 17  1  0  0  0  0
 15 18  1  0  0  0  0
 18 19  1  0  0  0  0
 18 20  1  0  0  0  0
  1 21  1  0  0  0  0
 18 21  1  0  0  0  0
 21 22  1  0  0  0  0
 21 23  1  0  0  0  0
 13 24  1  0  0  0  0
 24 25  1  0  0  0  0
M  END
> <VM2 Rank>
15

> <Conf_Id>
127

> <Probability>
2.55

> <Sum Probability>
51.99

> <Delta G>
0.354

> <G>
62.430

> <E>
29.684

> <-TS>
32.745

> <U+W>
9.117

> <U>
11.364

> <W>
-2.248

> <W(PB)>
-4.367

> <W(SA)>
2.119

> <Valence>
16.582

> <Coulomb>
-8.150

> <VdW>
2.932

> <VdW6>
-12.531

> <VdW12>
15.464

> <Bond>
0.439

> <Angle>
5.099

> <Pdih>
11.044

> <Idih>
0.000

> <Tether>
0.000

$$$$
VeraChem MOL file


 25 25  0  0  0  0  0  0  0  0999 V2000     
   20.5580   19.2236   20.6041 C   0  0  0  0  0  0  0  0  0  0  0  0
   20.0756   18.4743   19.9621 H   0  0  0  0  0  0  0  0  0  0  0  0
   21.1319   19.8696   19.9257 H   0  0  0  0  0  0  0  0  0  0  0  0
   21.5721   18.5188   21.5395 C   0  0  0  0  0  0  0  0  0  0  0  0
   22.1399   19.2598   22.1137 H   0  0  0  0  0  0  0  0  0  0  0  0
   22.3211   18.0319   20.9001 H   0  0  0  0  0  0  0  0  0  0  0  0
   20.9926   17.4310   22.4783 C   0  0  0  0  0  0  0  0  0  0  0  0
   21.8384   16.9475   22.9859 H   0  0  0  0  0  0  0  0  0  0  0  0
   20.5189   16.6451   21.8747 H   0  0  0  0  0  0  0  0  0  0  0  0
   19.9926   17.9016   23.5665 C   0  0  0  0  0  0  0  0  0  0  0  0
   18.9896   18.0075   23.1412 H   0  0  0  0  0  0  0  0  0  0  0  0
   19.8973   17.0831   24.2928 H   0  0  0  0  0  0  0  0  0  0  0  0
   20.3962   19.1981   24.3150 C   0  0  0  0  0  0  0  0  0  0  0  0
   21.4753   19.3681   24.2014 H   0  0  0  0  0  0  0  0  0  0  0  0
   19.6264   20.4618   23.8544 C   0  0  0  0  0  0  0  0  0  0  0  0
   18.5472   20.2769   23.9379 H   0  0  0  0  0  0  0  0  0  0  0  0
   19.8447   21.2695   24.5651 H   0  0  0  0  0  0  0  0  0  0  0  0
   19.9461   20.9993   22.4329 C   0  0  0  0  0  0  0  0  0  0  0  0
   21.0147   21.2300   22.3347 H   0  0  0  0  0  0  0  0  0  0  0  0
   19.4341   21.9662   22.3334 H   0  0  0  0  0  0  0  0  0  0  0  0
   19.4617   20.0944   21.2706 C   0  0  0  0  0  0  0  0  0  0  0  0
   19.0425   20.7403   20.4869 H   0  0  0  0  0  0  0  0  0  0  0  0
   18.6176   19.4738   21.5920 H   0  0  0  0  0  0  0  0  0  0  0  0
   20.1184   19.0144   25.6986 O   0  0  0  0  0  0  0  0  0  0  0  0
   20.4340   19.8191   26.1602 H   0  0  0  0  0  0  0  0  0  0  0  0
  1  2  1  0  0  0  0
  1  3  1  0  0  0  0
  1  4  1  0  0  0  0
  4  5  1  0  0  0  0
  4  6  1  0  0  0  0
  4  7  1  0  0  0  0
  7  8  1  0  0  0  0
  7  9  1  0  0  0  0
  7 10  1  0  0  0  0
 10 11  1  0  0  0  0
 10 12  1  0  0  0  0
 10 13  1  0  0  0  0
 13 14  1  0  0  0  0
 13 15  1  0  0  0  0
 15 16  1  0  0  0  0
 15 17  1  0  0  0  0
 15 18  1  0  0  0  0
 18 19  1  0  0  0  0
 18 20  1  0  0  0  0
  1 21  1  0  0  0  0
 18 21  1  0  0  0  0
 21 22  1  0  0  0  0
 21 23  1  0  0  0  0
 13 24  1  0  0  0  0
 24 25  1  0  0  0  0
M  END
> <VM2 Rank>
16

> <Conf_Id>
1665

> <Probability>
2.48

> <Sum Probability>
54.47

> <Delta G>
0.370

> <G>
62.445

> <E>
29.700

> <-TS>
32.745

> <U+W>
9.133

> <U>
11.364

> <W>
-2.232

> <W(PB)>
-4.359

> <W(SA)>
2.127

> <Valence>
16.582

> <Coulomb>
-8.150

> <VdW>
2.932

> <VdW6>
-12.531

> <VdW12>
15.464

> <Bond>
0.439

> <Angle>
5.099

> <Pdih>
11.044

> <Idih>
0.000

> <Tether>
0.000

$$$$
VeraChem MOL file


 25 25  0  0  0  0  0  0  0  0999 V2000     
   20.5216   19.3657   20.6066 C   0  0  0  0  0  0  0  0  0  0  0  0
   19.6580   19.5518   19.9539 H   0  0  0  0  0  0  0  0  0  0  0  0
   21.3918   19.3115   19.9382 H   0  0  0  0  0  0  0  0  0  0  0  0
   20.3545   17.9776   21.2773 C   0  0  0  0  0  0  0  0  0  0  0  0
   19.3149   17.8205   21.5861 H   0  0  0  0  0  0  0  0  0  0  0  0
   20.5250   17.2211   20.4990 H   0  0  0  0  0  0  0  0  0  0  0  0
   21.3223   17.6859   22.4532 C   0  0  0  0  0  0  0  0  0  0  0  0
   22.2419   18.2785   22.3644 H   0  0  0  0  0  0  0  0  0  0  0  0
   21.6459   16.6399   22.3628 H   0  0  0  0  0  0  0  0  0  0  0  0
   20.6974   17.8465   23.8655 C   0  0  0  0  0  0  0  0  0  0  0  0
   19.8056   17.2106   23.9394 H   0  0  0  0  0  0  0  0  0  0  0  0
   21.4150   17.4388   24.5902 H   0  0  0  0  0  0  0  0  0  0  0  0
   20.3428   19.2866   24.3140 C   0  0  0  0  0  0  0  0  0  0  0  0
   21.2289   19.9267   24.2099 H   0  0  0  0  0  0  0  0  0  0  0  0
   19.1501   19.9168   23.5491 C   0  0  0  0  0  0  0  0  0  0  0  0
   18.5203   19.1330   23.1161 H   0  0  0  0  0  0  0  0  0  0  0  0
   18.4957   20.4354   24.2628 H   0  0  0  0  0  0  0  0  0  0  0  0
   19.5407   20.9510   22.4614 C   0  0  0  0  0  0  0  0  0  0  0  0
   19.7930   21.8926   22.9682 H   0  0  0  0  0  0  0  0  0  0  0  0
   18.6583   21.1716   21.8456 H   0  0  0  0  0  0  0  0  0  0  0  0
   20.7305   20.5853   21.5389 C   0  0  0  0  0  0  0  0  0  0  0  0
   20.9249   21.4558   20.8977 H   0  0  0  0  0  0  0  0  0  0  0  0
   21.6486   20.4645   22.1250 H   0  0  0  0  0  0  0  0  0  0  0  0
   20.0042   19.2276   25.6939 O   0  0  0  0  0  0  0  0  0  0  0  0
   19.2165   18.6498   25.7610 H   0  0  0  0  0  0  0  0  0  0  0  0
  1  2  1  0  0  0  0
  1  3  1  0  0  0  0
  1  4  1  0  0  0  0
  4  5  1  0  0  0  0
  4  6  1  0  0  0  0
  4  7  1  0  0  0  0
  7  8  1  0  0  0  0
  7  9  1  0  0  0  0
  7 10  1  0  0  0  0
 10 11  1  0  0  0  0
 10 12  1  0  0  0  0
 10 13  1  0  0  0  0
 13 14  1  0  0  0  0
 13 15  1  0  0  0  0
 15 16  1  0  0  0  0
 15 17  1  0  0  0  0
 15 18  1  0  0  0  0
 18 19  1  0  0  0  0
 18 20  1  0  0  0  0
  1 21  1  0  0  0  0
 18 21  1  0  0  0  0
 21 22  1  0  0  0  0
 21 23  1  0  0  0  0
 13 24  1  0  0  0  0
 24 25  1  0  0  0  0
M  END
> <VM2 Rank>
17

> <Conf_Id>
1429

> <Probability>
2.44

> <Sum Probability>
56.91

> <Delta G>
0.380

> <G>
62.455

> <E>
29.716

> <-TS>
32.739

> <U+W>
9.148

> <U>
11.181

> <W>
-2.032

> <W(PB)>
-4.147

> <W(SA)>
2.114

> <Valence>
16.955

> <Coulomb>
-8.661

> <VdW>
2.887

> <VdW6>
-12.561

> <VdW12>
15.448

> <Bond>
0.433

> <Angle>
5.120

> <Pdih>
11.402

> <Idih>
0.000

> <Tether>
0.000

$$$$
VeraChem MOL file


 25 25  0  0  0  0  0  0  0  0999 V2000     
   20.8860   19.4387   20.6782 C   0  0  0  0  0  0  0  0  0  0  0  0
   20.0847   19.0985   20.0081 H   0  0  0  0  0  0  0  0  0  0  0  0
   21.6970   19.7748   20.0178 H   0  0  0  0  0  0  0  0  0  0  0  0
   21.4157   18.2320   21.4967 C   0  0  0  0  0  0  0  0  0  0  0  0
   21.8496   17.5234   20.7779 H   0  0  0  0  0  0  0  0  0  0  0  0
   22.2523   18.5342   22.1399 H   0  0  0  0  0  0  0  0  0  0  0  0
   20.3328   17.4711   22.3046 C   0  0  0  0  0  0  0  0  0  0  0  0
   20.5227   16.3936   22.2042 H   0  0  0  0  0  0  0  0  0  0  0  0
   19.3443   17.6189   21.8551 H   0  0  0  0  0  0  0  0  0  0  0  0
   20.2969   17.7910   23.8219 C   0  0  0  0  0  0  0  0  0  0  0  0
   19.3713   17.3826   24.2480 H   0  0  0  0  0  0  0  0  0  0  0  0
   21.1179   17.2371   24.2966 H   0  0  0  0  0  0  0  0  0  0  0  0
   20.4437   19.2752   24.2327 C   0  0  0  0  0  0  0  0  0  0  0  0
   21.3856   19.6678   23.8308 H   0  0  0  0  0  0  0  0  0  0  0  0
   19.2839   20.2062   23.8070 C   0  0  0  0  0  0  0  0  0  0  0  0
   18.3421   19.8367   24.2328 H   0  0  0  0  0  0  0  0  0  0  0  0
   19.4620   21.1850   24.2722 H   0  0  0  0  0  0  0  0  0  0  0  0
   19.0876   20.4401   22.2862 C   0  0  0  0  0  0  0  0  0  0  0  0
   18.4526   21.3296   22.1736 H   0  0  0  0  0  0  0  0  0  0  0  0
   18.5022   19.6267   21.8427 H   0  0  0  0  0  0  0  0  0  0  0  0
   20.3929   20.6708   21.4816 C   0  0  0  0  0  0  0  0  0  0  0  0
   20.1948   21.4693   20.7534 H   0  0  0  0  0  0  0  0  0  0  0  0
   21.1919   21.0626   22.1242 H   0  0  0  0  0  0  0  0  0  0  0  0
   20.5245   19.3179   25.6510 O   0  0  0  0  0  0  0  0  0  0  0  0
   19.6761   18.9643   25.9882 H   0  0  0  0  0  0  0  0  0  0  0  0
  1  2  1  0  0  0  0
  1  3  1  0  0  0  0
  1  4  1  0  0  0  0
  4  5  1  0  0  0  0
  4  6  1  0  0  0  0
  4  7  1  0  0  0  0
  7  8  1  0  0  0  0
  7  9  1  0  0  0  0
  7 10  1  0  0  0  0
 10 11  1  0  0  0  0
 10 12  1  0  0  0  0
 10 13  1  0  0  0  0
 13 14  1  0  0  0  0
 13 15  1  0  0  0  0
 15 16  1  0  0  0  0
 15 17  1  0  0  0  0
 15 18  1  0  0  0  0
 18 19  1  0  0  0  0
 18 20  1  0  0  0  0
  1 21  1  0  0  0  0
 18 21  1  0  0  0  0
 21 22  1  0  0  0  0
 21 23  1  0  0  0  0
 13 24  1  0  0  0  0
 24 25  1  0  0  0  0
M  END
> <VM2 Rank>
18

> <Conf_Id>
1648

> <Probability>
2.37

> <Sum Probability>
59.27

> <Delta G>
0.398

> <G>
62.474

> <E>
29.828

> <-TS>
32.646

> <U+W>
9.260

> <U>
11.191

> <W>
-1.930

> <W(PB)>
-4.074

> <W(SA)>
2.144

> <Valence>
17.334

> <Coulomb>
-8.749

> <VdW>
2.606

> <VdW6>
-12.571

> <VdW12>
15.178

> <Bond>
0.408

> <Angle>
5.152

> <Pdih>
11.774

> <Idih>
0.000

> <Tether>
0.000

$$$$
VeraChem MOL file


 25 25  0  0  0  0  0  0  0  0999 V2000     
   20.5576   19.2234   20.6049 C   0  0  0  0  0  0  0  0  0  0  0  0
   20.0747   18.4738   19.9636 H   0  0  0  0  0  0  0  0  0  0  0  0
   21.1316   19.8685   19.9256 H   0  0  0  0  0  0  0  0  0  0  0  0
   21.5720   18.5191   21.5404 C   0  0  0  0  0  0  0  0  0  0  0  0
   22.3214   18.0329   20.9010 H   0  0  0  0  0  0  0  0  0  0  0  0
   22.1394   19.2603   22.1147 H   0  0  0  0  0  0  0  0  0  0  0  0
   20.9934   17.4307   22.4789 C   0  0  0  0  0  0  0  0  0  0  0  0
   21.8399   16.9488   22.9872 H   0  0  0  0  0  0  0  0  0  0  0  0
   20.5217   16.6439   21.8749 H   0  0  0  0  0  0  0  0  0  0  0  0
   19.9918   17.8996   23.5663 C   0  0  0  0  0  0  0  0  0  0  0  0
   18.9901   18.0041   23.1371 H   0  0  0  0  0  0  0  0  0  0  0  0
   19.8988   17.0787   24.2903 H   0  0  0  0  0  0  0  0  0  0  0  0
   20.3944   19.1972   24.3137 C   0  0  0  0  0  0  0  0  0  0  0  0
   21.4732   19.3691   24.2020 H   0  0  0  0  0  0  0  0  0  0  0  0
   19.6255   20.4615   23.8541 C   0  0  0  0  0  0  0  0  0  0  0  0
   18.5455   20.2823   23.9357 H   0  0  0  0  0  0  0  0  0  0  0  0
   19.8490   21.2655   24.5681 H   0  0  0  0  0  0  0  0  0  0  0  0
   19.9469   20.9997   22.4336 C   0  0  0  0  0  0  0  0  0  0  0  0
   21.0160   21.2290   22.3365 H   0  0  0  0  0  0  0  0  0  0  0  0
   19.4364   21.9674   22.3343 H   0  0  0  0  0  0  0  0  0  0  0  0
   19.4620   20.0956   21.2708 C   0  0  0  0  0  0  0  0  0  0  0  0
   18.6170   19.4760   21.5915 H   0  0  0  0  0  0  0  0  0  0  0  0
   19.0443   20.7422   20.4869 H   0  0  0  0  0  0  0  0  0  0  0  0
   20.1202   19.0161   25.6973 O   0  0  0  0  0  0  0  0  0  0  0  0
   19.1549   18.8693   25.7711 H   0  0  0  0  0  0  0  0  0  0  0  0
  1  2  1  0  0  0  0
  1  3  1  0  0  0  0
  1  4  1  0  0  0  0
  4  5  1  0  0  0  0
  4  6  1  0  0  0  0
  4  7  1  0  0  0  0
  7  8  1  0  0  0  0
  7  9  1  0  0  0  0
  7 10  1  0  0  0  0
 10 11  1  0  0  0  0
 10 12  1  0  0  0  0
 10 13  1  0  0  0  0
 13 14  1  0  0  0  0
 13 15  1  0  0  0  0
 15 16  1  0  0  0  0
 15 17  1  0  0  0  0
 15 18  1  0  0  0  0
 18 19  1  0  0  0  0
 18 20  1  0  0  0  0
  1 21  1  0  0  0  0
 18 21  1  0  0  0  0
 21 22  1  0  0  0  0
 21 23  1  0  0  0  0
 13 24  1  0  0  0  0
 24 25  1  0  0  0  0
M  END
> <VM2 Rank>
19

> <Conf_Id>
287

> <Probability>
2.19

> <Sum Probability>
61.47

> <Delta G>
0.443

> <G>
62.519

> <E>
29.779

> <-TS>
32.740

> <U+W>
9.212

> <U>
11.181

> <W>
-1.969

> <W(PB)>
-4.093

> <W(SA)>
2.124

> <Valence>
16.955

> <Coulomb>
-8.661

> <VdW>
2.887

> <VdW6>
-12.561

> <VdW12>
15.448

> <Bond>
0.433

> <Angle>
5.121

> <Pdih>
11.402

> <Idih>
0.000

> <Tether>
0.000

$$$$
VeraChem MOL file


 25 25  0  0  0  0  0  0  0  0999 V2000     
   20.0735   19.1664   20.7523 C   0  0  0  0  0  0  0  0  0  0  0  0
   19.0052   18.9920   20.9335 H   0  0  0  0  0  0  0  0  0  0  0  0
   20.1712   19.2335   19.6601 H   0  0  0  0  0  0  0  0  0  0  0  0
   20.9149   17.9454   21.2079 C   0  0  0  0  0  0  0  0  0  0  0  0
   20.6227   17.0886   20.5857 H   0  0  0  0  0  0  0  0  0  0  0  0
   21.9737   18.1273   20.9787 H   0  0  0  0  0  0  0  0  0  0  0  0
   20.7766   17.5174   22.6924 C   0  0  0  0  0  0  0  0  0  0  0  0
   21.3139   16.5660   22.8050 H   0  0  0  0  0  0  0  0  0  0  0  0
   19.7314   17.2855   22.9348 H   0  0  0  0  0  0  0  0  0  0  0  0
   21.3784   18.5188   23.7152 C   0  0  0  0  0  0  0  0  0  0  0  0
   21.9282   17.9448   24.4726 H   0  0  0  0  0  0  0  0  0  0  0  0
   22.1474   19.1347   23.2377 H   0  0  0  0  0  0  0  0  0  0  0  0
   20.3599   19.4227   24.4558 C   0  0  0  0  0  0  0  0  0  0  0  0
   20.9186   20.2449   24.9254 H   0  0  0  0  0  0  0  0  0  0  0  0
   19.2291   20.0390   23.5989 C   0  0  0  0  0  0  0  0  0  0  0  0
   18.6174   19.2465   23.1547 H   0  0  0  0  0  0  0  0  0  0  0  0
   18.5514   20.5633   24.2855 H   0  0  0  0  0  0  0  0  0  0  0  0
   19.6615   21.0599   22.5147 C   0  0  0  0  0  0  0  0  0  0  0  0
   20.1859   21.8982   22.9930 H   0  0  0  0  0  0  0  0  0  0  0  0
   18.7463   21.4891   22.0847 H   0  0  0  0  0  0  0  0  0  0  0  0
   20.5275   20.5255   21.3452 C   0  0  0  0  0  0  0  0  0  0  0  0
   21.5842   20.4853   21.6327 H   0  0  0  0  0  0  0  0  0  0  0  0
   20.4898   21.2774   20.5450 H   0  0  0  0  0  0  0  0  0  0  0  0
   19.7426   18.6480   25.4777 O   0  0  0  0  0  0  0  0  0  0  0  0
   20.4646   18.2752   26.0245 H   0  0  0  0  0  0  0  0  0  0  0  0
  1  2  1  0  0  0  0
  1  3  1  0  0  0  0
  1  4  1  0  0  0  0
  4  5  1  0  0  0  0
  4  6  1  0  0  0  0
  4  7  1  0  0  0  0
  7  8  1  0  0  0  0
  7  9  1  0  0  0  0
  7 10  1  0  0  0  0
 10 11  1  0  0  0  0
 10 12  1  0  0  0  0
 10 13  1  0  0  0  0
 13 14  1  0  0  0  0
 13 15  1  0  0  0  0
 15 16  1  0  0  0  0
 15 17  1  0  0  0  0
 15 18  1  0  0  0  0
 18 19  1  0  0  0  0
 18 20  1  0  0  0  0
  1 21  1  0  0  0  0
 18 21  1  0  0  0  0
 21 22  1  0  0  0  0
 21 23  1  0  0  0  0
 13 24  1  0  0  0  0
 24 25  1  0  0  0  0
M  END
> <VM2 Rank>
20

> <Conf_Id>
1352

> <Probability>
1.97

> <Sum Probability>
63.44

> <Delta G>
0.509

> <G>
62.584

> <E>
29.865

> <-TS>
32.719

> <U+W>
9.298

> <U>
11.545

> <W>
-2.247

> <W(PB)>
-4.380

> <W(SA)>
2.133

> <Valence>
16.814

> <Coulomb>
-7.999

> <VdW>
2.729

> <VdW6>
-12.749

> <VdW12>
15.478

> <Bond>
0.438

> <Angle>
5.318

> <Pdih>
11.059

> <Idih>
0.000

> <Tether>
0.000

$$$$
VeraChem MOL file


 25 25  0  0  0  0  0  0  0  0999 V2000     
   21.0585   19.5298   20.9914 C   0  0  0  0  0  0  0  0  0  0  0  0
   21.4210   19.6842   19.9660 H   0  0  0  0  0  0  0  0  0  0  0  0
   21.8766   19.8817   21.6301 H   0  0  0  0  0  0  0  0  0  0  0  0
   20.8425   18.0078   21.1798 C   0  0  0  0  0  0  0  0  0  0  0  0
   20.0921   17.6555   20.4593 H   0  0  0  0  0  0  0  0  0  0  0  0
   21.7793   17.5054   20.9026 H   0  0  0  0  0  0  0  0  0  0  0  0
   20.4459   17.5235   22.5976 C   0  0  0  0  0  0  0  0  0  0  0  0
   20.6216   16.4395   22.6279 H   0  0  0  0  0  0  0  0  0  0  0  0
   19.3668   17.6265   22.7489 H   0  0  0  0  0  0  0  0  0  0  0  0
   21.2434   18.1718   23.7641 C   0  0  0  0  0  0  0  0  0  0  0  0
   21.4665   17.3820   24.4935 H   0  0  0  0  0  0  0  0  0  0  0  0
   22.2251   18.5141   23.4149 H   0  0  0  0  0  0  0  0  0  0  0  0
   20.5355   19.3096   24.5461 C   0  0  0  0  0  0  0  0  0  0  0  0
   21.2228   19.6055   25.3515 H   0  0  0  0  0  0  0  0  0  0  0  0
   20.1990   20.6049   23.7612 C   0  0  0  0  0  0  0  0  0  0  0  0
   19.7794   21.3121   24.4889 H   0  0  0  0  0  0  0  0  0  0  0  0
   21.1237   21.0801   23.4119 H   0  0  0  0  0  0  0  0  0  0  0  0
   19.1807   20.4710   22.5941 C   0  0  0  0  0  0  0  0  0  0  0  0
   18.5159   21.3452   22.6221 H   0  0  0  0  0  0  0  0  0  0  0  0
   18.5120   19.6181   22.7465 H   0  0  0  0  0  0  0  0  0  0  0  0
   19.8063   20.4222   21.1770 C   0  0  0  0  0  0  0  0  0  0  0  0
   19.0346   20.1195   20.4564 H   0  0  0  0  0  0  0  0  0  0  0  0
   20.0877   21.4468   20.8980 H   0  0  0  0  0  0  0  0  0  0  0  0
   19.3523   18.8024   25.1488 O   0  0  0  0  0  0  0  0  0  0  0  0
   18.7674   18.5503   24.4081 H   0  0  0  0  0  0  0  0  0  0  0  0
  1  2  1  0  0  0  0
  1  3  1  0  0  0  0
  1  4  1  0  0  0  0
  4  5  1  0  0  0  0
  4  6  1  0  0  0  0
  4  7  1  0  0  0  0
  7  8  1  0  0  0  0
  7  9  1  0  0  0  0
  7 10  1  0  0  0  0
 10 11  1  0  0  0  0
 10 12  1  0  0  0  0
 10 13  1  0  0  0  0
 13 14  1  0  0  0  0
 13 15  1  0  0  0  0
 15 16  1  0  0  0  0
 15 17  1  0  0  0  0
 15 18  1  0  0  0  0
 18 19  1  0  0  0  0
 18 20  1  0  0  0  0
  1 21  1  0  0  0  0
 18 21  1  0  0  0  0
 21 22  1  0  0  0  0
 21 23  1  0  0  0  0
 13 24  1  0  0  0  0
 24 25  1  0  0  0  0
M  END
> <VM2 Rank>
21

> <Conf_Id>
533

> <Probability>
1.87

> <Sum Probability>
65.31

> <Delta G>
0.537

> <G>
62.613

> <E>
29.810

> <-TS>
32.802

> <U+W>
9.243

> <U>
10.674

> <W>
-1.432

> <W(PB)>
-3.549

> <W(SA)>
2.118

> <Valence>
17.246

> <Coulomb>
-9.242

> <VdW>
2.671

> <VdW6>
-13.410

> <VdW12>
16.081

> <Bond>
0.483

> <Angle>
6.110

> <Pdih>
10.652

> <Idih>
0.000

> <Tether>
0.000

$$$$
VeraChem MOL file


 25 25  0  0  0  0  0  0  0  0999 V2000     
   20.1460   19.0639   20.7502 C   0  0  0  0  0  0  0  0  0  0  0  0
   19.2901   18.3984   20.9207 H   0  0  0  0  0  0  0  0  0  0  0  0
   20.2767   19.0883   19.6597 H   0  0  0  0  0  0  0  0  0  0  0  0
   21.4436   18.4754   21.3621 C   0  0  0  0  0  0  0  0  0  0  0  0
   21.9810   17.9358   20.5703 H   0  0  0  0  0  0  0  0  0  0  0  0
   22.1276   19.2788   21.6579 H   0  0  0  0  0  0  0  0  0  0  0  0
   21.2317   17.4787   22.5305 C   0  0  0  0  0  0  0  0  0  0  0  0
   22.1965   17.2953   23.0225 H   0  0  0  0  0  0  0  0  0  0  0  0
   20.9312   16.5147   22.0979 H   0  0  0  0  0  0  0  0  0  0  0  0
   20.1737   17.8563   23.5996 C   0  0  0  0  0  0  0  0  0  0  0  0
   19.1828   17.9447   23.1414 H   0  0  0  0  0  0  0  0  0  0  0  0
   20.0889   17.0040   24.2864 H   0  0  0  0  0  0  0  0  0  0  0  0
   20.4772   19.1064   24.4586 C   0  0  0  0  0  0  0  0  0  0  0  0
   21.4536   18.9590   24.9421 H   0  0  0  0  0  0  0  0  0  0  0  0
   20.5156   20.4666   23.7162 C   0  0  0  0  0  0  0  0  0  0  0  0
   20.4571   21.2612   24.4715 H   0  0  0  0  0  0  0  0  0  0  0  0
   21.4965   20.6122   23.2520 H   0  0  0  0  0  0  0  0  0  0  0  0
   19.3861   20.7031   22.6772 C   0  0  0  0  0  0  0  0  0  0  0  0
   19.0511   21.7438   22.7834 H   0  0  0  0  0  0  0  0  0  0  0  0
   18.5028   20.0937   22.9085 H   0  0  0  0  0  0  0  0  0  0  0  0
   19.8148   20.5115   21.1989 C   0  0  0  0  0  0  0  0  0  0  0  0
   18.9960   20.8778   20.5647 H   0  0  0  0  0  0  0  0  0  0  0  0
   20.6704   21.1649   20.9804 H   0  0  0  0  0  0  0  0  0  0  0  0
   19.4753   19.1810   25.4666 O   0  0  0  0  0  0  0  0  0  0  0  0
   19.6844   19.9650   26.0151 H   0  0  0  0  0  0  0  0  0  0  0  0
  1  2  1  0  0  0  0
  1  3  1  0  0  0  0
  1  4  1  0  0  0  0
  4  5  1  0  0  0  0
  4  6  1  0  0  0  0
  4  7  1  0  0  0  0
  7  8  1  0  0  0  0
  7  9  1  0  0  0  0
  7 10  1  0  0  0  0
 10 11  1  0  0  0  0
 10 12  1  0  0  0  0
 10 13  1  0  0  0  0
 13 14  1  0  0  0  0
 13 15  1  0  0  0  0
 15 16  1  0  0  0  0
 15 17  1  0  0  0  0
 15 18  1  0  0  0  0
 18 19  1  0  0  0  0
 18 20  1  0  0  0  0
  1 21  1  0  0  0  0
 18 21  1  0  0  0  0
 21 22  1  0  0  0  0
 21 23  1  0  0  0  0
 13 24  1  0  0  0  0
 24 25  1  0  0  0  0
M  END
> <VM2 Rank>
22

> <Conf_Id>
1156

> <Probability>
1.87

> <Sum Probability>
67.18

> <Delta G>
0.538

> <G>
62.614

> <E>
29.895

> <-TS>
32.719

> <U+W>
9.327

> <U>
11.545

> <W>
-2.217

> <W(PB)>
-4.341

> <W(SA)>
2.124

> <Valence>
16.814

> <Coulomb>
-7.999

> <VdW>
2.729

> <VdW6>
-12.749

> <VdW12>
15.478

> <Bond>
0.438

> <Angle>
5.318

> <Pdih>
11.058

> <Idih>
0.000

> <Tether>
0.000

$$$$
VeraChem MOL file


 25 25  0  0  0  0  0  0  0  0999 V2000     
   20.7639   19.2464   20.7978 C   0  0  0  0  0  0  0  0  0  0  0  0
   20.7161   19.0768   19.7135 H   0  0  0  0  0  0  0  0  0  0  0  0
   21.8241   19.4332   21.0117 H   0  0  0  0  0  0  0  0  0  0  0  0
   20.2716   17.9516   21.4945 C   0  0  0  0  0  0  0  0  0  0  0  0
   19.2065   18.0281   21.7410 H   0  0  0  0  0  0  0  0  0  0  0  0
   20.3284   17.1284   20.7693 H   0  0  0  0  0  0  0  0  0  0  0  0
   21.0870   17.5217   22.7401 C   0  0  0  0  0  0  0  0  0  0  0  0
   22.0221   17.0647   22.3890 H   0  0  0  0  0  0  0  0  0  0  0  0
   20.5434   16.7219   23.2608 H   0  0  0  0  0  0  0  0  0  0  0  0
   21.4638   18.6356   23.7535 C   0  0  0  0  0  0  0  0  0  0  0  0
   22.1090   18.1827   24.5172 H   0  0  0  0  0  0  0  0  0  0  0  0
   22.1022   19.3812   23.2678 H   0  0  0  0  0  0  0  0  0  0  0  0
   20.3025   19.3469   24.4922 C   0  0  0  0  0  0  0  0  0  0  0  0
   20.7675   20.0454   25.2028 H   0  0  0  0  0  0  0  0  0  0  0  0
   19.3268   20.1769   23.6232 C   0  0  0  0  0  0  0  0  0  0  0  0
   18.5625   19.5315   23.1767 H   0  0  0  0  0  0  0  0  0  0  0  0
   18.7721   20.8290   24.3102 H   0  0  0  0  0  0  0  0  0  0  0  0
   19.9857   21.0727   22.5399 C   0  0  0  0  0  0  0  0  0  0  0  0
   21.0205   21.3226   22.8068 H   0  0  0  0  0  0  0  0  0  0  0  0
   19.4513   22.0325   22.5354 H   0  0  0  0  0  0  0  0  0  0  0  0
   19.9119   20.5073   21.0975 C   0  0  0  0  0  0  0  0  0  0  0  0
   18.8632   20.3074   20.8385 H   0  0  0  0  0  0  0  0  0  0  0  0
   20.2379   21.3008   20.4113 H   0  0  0  0  0  0  0  0  0  0  0  0
   19.5508   18.3840   25.2211 O   0  0  0  0  0  0  0  0  0  0  0  0
   20.1967   17.8504   25.7277 H   0  0  0  0  0  0  0  0  0  0  0  0
  1  2  1  0  0  0  0
  1  3  1  0  0  0  0
  1  4  1  0  0  0  0
  4  5  1  0  0  0  0
  4  6  1  0  0  0  0
  4  7  1  0  0  0  0
  7  8  1  0  0  0  0
  7  9  1  0  0  0  0
  7 10  1  0  0  0  0
 10 11  1  0  0  0  0
 10 12  1  0  0  0  0
 10 13  1  0  0  0  0
 13 14  1  0  0  0  0
 13 15  1  0  0  0  0
 15 16  1  0  0  0  0
 15 17  1  0  0  0  0
 15 18  1  0  0  0  0
 18 19  1  0  0  0  0
 18 20  1  0  0  0  0
  1 21  1  0  0  0  0
 18 21  1  0  0  0  0
 21 22  1  0  0  0  0
 21 23  1  0  0  0  0
 13 24  1  0  0  0  0
 24 25  1  0  0  0  0
M  END
> <VM2 Rank>
23

> <Conf_Id>
696

> <Probability>
1.59

> <Sum Probability>
68.77

> <Delta G>
0.635

> <G>
62.710

> <E>
30.025

> <-TS>
32.685

> <U+W>
9.457

> <U>
11.668

> <W>
-2.211

> <W(PB)>
-4.346

> <W(SA)>
2.135

> <Valence>
16.811

> <Coulomb>
-7.706

> <VdW>
2.563

> <VdW6>
-12.922

> <VdW12>
15.484

> <Bond>
0.437

> <Angle>
5.466

> <Pdih>
10.908

> <Idih>
0.000

> <Tether>
0.000

$$$$
VeraChem MOL file


 25 25  0  0  0  0  0  0  0  0999 V2000     
   20.6597   19.5003   20.7976 C   0  0  0  0  0  0  0  0  0  0  0  0
   20.5083   19.5805   19.7124 H   0  0  0  0  0  0  0  0  0  0  0  0
   21.5356   20.1262   21.0112 H   0  0  0  0  0  0  0  0  0  0  0  0
   20.9604   18.0101   21.1045 C   0  0  0  0  0  0  0  0  0  0  0  0
   20.0833   17.4014   20.8456 H   0  0  0  0  0  0  0  0  0  0  0  0
   21.7567   17.6832   20.4219 H   0  0  0  0  0  0  0  0  0  0  0  0
   21.4111   17.6725   22.5496 C   0  0  0  0  0  0  0  0  0  0  0  0
   22.3142   18.2362   22.8167 H   0  0  0  0  0  0  0  0  0  0  0  0
   21.7208   16.6184   22.5506 H   0  0  0  0  0  0  0  0  0  0  0  0
   20.3074   17.8354   23.6292 C   0  0  0  0  0  0  0  0  0  0  0  0
   19.3126   17.7411   23.1802 H   0  0  0  0  0  0  0  0  0  0  0  0
   20.3814   16.9856   24.3200 H   0  0  0  0  0  0  0  0  0  0  0  0
   20.3972   19.1168   24.4929 C   0  0  0  0  0  0  0  0  0  0  0  0
   21.2193   18.9616   25.2065 H   0  0  0  0  0  0  0  0  0  0  0  0
   20.7064   20.4403   23.7494 C   0  0  0  0  0  0  0  0  0  0  0  0
   20.8338   21.2212   24.5101 H   0  0  0  0  0  0  0  0  0  0  0  0
   21.6871   20.3706   23.2668 H   0  0  0  0  0  0  0  0  0  0  0  0
   19.6509   20.9483   22.7308 C   0  0  0  0  0  0  0  0  0  0  0  0
   19.9817   21.9339   22.3764 H   0  0  0  0  0  0  0  0  0  0  0  0
   18.6980   21.1237   23.2481 H   0  0  0  0  0  0  0  0  0  0  0  0
   19.3893   20.0602   21.4882 C   0  0  0  0  0  0  0  0  0  0  0  0
   18.6963   19.2482   21.7363 H   0  0  0  0  0  0  0  0  0  0  0  0
   18.8443   20.6748   20.7588 H   0  0  0  0  0  0  0  0  0  0  0  0
   19.1816   19.2591   25.2178 O   0  0  0  0  0  0  0  0  0  0  0  0
   19.2526   20.0959   25.7210 H   0  0  0  0  0  0  0  0  0  0  0  0
  1  2  1  0  0  0  0
  1  3  1  0  0  0  0
  1  4  1  0  0  0  0
  4  5  1  0  0  0  0
  4  6  1  0  0  0  0
  4  7  1  0  0  0  0
  7  8  1  0  0  0  0
  7  9  1  0  0  0  0
  7 10  1  0  0  0  0
 10 11  1  0  0  0  0
 10 12  1  0  0  0  0
 10 13  1  0  0  0  0
 13 14  1  0  0  0  0
 13 15  1  0  0  0  0
 15 16  1  0  0  0  0
 15 17  1  0  0  0  0
 15 18  1  0  0  0  0
 18 19  1  0  0  0  0
 18 20  1  0  0  0  0
  1 21  1  0  0  0  0
 18 21  1  0  0  0  0
 21 22  1  0  0  0  0
 21 23  1  0  0  0  0
 13 24  1  0  0  0  0
 24 25  1  0  0  0  0
M  END
> <VM2 Rank>
24

> <Conf_Id>
1700

> <Probability>
1.56

> <Sum Probability>
70.33

> <Delta G>
0.648

> <G>
62.723

> <E>
30.035

> <-TS>
32.688

> <U+W>
9.467

> <U>
11.668

> <W>
-2.201

> <W(PB)>
-4.334

> <W(SA)>
2.133

> <Valence>
16.811

> <Coulomb>
-7.706

> <VdW>
2.563

> <VdW6>
-12.922

> <VdW12>
15.484

> <Bond>
0.437

> <Angle>
5.466

> <Pdih>
10.908

> <Idih>
0.000

> <Tether>
0.000

$$$$
VeraChem MOL file


 25 25  0  0  0  0  0  0  0  0999 V2000     
   20.1522   19.0654   20.7477 C   0  0  0  0  0  0  0  0  0  0  0  0
   19.2962   18.3986   20.9126 H   0  0  0  0  0  0  0  0  0  0  0  0
   20.2895   19.0910   19.6580 H   0  0  0  0  0  0  0  0  0  0  0  0
   21.4467   18.4785   21.3673 C   0  0  0  0  0  0  0  0  0  0  0  0
   21.9924   17.9438   20.5778 H   0  0  0  0  0  0  0  0  0  0  0  0
   22.1255   19.2828   21.6729 H   0  0  0  0  0  0  0  0  0  0  0  0
   21.2267   17.4769   22.5294 C   0  0  0  0  0  0  0  0  0  0  0  0
   22.1895   17.2863   23.0227 H   0  0  0  0  0  0  0  0  0  0  0  0
   20.9226   16.5165   22.0911 H   0  0  0  0  0  0  0  0  0  0  0  0
   20.1685   17.8556   23.5976 C   0  0  0  0  0  0  0  0  0  0  0  0
   19.1792   17.9487   23.1364 H   0  0  0  0  0  0  0  0  0  0  0  0
   20.0814   16.9991   24.2786 H   0  0  0  0  0  0  0  0  0  0  0  0
   20.4776   19.1054   24.4562 C   0  0  0  0  0  0  0  0  0  0  0  0
   21.4590   18.9612   24.9304 H   0  0  0  0  0  0  0  0  0  0  0  0
   20.5073   20.4677   23.7173 C   0  0  0  0  0  0  0  0  0  0  0  0
   20.4326   21.2535   24.4808 H   0  0  0  0  0  0  0  0  0  0  0  0
   21.4902   20.6274   23.2621 H   0  0  0  0  0  0  0  0  0  0  0  0
   19.3819   20.7013   22.6730 C   0  0  0  0  0  0  0  0  0  0  0  0
   19.0450   21.7415   22.7786 H   0  0  0  0  0  0  0  0  0  0  0  0
   18.4986   20.0913   22.9019 H   0  0  0  0  0  0  0  0  0  0  0  0
   19.8164   20.5117   21.1962 C   0  0  0  0  0  0  0  0  0  0  0  0
   20.6717   21.1669   20.9818 H   0  0  0  0  0  0  0  0  0  0  0  0
   18.9995   20.8771   20.5591 H   0  0  0  0  0  0  0  0  0  0  0  0
   19.4866   19.1804   25.4752 O   0  0  0  0  0  0  0  0  0  0  0  0
   19.5251   18.3360   25.9700 H   0  0  0  0  0  0  0  0  0  0  0  0
  1  2  1  0  0  0  0
  1  3  1  0  0  0  0
  1  4  1  0  0  0  0
  4  5  1  0  0  0  0
  4  6  1  0  0  0  0
  4  7  1  0  0  0  0
  7  8  1  0  0  0  0
  7  9  1  0  0  0  0
  7 10  1  0  0  0  0
 10 11  1  0  0  0  0
 10 12  1  0  0  0  0
 10 13  1  0  0  0  0
 13 14  1  0  0  0  0
 13 15  1  0  0  0  0
 15 16  1  0  0  0  0
 15 17  1  0  0  0  0
 15 18  1  0  0  0  0
 18 19  1  0  0  0  0
 18 20  1  0  0  0  0
  1 21  1  0  0  0  0
 18 21  1  0  0  0  0
 21 22  1  0  0  0  0
 21 23  1  0  0  0  0
 13 24  1  0  0  0  0
 24 25  1  0  0  0  0
M  END
> <VM2 Rank>
25

> <Conf_Id>
1886

> <Probability>
1.52

> <Sum Probability>
71.85

> <Delta G>
0.661

> <G>
62.736

> <E>
29.993

> <-TS>
32.743

> <U+W>
9.425

> <U>
11.687

> <W>
-2.262

> <W(PB)>
-4.388

> <W(SA)>
2.126

> <Valence>
16.789

> <Coulomb>
-7.836

> <VdW>
2.734

> <VdW6>
-12.729

> <VdW12>
15.463

> <Bond>
0.436

> <Angle>
5.314

> <Pdih>
11.039

> <Idih>
0.000

> <Tether>
0.000

$$$$
VeraChem MOL file


 25 25  0  0  0  0  0  0  0  0999 V2000     
   20.0789   19.1699   20.7496 C   0  0  0  0  0  0  0  0  0  0  0  0
   19.0095   18.9963   20.9253 H   0  0  0  0  0  0  0  0  0  0  0  0
   20.1820   19.2409   19.6582 H   0  0  0  0  0  0  0  0  0  0  0  0
   20.9162   17.9464   21.2053 C   0  0  0  0  0  0  0  0  0  0  0  0
   21.9761   18.1268   20.9801 H   0  0  0  0  0  0  0  0  0  0  0  0
   20.6245   17.0914   20.5802 H   0  0  0  0  0  0  0  0  0  0  0  0
   20.7723   17.5154   22.6883 C   0  0  0  0  0  0  0  0  0  0  0  0
   21.3080   16.5630   22.8003 H   0  0  0  0  0  0  0  0  0  0  0  0
   19.7266   17.2840   22.9283 H   0  0  0  0  0  0  0  0  0  0  0  0
   21.3735   18.5120   23.7165 C   0  0  0  0  0  0  0  0  0  0  0  0
   21.9058   17.9322   24.4823 H   0  0  0  0  0  0  0  0  0  0  0  0
   22.1544   19.1198   23.2479 H   0  0  0  0  0  0  0  0  0  0  0  0
   20.3593   19.4236   24.4534 C   0  0  0  0  0  0  0  0  0  0  0  0
   20.9238   20.2472   24.9137 H   0  0  0  0  0  0  0  0  0  0  0  0
   19.2250   20.0357   23.5969 C   0  0  0  0  0  0  0  0  0  0  0  0
   18.6178   19.2412   23.1497 H   0  0  0  0  0  0  0  0  0  0  0  0
   18.5427   20.5611   24.2776 H   0  0  0  0  0  0  0  0  0  0  0  0
   19.6569   21.0575   22.5136 C   0  0  0  0  0  0  0  0  0  0  0  0
   20.1747   21.8992   22.9932 H   0  0  0  0  0  0  0  0  0  0  0  0
   18.7418   21.4815   22.0779 H   0  0  0  0  0  0  0  0  0  0  0  0
   20.5321   20.5256   21.3503 C   0  0  0  0  0  0  0  0  0  0  0  0
   21.5858   20.4811   21.6478 H   0  0  0  0  0  0  0  0  0  0  0  0
   20.5037   21.2803   20.5524 H   0  0  0  0  0  0  0  0  0  0  0  0
   19.7498   18.6569   25.4861 O   0  0  0  0  0  0  0  0  0  0  0  0
   19.1600   19.2641   25.9788 H   0  0  0  0  0  0  0  0  0  0  0  0
  1  2  1  0  0  0  0
  1  3  1  0  0  0  0
  1  4  1  0  0  0  0
  4  5  1  0  0  0  0
  4  6  1  0  0  0  0
  4  7  1  0  0  0  0
  7  8  1  0  0  0  0
  7  9  1  0  0  0  0
  7 10  1  0  0  0  0
 10 11  1  0  0  0  0
 10 12  1  0  0  0  0
 10 13  1  0  0  0  0
 13 14  1  0  0  0  0
 13 15  1  0  0  0  0
 15 16  1  0  0  0  0
 15 17  1  0  0  0  0
 15 18  1  0  0  0  0
 18 19  1  0  0  0  0
 18 20  1  0  0  0  0
  1 21  1  0  0  0  0
 18 21  1  0  0  0  0
 21 22  1  0  0  0  0
 21 23  1  0  0  0  0
 13 24  1  0  0  0  0
 24 25  1  0  0  0  0
M  END
> <VM2 Rank>
26

> <Conf_Id>
1008

> <Probability>
1.44

> <Sum Probability>
73.29

> <Delta G>
0.696

> <G>
62.771

> <E>
30.029

> <-TS>
32.742

> <U+W>
9.461

> <U>
11.687

> <W>
-2.226

> <W(PB)>
-4.373

> <W(SA)>
2.147

> <Valence>
16.789

> <Coulomb>
-7.836

> <VdW>
2.734

> <VdW6>
-12.729

> <VdW12>
15.463

> <Bond>
0.436

> <Angle>
5.314

> <Pdih>
11.039

> <Idih>
0.000

> <Tether>
0.000

$$$$
VeraChem MOL file


 25 25  0  0  0  0  0  0  0  0999 V2000     
   21.0555   19.5130   21.0070 C   0  0  0  0  0  0  0  0  0  0  0  0
   21.3653   19.7416   19.9780 H   0  0  0  0  0  0  0  0  0  0  0  0
   21.8452   19.9315   21.6447 H   0  0  0  0  0  0  0  0  0  0  0  0
   21.0115   17.9715   21.1414 C   0  0  0  0  0  0  0  0  0  0  0  0
   20.0886   17.5817   20.6907 H   0  0  0  0  0  0  0  0  0  0  0  0
   21.8311   17.5545   20.5403 H   0  0  0  0  0  0  0  0  0  0  0  0
   21.1678   17.4246   22.5806 C   0  0  0  0  0  0  0  0  0  0  0  0
   22.1626   17.6758   22.9732 H   0  0  0  0  0  0  0  0  0  0  0  0
   21.1400   16.3278   22.5229 H   0  0  0  0  0  0  0  0  0  0  0  0
   20.0729   17.8831   23.5729 C   0  0  0  0  0  0  0  0  0  0  0  0
   19.0952   17.8744   23.0753 H   0  0  0  0  0  0  0  0  0  0  0  0
   19.9989   17.1236   24.3628 H   0  0  0  0  0  0  0  0  0  0  0  0
   20.3575   19.2636   24.2219 C   0  0  0  0  0  0  0  0  0  0  0  0
   21.3588   19.6116   23.9324 H   0  0  0  0  0  0  0  0  0  0  0  0
   19.3319   20.3526   23.8349 C   0  0  0  0  0  0  0  0  0  0  0  0
   18.3245   19.9193   23.7901 H   0  0  0  0  0  0  0  0  0  0  0  0
   19.2975   21.1006   24.6384 H   0  0  0  0  0  0  0  0  0  0  0  0
   19.6441   21.1033   22.5167 C   0  0  0  0  0  0  0  0  0  0  0  0
   20.5823   21.6656   22.6190 H   0  0  0  0  0  0  0  0  0  0  0  0
   18.8604   21.8598   22.3743 H   0  0  0  0  0  0  0  0  0  0  0  0
   19.6936   20.2188   21.2478 C   0  0  0  0  0  0  0  0  0  0  0  0
   19.5056   20.8733   20.3856 H   0  0  0  0  0  0  0  0  0  0  0  0
   18.8636   19.5000   21.2508 H   0  0  0  0  0  0  0  0  0  0  0  0
   20.3292   19.1127   25.6368 O   0  0  0  0  0  0  0  0  0  0  0  0
   21.0271   18.4626   25.8627 H   0  0  0  0  0  0  0  0  0  0  0  0
  1  2  1  0  0  0  0
  1  3  1  0  0  0  0
  1  4  1  0  0  0  0
  4  5  1  0  0  0  0
  4  6  1  0  0  0  0
  4  7  1  0  0  0  0
  7  8  1  0  0  0  0
  7  9  1  0  0  0  0
  7 10  1  0  0  0  0
 10 11  1  0  0  0  0
 10 12  1  0  0  0  0
 10 13  1  0  0  0  0
 13 14  1  0  0  0  0
 13 15  1  0  0  0  0
 15 16  1  0  0  0  0
 15 17  1  0  0  0  0
 15 18  1  0  0  0  0
 18 19  1  0  0  0  0
 18 20  1  0  0  0  0
  1 21  1  0  0  0  0
 18 21  1  0  0  0  0
 21 22  1  0  0  0  0
 21 23  1  0  0  0  0
 13 24  1  0  0  0  0
 24 25  1  0  0  0  0
M  END
> <VM2 Rank>
27

> <Conf_Id>
267

> <Probability>
1.42

> <Sum Probability>
74.71

> <Delta G>
0.703

> <G>
62.778

> <E>
30.568

> <-TS>
32.210

> <U+W>
10.001

> <U>
12.140

> <W>
-2.139

> <W(PB)>
-4.284

> <W(SA)>
2.144

> <Valence>
18.247

> <Coulomb>
-8.720

> <VdW>
2.612

> <VdW6>
-11.959

> <VdW12>
14.571

> <Bond>
0.338

> <Angle>
3.151

> <Pdih>
14.759

> <Idih>
0.000

> <Tether>
0.000

$$$$
VeraChem MOL file


 25 25  0  0  0  0  0  0  0  0999 V2000     
   21.2760   19.6161   21.1378 C   0  0  0  0  0  0  0  0  0  0  0  0
   21.8557   19.8596   20.2371 H   0  0  0  0  0  0  0  0  0  0  0  0
   21.9311   19.8947   21.9709 H   0  0  0  0  0  0  0  0  0  0  0  0
   21.0337   18.0860   21.1289 C   0  0  0  0  0  0  0  0  0  0  0  0
   20.4647   17.8140   20.2296 H   0  0  0  0  0  0  0  0  0  0  0  0
   22.0123   17.5988   21.0197 H   0  0  0  0  0  0  0  0  0  0  0  0
   20.3357   17.4737   22.3701 C   0  0  0  0  0  0  0  0  0  0  0  0
   20.5097   16.3894   22.3375 H   0  0  0  0  0  0  0  0  0  0  0  0
   19.2477   17.5790   22.2910 H   0  0  0  0  0  0  0  0  0  0  0  0
   20.8357   18.0038   23.7404 C   0  0  0  0  0  0  0  0  0  0  0  0
   20.9009   17.1427   24.4191 H   0  0  0  0  0  0  0  0  0  0  0  0
   21.8593   18.3895   23.6624 H   0  0  0  0  0  0  0  0  0  0  0  0
   19.9058   19.0426   24.4162 C   0  0  0  0  0  0  0  0  0  0  0  0
   18.8944   18.6149   24.4671 H   0  0  0  0  0  0  0  0  0  0  0  0
   19.8090   20.4313   23.7359 C   0  0  0  0  0  0  0  0  0  0  0  0
   19.2357   21.0800   24.4118 H   0  0  0  0  0  0  0  0  0  0  0  0
   20.7989   20.8969   23.6577 H   0  0  0  0  0  0  0  0  0  0  0  0
   19.0822   20.4375   22.3646 C   0  0  0  0  0  0  0  0  0  0  0  0
   18.4255   21.3175   22.3284 H   0  0  0  0  0  0  0  0  0  0  0  0
   18.4000   19.5832   22.2873 H   0  0  0  0  0  0  0  0  0  0  0  0
   20.0094   20.5079   21.1244 C   0  0  0  0  0  0  0  0  0  0  0  0
   20.3416   21.5490   21.0123 H   0  0  0  0  0  0  0  0  0  0  0  0
   19.4191   20.2863   20.2250 H   0  0  0  0  0  0  0  0  0  0  0  0
   20.3766   19.2442   25.7417 O   0  0  0  0  0  0  0  0  0  0  0  0
   21.2754   19.6242   25.6607 H   0  0  0  0  0  0  0  0  0  0  0  0
  1  2  1  0  0  0  0
  1  3  1  0  0  0  0
  1  4  1  0  0  0  0
  4  5  1  0  0  0  0
  4  6  1  0  0  0  0
  4  7  1  0  0  0  0
  7  8  1  0  0  0  0
  7  9  1  0  0  0  0
  7 10  1  0  0  0  0
 10 11  1  0  0  0  0
 10 12  1  0  0  0  0
 10 13  1  0  0  0  0
 13 14  1  0  0  0  0
 13 15  1  0  0  0  0
 15 16  1  0  0  0  0
 15 17  1  0  0  0  0
 15 18  1  0  0  0  0
 18 19  1  0  0  0  0
 18 20  1  0  0  0  0
  1 21  1  0  0  0  0
 18 21  1  0  0  0  0
 21 22  1  0  0  0  0
 21 23  1  0  0  0  0
 13 24  1  0  0  0  0
 24 25  1  0  0  0  0
M  END
> <VM2 Rank>
28

> <Conf_Id>
328

> <Probability>
1.36

> <Sum Probability>
76.07

> <Delta G>
0.728

> <G>
62.804

> <E>
30.161

> <-TS>
32.642

> <U+W>
9.594

> <U>
11.413

> <W>
-1.819

> <W(PB)>
-3.929

> <W(SA)>
2.110

> <Valence>
17.496

> <Coulomb>
-8.736

> <VdW>
2.653

> <VdW6>
-12.485

> <VdW12>
15.138

> <Bond>
0.414

> <Angle>
5.295

> <Pdih>
11.787

> <Idih>
0.000

> <Tether>
0.000

$$$$
VeraChem MOL file


 25 25  0  0  0  0  0  0  0  0999 V2000     
   19.7064   18.9908   20.9358 C   0  0  0  0  0  0  0  0  0  0  0  0
   18.8758   18.6777   21.5787 H   0  0  0  0  0  0  0  0  0  0  0  0
   19.3309   18.8536   19.9126 H   0  0  0  0  0  0  0  0  0  0  0  0
   20.9156   18.0390   21.1135 C   0  0  0  0  0  0  0  0  0  0  0  0
   20.5826   17.0292   20.8373 H   0  0  0  0  0  0  0  0  0  0  0  0
   21.6955   18.3036   20.3867 H   0  0  0  0  0  0  0  0  0  0  0  0
   21.5501   17.9589   22.5255 C   0  0  0  0  0  0  0  0  0  0  0  0
   22.2584   18.7815   22.6762 H   0  0  0  0  0  0  0  0  0  0  0  0
   22.1718   17.0534   22.5499 H   0  0  0  0  0  0  0  0  0  0  0  0
   20.5411   17.8863   23.7028 C   0  0  0  0  0  0  0  0  0  0  0  0
   19.5753   17.4861   23.3706 H   0  0  0  0  0  0  0  0  0  0  0  0
   20.9294   17.1488   24.4174 H   0  0  0  0  0  0  0  0  0  0  0  0
   20.3416   19.2155   24.4741 C   0  0  0  0  0  0  0  0  0  0  0  0
   21.3297   19.5869   24.7820 H   0  0  0  0  0  0  0  0  0  0  0  0
   19.6166   20.3522   23.7112 C   0  0  0  0  0  0  0  0  0  0  0  0
   18.6240   20.0221   23.3818 H   0  0  0  0  0  0  0  0  0  0  0  0
   19.4274   21.1543   24.4369 H   0  0  0  0  0  0  0  0  0  0  0  0
   20.4206   20.9708   22.5362 C   0  0  0  0  0  0  0  0  0  0  0  0
   21.4957   20.8184   22.6841 H   0  0  0  0  0  0  0  0  0  0  0  0
   20.2909   22.0612   22.5687 H   0  0  0  0  0  0  0  0  0  0  0  0
   19.9935   20.5016   21.1219 C   0  0  0  0  0  0  0  0  0  0  0  0
   20.7546   20.8186   20.3961 H   0  0  0  0  0  0  0  0  0  0  0  0
   19.0788   21.0459   20.8499 H   0  0  0  0  0  0  0  0  0  0  0  0
   19.5785   18.9279   25.6391 O   0  0  0  0  0  0  0  0  0  0  0  0
   20.0802   18.2573   26.1479 H   0  0  0  0  0  0  0  0  0  0  0  0
  1  2  1  0  0  0  0
  1  3  1  0  0  0  0
  1  4  1  0  0  0  0
  4  5  1  0  0  0  0
  4  6  1  0  0  0  0
  4  7  1  0  0  0  0
  7  8  1  0  0  0  0
  7  9  1  0  0  0  0
  7 10  1  0  0  0  0
 10 11  1  0  0  0  0
 10 12  1  0  0  0  0
 10 13  1  0  0  0  0
 13 14  1  0  0  0  0
 13 15  1  0  0  0  0
 15 16  1  0  0  0  0
 15 17  1  0  0  0  0
 15 18  1  0  0  0  0
 18 19  1  0  0  0  0
 18 20  1  0  0  0  0
  1 21  1  0  0  0  0
 18 21  1  0  0  0  0
 21 22  1  0  0  0  0
 21 23  1  0  0  0  0
 13 24  1  0  0  0  0
 24 25  1  0  0  0  0
M  END
> <VM2 Rank>
29

> <Conf_Id>
87

> <Probability>
1.25

> <Sum Probability>
77.33

> <Delta G>
0.777

> <G>
62.852

> <E>
30.198

> <-TS>
32.654

> <U+W>
9.630

> <U>
11.876

> <W>
-2.246

> <W(PB)>
-4.376

> <W(SA)>
2.130

> <Valence>
17.153

> <Coulomb>
-7.966

> <VdW>
2.689

> <VdW6>
-12.458

> <VdW12>
15.147

> <Bond>
0.421

> <Angle>
5.257

> <Pdih>
11.475

> <Idih>
0.000

> <Tether>
0.000

$$$$
VeraChem MOL file


 25 25  0  0  0  0  0  0  0  0999 V2000     
   21.0733   19.5153   21.0148 C   0  0  0  0  0  0  0  0  0  0  0  0
   21.4650   19.5684   19.9896 H   0  0  0  0  0  0  0  0  0  0  0  0
   21.9245   19.7667   21.6611 H   0  0  0  0  0  0  0  0  0  0  0  0
   20.5888   18.0590   21.2501 C   0  0  0  0  0  0  0  0  0  0  0  0
   19.4927   17.9941   21.2421 H   0  0  0  0  0  0  0  0  0  0  0  0
   20.9197   17.4596   20.3908 H   0  0  0  0  0  0  0  0  0  0  0  0
   21.1583   17.3907   22.5244 C   0  0  0  0  0  0  0  0  0  0  0  0
   22.2214   17.6431   22.6374 H   0  0  0  0  0  0  0  0  0  0  0  0
   21.1268   16.3019   22.3811 H   0  0  0  0  0  0  0  0  0  0  0  0
   20.3975   17.7095   23.8352 C   0  0  0  0  0  0  0  0  0  0  0  0
   19.3743   17.3163   23.7800 H   0  0  0  0  0  0  0  0  0  0  0  0
   20.8872   17.1495   24.6433 H   0  0  0  0  0  0  0  0  0  0  0  0
   20.3675   19.2050   24.2227 C   0  0  0  0  0  0  0  0  0  0  0  0
   21.3302   19.6551   23.9429 H   0  0  0  0  0  0  0  0  0  0  0  0
   19.2065   19.9949   23.5624 C   0  0  0  0  0  0  0  0  0  0  0  0
   18.5054   19.3187   23.0576 H   0  0  0  0  0  0  0  0  0  0  0  0
   18.6154   20.4866   24.3468 H   0  0  0  0  0  0  0  0  0  0  0  0
   19.6800   21.0880   22.5754 C   0  0  0  0  0  0  0  0  0  0  0  0
   20.5636   21.6026   22.9769 H   0  0  0  0  0  0  0  0  0  0  0  0
   18.8949   21.8538   22.5102 H   0  0  0  0  0  0  0  0  0  0  0  0
   19.9642   20.5881   21.1387 C   0  0  0  0  0  0  0  0  0  0  0  0
   19.0360   20.2229   20.6786 H   0  0  0  0  0  0  0  0  0  0  0  0
   20.2658   21.4592   20.5409 H   0  0  0  0  0  0  0  0  0  0  0  0
   20.2279   19.2925   25.6363 O   0  0  0  0  0  0  0  0  0  0  0  0
   20.2713   20.2451   25.8631 H   0  0  0  0  0  0  0  0  0  0  0  0
  1  2  1  0  0  0  0
  1  3  1  0  0  0  0
  1  4  1  0  0  0  0
  4  5  1  0  0  0  0
  4  6  1  0  0  0  0
  4  7  1  0  0  0  0
  7  8  1  0  0  0  0
  7  9  1  0  0  0  0
  7 10  1  0  0  0  0
 10 11  1  0  0  0  0
 10 12  1  0  0  0  0
 10 13  1  0  0  0  0
 13 14  1  0  0  0  0
 13 15  1  0  0  0  0
 15 16  1  0  0  0  0
 15 17  1  0  0  0  0
 15 18  1  0  0  0  0
 18 19  1  0  0  0  0
 18 20  1  0  0  0  0
  1 21  1  0  0  0  0
 18 21  1  0  0  0  0
 21 22  1  0  0  0  0
 21 23  1  0  0  0  0
 13 24  1  0  0  0  0
 24 25  1  0  0  0  0
M  END
> <VM2 Rank>
30

> <Conf_Id>
1545

> <Probability>
1.25

> <Sum Probability>
78.58

> <Delta G>
0.779

> <G>
62.855

> <E>
30.645

> <-TS>
32.210

> <U+W>
10.077

> <U>
12.140

> <W>
-2.063

> <W(PB)>
-4.217

> <W(SA)>
2.155

> <Valence>
18.247

> <Coulomb>
-8.720

> <VdW>
2.612

> <VdW6>
-11.959

> <VdW12>
14.571

> <Bond>
0.338

> <Angle>
3.151

> <Pdih>
14.759

> <Idih>
0.000

> <Tether>
0.000

$$$$
VeraChem MOL file


 25 25  0  0  0  0  0  0  0  0999 V2000     
   21.0535   19.5120   21.0024 C   0  0  0  0  0  0  0  0  0  0  0  0
   21.3608   19.7380   19.9720 H   0  0  0  0  0  0  0  0  0  0  0  0
   21.8466   19.9285   21.6372 H   0  0  0  0  0  0  0  0  0  0  0  0
   21.0039   17.9712   21.1392 C   0  0  0  0  0  0  0  0  0  0  0  0
   20.0763   17.5838   20.6964 H   0  0  0  0  0  0  0  0  0  0  0  0
   21.8175   17.5502   20.5327 H   0  0  0  0  0  0  0  0  0  0  0  0
   21.1700   17.4269   22.5781 C   0  0  0  0  0  0  0  0  0  0  0  0
   22.1657   17.6824   22.9657 H   0  0  0  0  0  0  0  0  0  0  0  0
   21.1467   16.3300   22.5218 H   0  0  0  0  0  0  0  0  0  0  0  0
   20.0799   17.8803   23.5781 C   0  0  0  0  0  0  0  0  0  0  0  0
   19.0966   17.8599   23.0922 H   0  0  0  0  0  0  0  0  0  0  0  0
   20.0255   17.1245   24.3735 H   0  0  0  0  0  0  0  0  0  0  0  0
   20.3580   19.2630   24.2253 C   0  0  0  0  0  0  0  0  0  0  0  0
   21.3617   19.6080   23.9403 H   0  0  0  0  0  0  0  0  0  0  0  0
   19.3312   20.3496   23.8319 C   0  0  0  0  0  0  0  0  0  0  0  0
   18.3262   19.9115   23.7757 H   0  0  0  0  0  0  0  0  0  0  0  0
   19.2819   21.0992   24.6328 H   0  0  0  0  0  0  0  0  0  0  0  0
   19.6508   21.1033   22.5177 C   0  0  0  0  0  0  0  0  0  0  0  0
   20.5920   21.6599   22.6226 H   0  0  0  0  0  0  0  0  0  0  0  0
   18.8716   21.8647   22.3763 H   0  0  0  0  0  0  0  0  0  0  0  0
   19.6950   20.2224   21.2465 C   0  0  0  0  0  0  0  0  0  0  0  0
   18.8624   19.5066   21.2489 H   0  0  0  0  0  0  0  0  0  0  0  0
   19.5085   20.8800   20.3863 H   0  0  0  0  0  0  0  0  0  0  0  0
   20.3217   19.1144   25.6408 O   0  0  0  0  0  0  0  0  0  0  0  0
   20.5713   19.9817   26.0226 H   0  0  0  0  0  0  0  0  0  0  0  0
  1  2  1  0  0  0  0
  1  3  1  0  0  0  0
  1  4  1  0  0  0  0
  4  5  1  0  0  0  0
  4  6  1  0  0  0  0
  4  7  1  0  0  0  0
  7  8  1  0  0  0  0
  7  9  1  0  0  0  0
  7 10  1  0  0  0  0
 10 11  1  0  0  0  0
 10 12  1  0  0  0  0
 10 13  1  0  0  0  0
 13 14  1  0  0  0  0
 13 15  1  0  0  0  0
 15 16  1  0  0  0  0
 15 17  1  0  0  0  0
 15 18  1  0  0  0  0
 18 19  1  0  0  0  0
 18 20  1  0  0  0  0
  1 21  1  0  0  0  0
 18 21  1  0  0  0  0
 21 22  1  0  0  0  0
 21 23  1  0  0  0  0
 13 24  1  0  0  0  0
 24 25  1  0  0  0  0
M  END
> <VM2 Rank>
31

> <Conf_Id>
1732

> <Probability>
1.20

> <Sum Probability>
79.78

> <Delta G>
0.803

> <G>
62.878

> <E>
30.759

> <-TS>
32.119

> <U+W>
10.192

> <U>
12.424

> <W>
-2.232

> <W(PB)>
-4.375

> <W(SA)>
2.143

> <Valence>
18.277

> <Coulomb>
-8.429

> <VdW>
2.575

> <VdW6>
-11.900

> <VdW12>
14.476

> <Bond>
0.331

> <Angle>
3.180

> <Pdih>
14.767

> <Idih>
0.000

> <Tether>
0.000

$$$$
VeraChem MOL file


 25 25  0  0  0  0  0  0  0  0999 V2000     
   21.0709   19.5142   21.0099 C   0  0  0  0  0  0  0  0  0  0  0  0
   21.4588   19.5672   19.9833 H   0  0  0  0  0  0  0  0  0  0  0  0
   21.9234   19.7691   21.6532 H   0  0  0  0  0  0  0  0  0  0  0  0
   20.5915   18.0573   21.2488 C   0  0  0  0  0  0  0  0  0  0  0  0
   19.4955   17.9888   21.2405 H   0  0  0  0  0  0  0  0  0  0  0  0
   20.9251   17.4565   20.3915 H   0  0  0  0  0  0  0  0  0  0  0  0
   21.1621   17.3950   22.5253 C   0  0  0  0  0  0  0  0  0  0  0  0
   22.2237   17.6531   22.6406 H   0  0  0  0  0  0  0  0  0  0  0  0
   21.1368   16.3058   22.3832 H   0  0  0  0  0  0  0  0  0  0  0  0
   20.3945   17.7111   23.8322 C   0  0  0  0  0  0  0  0  0  0  0  0
   19.3697   17.3235   23.7659 H   0  0  0  0  0  0  0  0  0  0  0  0
   20.8746   17.1395   24.6375 H   0  0  0  0  0  0  0  0  0  0  0  0
   20.3678   19.2058   24.2261 C   0  0  0  0  0  0  0  0  0  0  0  0
   21.3302   19.6592   23.9505 H   0  0  0  0  0  0  0  0  0  0  0  0
   19.2100   20.0022   23.5680 C   0  0  0  0  0  0  0  0  0  0  0  0
   18.4962   19.3308   23.0749 H   0  0  0  0  0  0  0  0  0  0  0  0
   18.6359   20.5053   24.3580 H   0  0  0  0  0  0  0  0  0  0  0  0
   19.6840   21.0882   22.5729 C   0  0  0  0  0  0  0  0  0  0  0  0
   20.5716   21.5999   22.9694 H   0  0  0  0  0  0  0  0  0  0  0  0
   18.9023   21.8575   22.5094 H   0  0  0  0  0  0  0  0  0  0  0  0
   19.9588   20.5831   21.1364 C   0  0  0  0  0  0  0  0  0  0  0  0
   20.2536   21.4526   20.5331 H   0  0  0  0  0  0  0  0  0  0  0  0
   19.0284   20.2134   20.6844 H   0  0  0  0  0  0  0  0  0  0  0  0
   20.2244   19.2862   25.6402 O   0  0  0  0  0  0  0  0  0  0  0  0
   21.0047   18.8391   26.0294 H   0  0  0  0  0  0  0  0  0  0  0  0
  1  2  1  0  0  0  0
  1  3  1  0  0  0  0
  1  4  1  0  0  0  0
  4  5  1  0  0  0  0
  4  6  1  0  0  0  0
  4  7  1  0  0  0  0
  7  8  1  0  0  0  0
  7  9  1  0  0  0  0
  7 10  1  0  0  0  0
 10 11  1  0  0  0  0
 10 12  1  0  0  0  0
 10 13  1  0  0  0  0
 13 14  1  0  0  0  0
 13 15  1  0  0  0  0
 15 16  1  0  0  0  0
 15 17  1  0  0  0  0
 15 18  1  0  0  0  0
 18 19  1  0  0  0  0
 18 20  1  0  0  0  0
  1 21  1  0  0  0  0
 18 21  1  0  0  0  0
 21 22  1  0  0  0  0
 21 23  1  0  0  0  0
 13 24  1  0  0  0  0
 24 25  1  0  0  0  0
M  END
> <VM2 Rank>
32

> <Conf_Id>
228

> <Probability>
1.19

> <Sum Probability>
80.96

> <Delta G>
0.809

> <G>
62.885

> <E>
30.766

> <-TS>
32.119

> <U+W>
10.198

> <U>
12.424

> <W>
-2.225

> <W(PB)>
-4.391

> <W(SA)>
2.165

> <Valence>
18.277

> <Coulomb>
-8.429

> <VdW>
2.575

> <VdW6>
-11.900

> <VdW12>
14.476

> <Bond>
0.331

> <Angle>
3.180

> <Pdih>
14.766

> <Idih>
0.000

> <Tether>
0.000

$$$$
VeraChem MOL file


 25 25  0  0  0  0  0  0  0  0999 V2000     
   19.7066   18.9900   20.9358 C   0  0  0  0  0  0  0  0  0  0  0  0
   18.8765   18.6760   21.5787 H   0  0  0  0  0  0  0  0  0  0  0  0
   19.3311   18.8527   19.9126 H   0  0  0  0  0  0  0  0  0  0  0  0
   20.9167   18.0393   21.1134 C   0  0  0  0  0  0  0  0  0  0  0  0
   20.5847   17.0295   20.8360 H   0  0  0  0  0  0  0  0  0  0  0  0
   21.6969   18.3052   20.3874 H   0  0  0  0  0  0  0  0  0  0  0  0
   21.5502   17.9581   22.5258 C   0  0  0  0  0  0  0  0  0  0  0  0
   22.2605   18.7788   22.6770 H   0  0  0  0  0  0  0  0  0  0  0  0
   22.1695   17.0509   22.5513 H   0  0  0  0  0  0  0  0  0  0  0  0
   20.5405   17.8884   23.7027 C   0  0  0  0  0  0  0  0  0  0  0  0
   19.5747   17.4865   23.3731 H   0  0  0  0  0  0  0  0  0  0  0  0
   20.9269   17.1553   24.4231 H   0  0  0  0  0  0  0  0  0  0  0  0
   20.3411   19.2170   24.4741 C   0  0  0  0  0  0  0  0  0  0  0  0
   21.3304   19.5849   24.7820 H   0  0  0  0  0  0  0  0  0  0  0  0
   19.6158   20.3543   23.7113 C   0  0  0  0  0  0  0  0  0  0  0  0
   18.6242   20.0229   23.3794 H   0  0  0  0  0  0  0  0  0  0  0  0
   19.4251   21.1609   24.4313 H   0  0  0  0  0  0  0  0  0  0  0  0
   20.4211   20.9700   22.5359 C   0  0  0  0  0  0  0  0  0  0  0  0
   21.4959   20.8150   22.6832 H   0  0  0  0  0  0  0  0  0  0  0  0
   20.2943   22.0609   22.5672 H   0  0  0  0  0  0  0  0  0  0  0  0
   19.9924   20.5011   21.1220 C   0  0  0  0  0  0  0  0  0  0  0  0
   20.7523   20.8189   20.3954 H   0  0  0  0  0  0  0  0  0  0  0  0
   19.0769   21.0447   20.8512 H   0  0  0  0  0  0  0  0  0  0  0  0
   19.5797   18.9249   25.6391 O   0  0  0  0  0  0  0  0  0  0  0  0
   19.5179   19.7569   26.1530 H   0  0  0  0  0  0  0  0  0  0  0  0
  1  2  1  0  0  0  0
  1  3  1  0  0  0  0
  1  4  1  0  0  0  0
  4  5  1  0  0  0  0
  4  6  1  0  0  0  0
  4  7  1  0  0  0  0
  7  8  1  0  0  0  0
  7  9  1  0  0  0  0
  7 10  1  0  0  0  0
 10 11  1  0  0  0  0
 10 12  1  0  0  0  0
 10 13  1  0  0  0  0
 13 14  1  0  0  0  0
 13 15  1  0  0  0  0
 15 16  1  0  0  0  0
 15 17  1  0  0  0  0
 15 18  1  0  0  0  0
 18 19  1  0  0  0  0
 18 20  1  0  0  0  0
  1 21  1  0  0  0  0
 18 21  1  0  0  0  0
 21 22  1  0  0  0  0
 21 23  1  0  0  0  0
 13 24  1  0  0  0  0
 24 25  1  0  0  0  0
M  END
> <VM2 Rank>
33

> <Conf_Id>
24

> <Probability>
1.16

> <Sum Probability>
82.12

> <Delta G>
0.824

> <G>
62.899

> <E>
30.245

> <-TS>
32.654

> <U+W>
9.678

> <U>
11.876

> <W>
-2.199

> <W(PB)>
-4.335

> <W(SA)>
2.137

> <Valence>
17.153

> <Coulomb>
-7.966

> <VdW>
2.689

> <VdW6>
-12.458

> <VdW12>
15.147

> <Bond>
0.421

> <Angle>
5.258

> <Pdih>
11.475

> <Idih>
0.000

> <Tether>
0.000

$$$$
VeraChem MOL file


 25 25  0  0  0  0  0  0  0  0999 V2000     
   21.0514   19.5112   20.9993 C   0  0  0  0  0  0  0  0  0  0  0  0
   21.3561   19.7358   19.9678 H   0  0  0  0  0  0  0  0  0  0  0  0
   21.8464   19.9278   21.6318 H   0  0  0  0  0  0  0  0  0  0  0  0
   21.0013   17.9708   21.1385 C   0  0  0  0  0  0  0  0  0  0  0  0
   21.8129   17.5487   20.5300 H   0  0  0  0  0  0  0  0  0  0  0  0
   20.0722   17.5829   20.6993 H   0  0  0  0  0  0  0  0  0  0  0  0
   21.1725   17.4294   22.5777 C   0  0  0  0  0  0  0  0  0  0  0  0
   22.1679   17.6898   22.9629 H   0  0  0  0  0  0  0  0  0  0  0  0
   21.1541   16.3323   22.5225 H   0  0  0  0  0  0  0  0  0  0  0  0
   20.0822   17.8787   23.5793 C   0  0  0  0  0  0  0  0  0  0  0  0
   19.0990   17.8565   23.0928 H   0  0  0  0  0  0  0  0  0  0  0  0
   20.0329   17.1189   24.3710 H   0  0  0  0  0  0  0  0  0  0  0  0
   20.3575   19.2619   24.2270 C   0  0  0  0  0  0  0  0  0  0  0  0
   21.3624   19.6084   23.9485 H   0  0  0  0  0  0  0  0  0  0  0  0
   19.3335   20.3503   23.8322 C   0  0  0  0  0  0  0  0  0  0  0  0
   18.3260   19.9181   23.7761 H   0  0  0  0  0  0  0  0  0  0  0  0
   19.2927   21.1002   24.6339 H   0  0  0  0  0  0  0  0  0  0  0  0
   19.6547   21.1031   22.5181 C   0  0  0  0  0  0  0  0  0  0  0  0
   20.5982   21.6559   22.6230 H   0  0  0  0  0  0  0  0  0  0  0  0
   18.8784   21.8678   22.3779 H   0  0  0  0  0  0  0  0  0  0  0  0
   19.6943   20.2228   21.2465 C   0  0  0  0  0  0  0  0  0  0  0  0
   19.5068   20.8811   20.3870 H   0  0  0  0  0  0  0  0  0  0  0  0
   18.8607   19.5080   21.2503 H   0  0  0  0  0  0  0  0  0  0  0  0
   20.3166   19.1149   25.6414 O   0  0  0  0  0  0  0  0  0  0  0  0
   19.4071   18.8275   25.8633 H   0  0  0  0  0  0  0  0  0  0  0  0
  1  2  1  0  0  0  0
  1  3  1  0  0  0  0
  1  4  1  0  0  0  0
  4  5  1  0  0  0  0
  4  6  1  0  0  0  0
  4  7  1  0  0  0  0
  7  8  1  0  0  0  0
  7  9  1  0  0  0  0
  7 10  1  0  0  0  0
 10 11  1  0  0  0  0
 10 12  1  0  0  0  0
 10 13  1  0  0  0  0
 13 14  1  0  0  0  0
 13 15  1  0  0  0  0
 15 16  1  0  0  0  0
 15 17  1  0  0  0  0
 15 18  1  0  0  0  0
 18 19  1  0  0  0  0
 18 20  1  0  0  0  0
  1 21  1  0  0  0  0
 18 21  1  0  0  0  0
 21 22  1  0  0  0  0
 21 23  1  0  0  0  0
 13 24  1  0  0  0  0
 24 25  1  0  0  0  0
M  END
> <VM2 Rank>
34

> <Conf_Id>
1884

> <Probability>
1.16

> <Sum Probability>
83.28

> <Delta G>
0.825

> <G>
62.900

> <E>
30.812

> <-TS>
32.088

> <U+W>
10.244

> <U>
12.337

> <W>
-2.092

> <W(PB)>
-4.240

> <W(SA)>
2.147

> <Valence>
18.677

> <Coulomb>
-8.851

> <VdW>
2.511

> <VdW6>
-11.906

> <VdW12>
14.417

> <Bond>
0.323

> <Angle>
3.226

> <Pdih>
15.127

> <Idih>
0.000

> <Tether>
0.000

$$$$
VeraChem MOL file


 25 25  0  0  0  0  0  0  0  0999 V2000     
   20.0233   19.0579   20.8525 C   0  0  0  0  0  0  0  0  0  0  0  0
   19.0583   18.6987   21.2336 H   0  0  0  0  0  0  0  0  0  0  0  0
   19.9060   19.0965   19.7607 H   0  0  0  0  0  0  0  0  0  0  0  0
   21.1411   18.0324   21.1584 C   0  0  0  0  0  0  0  0  0  0  0  0
   21.0659   17.2194   20.4234 H   0  0  0  0  0  0  0  0  0  0  0  0
   22.1265   18.4886   20.9927 H   0  0  0  0  0  0  0  0  0  0  0  0
   21.0850   17.3909   22.5652 C   0  0  0  0  0  0  0  0  0  0  0  0
   21.9062   16.6640   22.6299 H   0  0  0  0  0  0  0  0  0  0  0  0
   20.1620   16.8055   22.6765 H   0  0  0  0  0  0  0  0  0  0  0  0
   21.2282   18.3840   23.7429 C   0  0  0  0  0  0  0  0  0  0  0  0
   21.6254   17.8210   24.5985 H   0  0  0  0  0  0  0  0  0  0  0  0
   21.9942   19.1330   23.5062 H   0  0  0  0  0  0  0  0  0  0  0  0
   19.8939   19.0575   24.1607 C   0  0  0  0  0  0  0  0  0  0  0  0
   19.0583   18.5925   23.6194 H   0  0  0  0  0  0  0  0  0  0  0  0
   19.8586   20.5818   23.9072 C   0  0  0  0  0  0  0  0  0  0  0  0
   19.1520   21.0382   24.6138 H   0  0  0  0  0  0  0  0  0  0  0  0
   20.8366   21.0250   24.1347 H   0  0  0  0  0  0  0  0  0  0  0  0
   19.4136   20.9968   22.4837 C   0  0  0  0  0  0  0  0  0  0  0  0
   19.3932   22.0948   22.4514 H   0  0  0  0  0  0  0  0  0  0  0  0
   18.3777   20.6770   22.3058 H   0  0  0  0  0  0  0  0  0  0  0  0
   20.3260   20.5012   21.3368 C   0  0  0  0  0  0  0  0  0  0  0  0
   21.3827   20.6198   21.6105 H   0  0  0  0  0  0  0  0  0  0  0  0
   20.1714   21.1740   20.4820 H   0  0  0  0  0  0  0  0  0  0  0  0
   19.6944   18.8405   25.5525 O   0  0  0  0  0  0  0  0  0  0  0  0
   20.4389   19.2822   26.0106 H   0  0  0  0  0  0  0  0  0  0  0  0
  1  2  1  0  0  0  0
  1  3  1  0  0  0  0
  1  4  1  0  0  0  0
  4  5  1  0  0  0  0
  4  6  1  0  0  0  0
  4  7  1  0  0  0  0
  7  8  1  0  0  0  0
  7  9  1  0  0  0  0
  7 10  1  0  0  0  0
 10 11  1  0  0  0  0
 10 12  1  0  0  0  0
 10 13  1  0  0  0  0
 13 14  1  0  0  0  0
 13 15  1  0  0  0  0
 15 16  1  0  0  0  0
 15 17  1  0  0  0  0
 15 18  1  0  0  0  0
 18 19  1  0  0  0  0
 18 20  1  0  0  0  0
  1 21  1  0  0  0  0
 18 21  1  0  0  0  0
 21 22  1  0  0  0  0
 21 23  1  0  0  0  0
 13 24  1  0  0  0  0
 24 25  1  0  0  0  0
M  END
> <VM2 Rank>
35

> <Conf_Id>
329

> <Probability>
1.15

> <Sum Probability>
84.43

> <Delta G>
0.829

> <G>
62.904

> <E>
30.816

> <-TS>
32.088

> <U+W>
10.248

> <U>
12.337

> <W>
-2.088

> <W(PB)>
-4.220

> <W(SA)>
2.132

> <Valence>
18.676

> <Coulomb>
-8.851

> <VdW>
2.511

> <VdW6>
-11.906

> <VdW12>
14.417

> <Bond>
0.323

> <Angle>
3.227

> <Pdih>
15.127

> <Idih>
0.000

> <Tether>
0.000

$$$$
VeraChem MOL file


 25 25  0  0  0  0  0  0  0  0999 V2000     
   20.7696   19.2499   20.7967 C   0  0  0  0  0  0  0  0  0  0  0  0
   20.7276   19.0840   19.7116 H   0  0  0  0  0  0  0  0  0  0  0  0
   21.8284   19.4367   21.0170 H   0  0  0  0  0  0  0  0  0  0  0  0
   20.2745   17.9524   21.4863 C   0  0  0  0  0  0  0  0  0  0  0  0
   20.3397   17.1310   20.7597 H   0  0  0  0  0  0  0  0  0  0  0  0
   19.2069   18.0257   21.7227 H   0  0  0  0  0  0  0  0  0  0  0  0
   21.0789   17.5205   22.7386 C   0  0  0  0  0  0  0  0  0  0  0  0
   22.0119   17.0538   22.3950 H   0  0  0  0  0  0  0  0  0  0  0  0
   20.5254   16.7280   23.2604 H   0  0  0  0  0  0  0  0  0  0  0  0
   21.4603   18.6318   23.7533 C   0  0  0  0  0  0  0  0  0  0  0  0
   22.0940   18.1709   24.5219 H   0  0  0  0  0  0  0  0  0  0  0  0
   22.1072   19.3732   23.2726 H   0  0  0  0  0  0  0  0  0  0  0  0
   20.3029   19.3485   24.4922 C   0  0  0  0  0  0  0  0  0  0  0  0
   20.7728   20.0534   25.1933 H   0  0  0  0  0  0  0  0  0  0  0  0
   19.3228   20.1699   23.6197 C   0  0  0  0  0  0  0  0  0  0  0  0
   18.5669   19.5188   23.1670 H   0  0  0  0  0  0  0  0  0  0  0  0
   18.7597   20.8216   24.3003 H   0  0  0  0  0  0  0  0  0  0  0  0
   19.9830   21.0696   22.5405 C   0  0  0  0  0  0  0  0  0  0  0  0
   21.0171   21.3193   22.8106 H   0  0  0  0  0  0  0  0  0  0  0  0
   19.4480   22.0292   22.5373 H   0  0  0  0  0  0  0  0  0  0  0  0
   19.9145   20.5086   21.0964 C   0  0  0  0  0  0  0  0  0  0  0  0
   20.2421   21.3044   20.4136 H   0  0  0  0  0  0  0  0  0  0  0  0
   18.8670   20.3081   20.8329 H   0  0  0  0  0  0  0  0  0  0  0  0
   19.5577   18.3917   25.2364 O   0  0  0  0  0  0  0  0  0  0  0  0
   18.8669   18.8878   25.7218 H   0  0  0  0  0  0  0  0  0  0  0  0
  1  2  1  0  0  0  0
  1  3  1  0  0  0  0
  1  4  1  0  0  0  0
  4  5  1  0  0  0  0
  4  6  1  0  0  0  0
  4  7  1  0  0  0  0
  7  8  1  0  0  0  0
  7  9  1  0  0  0  0
  7 10  1  0  0  0  0
 10 11  1  0  0  0  0
 10 12  1  0  0  0  0
 10 13  1  0  0  0  0
 13 14  1  0  0  0  0
 13 15  1  0  0  0  0
 15 16  1  0  0  0  0
 15 17  1  0  0  0  0
 15 18  1  0  0  0  0
 18 19  1  0  0  0  0
 18 20  1  0  0  0  0
  1 21  1  0  0  0  0
 18 21  1  0  0  0  0
 21 22  1  0  0  0  0
 21 23  1  0  0  0  0
 13 24  1  0  0  0  0
 24 25  1  0  0  0  0
M  END
> <VM2 Rank>
36

> <Conf_Id>
1220

> <Probability>
0.86

> <Sum Probability>
85.29

> <Delta G>
0.998

> <G>
63.074

> <E>
30.342

> <-TS>
32.731

> <U+W>
9.775

> <U>
11.974

> <W>
-2.199

> <W(PB)>
-4.332

> <W(SA)>
2.133

> <Valence>
16.772

> <Coulomb>
-7.357

> <VdW>
2.559

> <VdW6>
-12.877

> <VdW12>
15.436

> <Bond>
0.436

> <Angle>
5.453

> <Pdih>
10.883

> <Idih>
0.000

> <Tether>
0.000

$$$$
VeraChem MOL file


 25 25  0  0  0  0  0  0  0  0999 V2000     
   20.6661   19.5023   20.7965 C   0  0  0  0  0  0  0  0  0  0  0  0
   20.5215   19.5841   19.7106 H   0  0  0  0  0  0  0  0  0  0  0  0
   21.5411   20.1271   21.0167 H   0  0  0  0  0  0  0  0  0  0  0  0
   20.9631   18.0113   21.1032 C   0  0  0  0  0  0  0  0  0  0  0  0
   20.0865   17.4039   20.8397 H   0  0  0  0  0  0  0  0  0  0  0  0
   21.7622   17.6840   20.4241 H   0  0  0  0  0  0  0  0  0  0  0  0
   21.4070   17.6727   22.5500 C   0  0  0  0  0  0  0  0  0  0  0  0
   22.3094   18.2360   22.8204 H   0  0  0  0  0  0  0  0  0  0  0  0
   21.7160   16.6184   22.5520 H   0  0  0  0  0  0  0  0  0  0  0  0
   20.2995   17.8374   23.6253 C   0  0  0  0  0  0  0  0  0  0  0  0
   19.3066   17.7531   23.1702 H   0  0  0  0  0  0  0  0  0  0  0  0
   20.3674   16.9817   24.3097 H   0  0  0  0  0  0  0  0  0  0  0  0
   20.3987   19.1156   24.4929 C   0  0  0  0  0  0  0  0  0  0  0  0
   21.2287   18.9593   25.1969 H   0  0  0  0  0  0  0  0  0  0  0  0
   20.7013   20.4403   23.7493 C   0  0  0  0  0  0  0  0  0  0  0  0
   20.8148   21.2186   24.5151 H   0  0  0  0  0  0  0  0  0  0  0  0
   21.6849   20.3798   23.2717 H   0  0  0  0  0  0  0  0  0  0  0  0
   19.6444   20.9434   22.7295 C   0  0  0  0  0  0  0  0  0  0  0  0
   19.9668   21.9344   22.3828 H   0  0  0  0  0  0  0  0  0  0  0  0
   18.6898   21.1066   23.2480 H   0  0  0  0  0  0  0  0  0  0  0  0
   19.3920   20.0619   21.4801 C   0  0  0  0  0  0  0  0  0  0  0  0
   18.8541   20.6813   20.7494 H   0  0  0  0  0  0  0  0  0  0  0  0
   18.6949   19.2503   21.7178 H   0  0  0  0  0  0  0  0  0  0  0  0
   19.1919   19.2583   25.2331 O   0  0  0  0  0  0  0  0  0  0  0  0
   19.0600   18.4200   25.7218 H   0  0  0  0  0  0  0  0  0  0  0  0
  1  2  1  0  0  0  0
  1  3  1  0  0  0  0
  1  4  1  0  0  0  0
  4  5  1  0  0  0  0
  4  6  1  0  0  0  0
  4  7  1  0  0  0  0
  7  8  1  0  0  0  0
  7  9  1  0  0  0  0
  7 10  1  0  0  0  0
 10 11  1  0  0  0  0
 10 12  1  0  0  0  0
 10 13  1  0  0  0  0
 13 14  1  0  0  0  0
 13 15  1  0  0  0  0
 15 16  1  0  0  0  0
 15 17  1  0  0  0  0
 15 18  1  0  0  0  0
 18 19  1  0  0  0  0
 18 20  1  0  0  0  0
  1 21  1  0  0  0  0
 18 21  1  0  0  0  0
 21 22  1  0  0  0  0
 21 23  1  0  0  0  0
 13 24  1  0  0  0  0
 24 25  1  0  0  0  0
M  END
> <VM2 Rank>
37

> <Conf_Id>
1244

> <Probability>
0.83

> <Sum Probability>
86.12

> <Delta G>
1.022

> <G>
63.097

> <E>
30.367

> <-TS>
32.730

> <U+W>
9.799

> <U>
11.974

> <W>
-2.175

> <W(PB)>
-4.302

> <W(SA)>
2.128

> <Valence>
16.772

> <Coulomb>
-7.357

> <VdW>
2.559

> <VdW6>
-12.877

> <VdW12>
15.436

> <Bond>
0.436

> <Angle>
5.453

> <Pdih>
10.883

> <Idih>
0.000

> <Tether>
0.000

$$$$
VeraChem MOL file


 25 25  0  0  0  0  0  0  0  0999 V2000     
   20.6894   19.3605   20.5518 C   0  0  0  0  0  0  0  0  0  0  0  0
   20.4075   19.2286   19.4982 H   0  0  0  0  0  0  0  0  0  0  0  0
   21.7573   19.6173   20.5406 H   0  0  0  0  0  0  0  0  0  0  0  0
   20.4715   18.0103   21.2743 C   0  0  0  0  0  0  0  0  0  0  0  0
   19.4079   17.8675   21.5070 H   0  0  0  0  0  0  0  0  0  0  0  0
   20.7217   17.2139   20.5599 H   0  0  0  0  0  0  0  0  0  0  0  0
   21.3604   17.8038   22.5285 C   0  0  0  0  0  0  0  0  0  0  0  0
   22.1866   18.5267   22.5577 H   0  0  0  0  0  0  0  0  0  0  0  0
   21.8391   16.8194   22.4329 H   0  0  0  0  0  0  0  0  0  0  0  0
   20.5887   17.8121   23.8705 C   0  0  0  0  0  0  0  0  0  0  0  0
   19.6359   17.2773   23.7617 H   0  0  0  0  0  0  0  0  0  0  0  0
   21.1762   17.2312   24.5936 H   0  0  0  0  0  0  0  0  0  0  0  0
   20.3423   19.2079   24.4848 C   0  0  0  0  0  0  0  0  0  0  0  0
   21.3104   19.7041   24.6439 H   0  0  0  0  0  0  0  0  0  0  0  0
   19.4388   20.1337   23.6395 C   0  0  0  0  0  0  0  0  0  0  0  0
   18.6167   19.5555   23.1994 H   0  0  0  0  0  0  0  0  0  0  0  0
   18.9601   20.8507   24.3201 H   0  0  0  0  0  0  0  0  0  0  0  0
   20.1930   20.9545   22.5589 C   0  0  0  0  0  0  0  0  0  0  0  0
   21.2785   20.9345   22.7243 H   0  0  0  0  0  0  0  0  0  0  0  0
   19.8993   22.0063   22.6791 H   0  0  0  0  0  0  0  0  0  0  0  0
   19.8640   20.5457   21.1045 C   0  0  0  0  0  0  0  0  0  0  0  0
   18.7903   20.3376   21.0025 H   0  0  0  0  0  0  0  0  0  0  0  0
   20.0593   21.4118   20.4574 H   0  0  0  0  0  0  0  0  0  0  0  0
   19.7158   19.0146   25.7472 O   0  0  0  0  0  0  0  0  0  0  0  0
   20.3273   18.4711   26.2867 H   0  0  0  0  0  0  0  0  0  0  0  0
  1  2  1  0  0  0  0
  1  3  1  0  0  0  0
  1  4  1  0  0  0  0
  4  5  1  0  0  0  0
  4  6  1  0  0  0  0
  4  7  1  0  0  0  0
  7  8  1  0  0  0  0
  7  9  1  0  0  0  0
  7 10  1  0  0  0  0
 10 11  1  0  0  0  0
 10 12  1  0  0  0  0
 10 13  1  0  0  0  0
 13 14  1  0  0  0  0
 13 15  1  0  0  0  0
 15 16  1  0  0  0  0
 15 17  1  0  0  0  0
 15 18  1  0  0  0  0
 18 19  1  0  0  0  0
 18 20  1  0  0  0  0
  1 21  1  0  0  0  0
 18 21  1  0  0  0  0
 21 22  1  0  0  0  0
 21 23  1  0  0  0  0
 13 24  1  0  0  0  0
 24 25  1  0  0  0  0
M  END
> <VM2 Rank>
38

> <Conf_Id>
1115

> <Probability>
0.75

> <Sum Probability>
86.87

> <Delta G>
1.084

> <G>
63.159

> <E>
31.416

> <-TS>
31.743

> <U+W>
10.849

> <U>
13.140

> <W>
-2.291

> <W(PB)>
-4.429

> <W(SA)>
2.137

> <Valence>
19.156

> <Coulomb>
-8.157

> <VdW>
2.141

> <VdW6>
-11.576

> <VdW12>
13.717

> <Bond>
0.294

> <Angle>
3.548

> <Pdih>
15.314

> <Idih>
0.000

> <Tether>
0.000

$$$$
VeraChem MOL file


 25 25  0  0  0  0  0  0  0  0999 V2000     
   20.6949   19.3626   20.5549 C   0  0  0  0  0  0  0  0  0  0  0  0
   20.4197   19.2327   19.4993 H   0  0  0  0  0  0  0  0  0  0  0  0
   21.7624   19.6211   20.5507 H   0  0  0  0  0  0  0  0  0  0  0  0
   20.4745   18.0100   21.2724 C   0  0  0  0  0  0  0  0  0  0  0  0
   19.4101   17.8656   21.5006 H   0  0  0  0  0  0  0  0  0  0  0  0
   20.7279   17.2163   20.5562 H   0  0  0  0  0  0  0  0  0  0  0  0
   21.3586   17.7986   22.5292 C   0  0  0  0  0  0  0  0  0  0  0  0
   22.1892   18.5165   22.5603 H   0  0  0  0  0  0  0  0  0  0  0  0
   21.8312   16.8111   22.4360 H   0  0  0  0  0  0  0  0  0  0  0  0
   20.5836   17.8123   23.8695 C   0  0  0  0  0  0  0  0  0  0  0  0
   19.6295   17.2801   23.7618 H   0  0  0  0  0  0  0  0  0  0  0  0
   21.1662   17.2340   24.5988 H   0  0  0  0  0  0  0  0  0  0  0  0
   20.3417   19.2089   24.4822 C   0  0  0  0  0  0  0  0  0  0  0  0
   21.3128   19.7011   24.6354 H   0  0  0  0  0  0  0  0  0  0  0  0
   19.4343   20.1327   23.6383 C   0  0  0  0  0  0  0  0  0  0  0  0
   18.6177   19.5498   23.1937 H   0  0  0  0  0  0  0  0  0  0  0  0
   18.9470   20.8489   24.3132 H   0  0  0  0  0  0  0  0  0  0  0  0
   20.1880   20.9561   22.5597 C   0  0  0  0  0  0  0  0  0  0  0  0
   21.2733   20.9399   22.7271 H   0  0  0  0  0  0  0  0  0  0  0  0
   19.8905   22.0071   22.6784 H   0  0  0  0  0  0  0  0  0  0  0  0
   19.8642   20.5455   21.1046 C   0  0  0  0  0  0  0  0  0  0  0  0
   18.7914   20.3344   20.9993 H   0  0  0  0  0  0  0  0  0  0  0  0
   20.0590   21.4120   20.4578 H   0  0  0  0  0  0  0  0  0  0  0  0
   19.7242   19.0162   25.7490 O   0  0  0  0  0  0  0  0  0  0  0  0
   19.6417   19.9016   26.1608 H   0  0  0  0  0  0  0  0  0  0  0  0
  1  2  1  0  0  0  0
  1  3  1  0  0  0  0
  1  4  1  0  0  0  0
  4  5  1  0  0  0  0
  4  6  1  0  0  0  0
  4  7  1  0  0  0  0
  7  8  1  0  0  0  0
  7  9  1  0  0  0  0
  7 10  1  0  0  0  0
 10 11  1  0  0  0  0
 10 12  1  0  0  0  0
 10 13  1  0  0  0  0
 13 14  1  0  0  0  0
 13 15  1  0  0  0  0
 15 16  1  0  0  0  0
 15 17  1  0  0  0  0
 15 18  1  0  0  0  0
 18 19  1  0  0  0  0
 18 20  1  0  0  0  0
  1 21  1  0  0  0  0
 18 21  1  0  0  0  0
 21 22  1  0  0  0  0
 21 23  1  0  0  0  0
 13 24  1  0  0  0  0
 24 25  1  0  0  0  0
M  END
> <VM2 Rank>
39

> <Conf_Id>
1072

> <Probability>
0.75

> <Sum Probability>
87.62

> <Delta G>
1.086

> <G>
63.162

> <E>
31.434

> <-TS>
31.728

> <U+W>
10.866

> <U>
13.062

> <W>
-2.195

> <W(PB)>
-4.334

> <W(SA)>
2.139

> <Valence>
19.173

> <Coulomb>
-8.232

> <VdW>
2.120

> <VdW6>
-11.562

> <VdW12>
13.683

> <Bond>
0.293

> <Angle>
3.543

> <Pdih>
15.336

> <Idih>
0.000

> <Tether>
0.000

$$$$
VeraChem MOL file


 25 25  0  0  0  0  0  0  0  0999 V2000     
   20.6946   19.3622   20.5547 C   0  0  0  0  0  0  0  0  0  0  0  0
   20.4189   19.2322   19.4992 H   0  0  0  0  0  0  0  0  0  0  0  0
   21.7620   19.6215   20.5499 H   0  0  0  0  0  0  0  0  0  0  0  0
   20.4755   18.0096   21.2723 C   0  0  0  0  0  0  0  0  0  0  0  0
   19.4111   17.8641   21.4996 H   0  0  0  0  0  0  0  0  0  0  0  0
   20.7303   17.2160   20.5564 H   0  0  0  0  0  0  0  0  0  0  0  0
   21.3594   17.8001   22.5295 C   0  0  0  0  0  0  0  0  0  0  0  0
   22.1878   18.5204   22.5617 H   0  0  0  0  0  0  0  0  0  0  0  0
   21.8351   16.8141   22.4359 H   0  0  0  0  0  0  0  0  0  0  0  0
   20.5830   17.8108   23.8685 C   0  0  0  0  0  0  0  0  0  0  0  0
   19.6316   17.2749   23.7559 H   0  0  0  0  0  0  0  0  0  0  0  0
   21.1674   17.2328   24.5969 H   0  0  0  0  0  0  0  0  0  0  0  0
   20.3405   19.2075   24.4815 C   0  0  0  0  0  0  0  0  0  0  0  0
   21.3107   19.7002   24.6375 H   0  0  0  0  0  0  0  0  0  0  0  0
   19.4350   20.1356   23.6406 C   0  0  0  0  0  0  0  0  0  0  0  0
   18.6112   19.5613   23.1983 H   0  0  0  0  0  0  0  0  0  0  0  0
   18.9607   20.8548   24.3222 H   0  0  0  0  0  0  0  0  0  0  0  0
   20.1885   20.9561   22.5597 C   0  0  0  0  0  0  0  0  0  0  0  0
   21.2738   20.9400   22.7270 H   0  0  0  0  0  0  0  0  0  0  0  0
   19.8914   22.0074   22.6771 H   0  0  0  0  0  0  0  0  0  0  0  0
   19.8633   20.5442   21.1052 C   0  0  0  0  0  0  0  0  0  0  0  0
   18.7906   20.3320   21.0010 H   0  0  0  0  0  0  0  0  0  0  0  0
   20.0565   21.4106   20.4578 H   0  0  0  0  0  0  0  0  0  0  0  0
   19.7242   19.0168   25.7481 O   0  0  0  0  0  0  0  0  0  0  0  0
   18.8624   18.5855   25.5741 H   0  0  0  0  0  0  0  0  0  0  0  0
  1  2  1  0  0  0  0
  1  3  1  0  0  0  0
  1  4  1  0  0  0  0
  4  5  1  0  0  0  0
  4  6  1  0  0  0  0
  4  7  1  0  0  0  0
  7  8  1  0  0  0  0
  7  9  1  0  0  0  0
  7 10  1  0  0  0  0
 10 11  1  0  0  0  0
 10 12  1  0  0  0  0
 10 13  1  0  0  0  0
 13 14  1  0  0  0  0
 13 15  1  0  0  0  0
 15 16  1  0  0  0  0
 15 17  1  0  0  0  0
 15 18  1  0  0  0  0
 18 19  1  0  0  0  0
 18 20  1  0  0  0  0
  1 21  1  0  0  0  0
 18 21  1  0  0  0  0
 21 22  1  0  0  0  0
 21 23  1  0  0  0  0
 13 24  1  0  0  0  0
 24 25  1  0  0  0  0
M  END
> <VM2 Rank>
40

> <Conf_Id>
593

> <Probability>
0.68

> <Sum Probability>
88.30

> <Delta G>
1.146

> <G>
63.221

> <E>
31.524

> <-TS>
31.697

> <U+W>
10.956

> <U>
12.792

> <W>
-1.835

> <W(PB)>
-3.980

> <W(SA)>
2.145

> <Valence>
19.529

> <Coulomb>
-8.823

> <VdW>
2.086

> <VdW6>
-11.579

> <VdW12>
13.665

> <Bond>
0.287

> <Angle>
3.589

> <Pdih>
15.653

> <Idih>
0.000

> <Tether>
0.000

$$$$
VeraChem MOL file


 25 25  0  0  0  0  0  0  0  0999 V2000     
   19.8928   19.0180   21.0113 C   0  0  0  0  0  0  0  0  0  0  0  0
   18.9966   18.5661   21.4546 H   0  0  0  0  0  0  0  0  0  0  0  0
   19.7725   18.8834   19.9273 H   0  0  0  0  0  0  0  0  0  0  0  0
   21.1819   18.2628   21.4204 C   0  0  0  0  0  0  0  0  0  0  0  0
   21.4350   17.5827   20.5952 H   0  0  0  0  0  0  0  0  0  0  0  0
   22.0370   18.9470   21.5034 H   0  0  0  0  0  0  0  0  0  0  0  0
   21.0537   17.3990   22.6949 C   0  0  0  0  0  0  0  0  0  0  0  0
   21.7951   16.5918   22.6185 H   0  0  0  0  0  0  0  0  0  0  0  0
   20.0806   16.8909   22.7241 H   0  0  0  0  0  0  0  0  0  0  0  0
   21.3328   18.1399   24.0276 C   0  0  0  0  0  0  0  0  0  0  0  0
   21.3873   17.3799   24.8181 H   0  0  0  0  0  0  0  0  0  0  0  0
   22.3322   18.5925   23.9944 H   0  0  0  0  0  0  0  0  0  0  0  0
   20.3015   19.1966   24.4883 C   0  0  0  0  0  0  0  0  0  0  0  0
   20.4832   19.3391   25.5635 H   0  0  0  0  0  0  0  0  0  0  0  0
   20.4724   20.5971   23.8379 C   0  0  0  0  0  0  0  0  0  0  0  0
   20.3193   21.3280   24.6427 H   0  0  0  0  0  0  0  0  0  0  0  0
   21.5124   20.7435   23.5194 H   0  0  0  0  0  0  0  0  0  0  0  0
   19.5102   20.9947   22.6849 C   0  0  0  0  0  0  0  0  0  0  0  0
   19.4711   22.0924   22.6634 H   0  0  0  0  0  0  0  0  0  0  0  0
   18.4785   20.6846   22.8950 H   0  0  0  0  0  0  0  0  0  0  0  0
   19.9344   20.5411   21.2701 C   0  0  0  0  0  0  0  0  0  0  0  0
   19.2474   21.0182   20.5575 H   0  0  0  0  0  0  0  0  0  0  0  0
   20.9286   20.9410   21.0288 H   0  0  0  0  0  0  0  0  0  0  0  0
   18.9843   18.6939   24.3246 O   0  0  0  0  0  0  0  0  0  0  0  0
   18.8738   18.6269   23.3554 H   0  0  0  0  0  0  0  0  0  0  0  0
  1  2  1  0  0  0  0
  1  3  1  0  0  0  0
  1  4  1  0  0  0  0
  4  5  1  0  0  0  0
  4  6  1  0  0  0  0
  4  7  1  0  0  0  0
  7  8  1  0  0  0  0
  7  9  1  0  0  0  0
  7 10  1  0  0  0  0
 10 11  1  0  0  0  0
 10 12  1  0  0  0  0
 10 13  1  0  0  0  0
 13 14  1  0  0  0  0
 13 15  1  0  0  0  0
 15 16  1  0  0  0  0
 15 17  1  0  0  0  0
 15 18  1  0  0  0  0
 18 19  1  0  0  0  0
 18 20  1  0  0  0  0
  1 21  1  0  0  0  0
 18 21  1  0  0  0  0
 21 22  1  0  0  0  0
 21 23  1  0  0  0  0
 13 24  1  0  0  0  0
 24 25  1  0  0  0  0
M  END
> <VM2 Rank>
41

> <Conf_Id>
1565

> <Probability>
0.62

> <Sum Probability>
88.92

> <Delta G>
1.197

> <G>
63.272

> <E>
31.218

> <-TS>
32.054

> <U+W>
10.651

> <U>
11.809

> <W>
-1.158

> <W(PB)>
-3.264

> <W(SA)>
2.105

> <Valence>
19.951

> <Coulomb>
-10.074

> <VdW>
1.932

> <VdW6>
-12.999

> <VdW12>
14.931

> <Bond>
0.347

> <Angle>
6.175

> <Pdih>
13.428

> <Idih>
0.000

> <Tether>
0.000

$$$$
VeraChem MOL file


 25 25  0  0  0  0  0  0  0  0999 V2000     
   21.2529   19.5868   21.2616 C   0  0  0  0  0  0  0  0  0  0  0  0
   21.7548   19.7124   20.2921 H   0  0  0  0  0  0  0  0  0  0  0  0
   22.0171   19.8293   22.0105 H   0  0  0  0  0  0  0  0  0  0  0  0
   20.8070   18.1060   21.3513 C   0  0  0  0  0  0  0  0  0  0  0  0
   19.7485   17.9900   21.0822 H   0  0  0  0  0  0  0  0  0  0  0  0
   21.3632   17.5527   20.5820 H   0  0  0  0  0  0  0  0  0  0  0  0
   21.1005   17.4186   22.7035 C   0  0  0  0  0  0  0  0  0  0  0  0
   22.0801   17.7271   23.0921 H   0  0  0  0  0  0  0  0  0  0  0  0
   21.1970   16.3417   22.5084 H   0  0  0  0  0  0  0  0  0  0  0  0
   19.9993   17.5822   23.7822 C   0  0  0  0  0  0  0  0  0  0  0  0
   19.0420   17.2166   23.3888 H   0  0  0  0  0  0  0  0  0  0  0  0
   20.2487   16.9037   24.6086 H   0  0  0  0  0  0  0  0  0  0  0  0
   19.8028   18.9881   24.3965 C   0  0  0  0  0  0  0  0  0  0  0  0
   19.2579   18.8267   25.3380 H   0  0  0  0  0  0  0  0  0  0  0  0
   18.9200   19.9479   23.5522 C   0  0  0  0  0  0  0  0  0  0  0  0
   18.2349   19.3729   22.9162 H   0  0  0  0  0  0  0  0  0  0  0  0
   18.2694   20.4708   24.2654 H   0  0  0  0  0  0  0  0  0  0  0  0
   19.6259   21.0431   22.7062 C   0  0  0  0  0  0  0  0  0  0  0  0
   20.4518   21.5098   23.2582 H   0  0  0  0  0  0  0  0  0  0  0  0
   18.8985   21.8529   22.5581 H   0  0  0  0  0  0  0  0  0  0  0  0
   20.0929   20.6073   21.2992 C   0  0  0  0  0  0  0  0  0  0  0  0
   20.4294   21.5124   20.7751 H   0  0  0  0  0  0  0  0  0  0  0  0
   19.2388   20.2343   20.7178 H   0  0  0  0  0  0  0  0  0  0  0  0
   21.0628   19.5631   24.7072 O   0  0  0  0  0  0  0  0  0  0  0  0
   21.4767   19.7153   23.8345 H   0  0  0  0  0  0  0  0  0  0  0  0
  1  2  1  0  0  0  0
  1  3  1  0  0  0  0
  1  4  1  0  0  0  0
  4  5  1  0  0  0  0
  4  6  1  0  0  0  0
  4  7  1  0  0  0  0
  7  8  1  0  0  0  0
  7  9  1  0  0  0  0
  7 10  1  0  0  0  0
 10 11  1  0  0  0  0
 10 12  1  0  0  0  0
 10 13  1  0  0  0  0
 13 14  1  0  0  0  0
 13 15  1  0  0  0  0
 15 16  1  0  0  0  0
 15 17  1  0  0  0  0
 15 18  1  0  0  0  0
 18 19  1  0  0  0  0
 18 20  1  0  0  0  0
  1 21  1  0  0  0  0
 18 21  1  0  0  0  0
 21 22  1  0  0  0  0
 21 23  1  0  0  0  0
 13 24  1  0  0  0  0
 24 25  1  0  0  0  0
M  END
> <VM2 Rank>
42

> <Conf_Id>
331

> <Probability>
0.58

> <Sum Probability>
89.50

> <Delta G>
1.236

> <G>
63.312

> <E>
31.258

> <-TS>
32.054

> <U+W>
10.691

> <U>
11.809

> <W>
-1.118

> <W(PB)>
-3.244

> <W(SA)>
2.126

> <Valence>
19.951

> <Coulomb>
-10.074

> <VdW>
1.932

> <VdW6>
-12.998

> <VdW12>
14.930

> <Bond>
0.347

> <Angle>
6.175

> <Pdih>
13.428

> <Idih>
0.000

> <Tether>
0.000

$$$$
VeraChem MOL file


 25 25  0  0  0  0  0  0  0  0999 V2000     
   21.0539   19.5285   20.9875 C   0  0  0  0  0  0  0  0  0  0  0  0
   21.4100   19.6805   19.9595 H   0  0  0  0  0  0  0  0  0  0  0  0
   21.8762   19.8810   21.6203 H   0  0  0  0  0  0  0  0  0  0  0  0
   20.8395   18.0066   21.1808 C   0  0  0  0  0  0  0  0  0  0  0  0
   20.0840   17.6529   20.4663 H   0  0  0  0  0  0  0  0  0  0  0  0
   21.7744   17.5036   20.8984 H   0  0  0  0  0  0  0  0  0  0  0  0
   20.4518   17.5239   22.6020 C   0  0  0  0  0  0  0  0  0  0  0  0
   20.6259   16.4399   22.6347 H   0  0  0  0  0  0  0  0  0  0  0  0
   19.3737   17.6302   22.7649 H   0  0  0  0  0  0  0  0  0  0  0  0
   21.2501   18.1755   23.7657 C   0  0  0  0  0  0  0  0  0  0  0  0
   21.4756   17.3868   24.4953 H   0  0  0  0  0  0  0  0  0  0  0  0
   22.2292   18.5234   23.4152 H   0  0  0  0  0  0  0  0  0  0  0  0
   20.5320   19.3080   24.5471 C   0  0  0  0  0  0  0  0  0  0  0  0
   21.2136   19.6013   25.3585 H   0  0  0  0  0  0  0  0  0  0  0  0
   20.2089   20.6064   23.7607 C   0  0  0  0  0  0  0  0  0  0  0  0
   19.8029   21.3262   24.4831 H   0  0  0  0  0  0  0  0  0  0  0  0
   21.1380   21.0668   23.4034 H   0  0  0  0  0  0  0  0  0  0  0  0
   19.1846   20.4735   22.5995 C   0  0  0  0  0  0  0  0  0  0  0  0
   18.5167   21.3449   22.6310 H   0  0  0  0  0  0  0  0  0  0  0  0
   18.5218   19.6163   22.7608 H   0  0  0  0  0  0  0  0  0  0  0  0
   19.8028   20.4220   21.1789 C   0  0  0  0  0  0  0  0  0  0  0  0
   19.0268   20.1177   20.4636 H   0  0  0  0  0  0  0  0  0  0  0  0
   20.0826   21.4460   20.8964 H   0  0  0  0  0  0  0  0  0  0  0  0
   19.3403   18.7987   25.1380 O   0  0  0  0  0  0  0  0  0  0  0  0
   18.9034   19.5540   25.5815 H   0  0  0  0  0  0  0  0  0  0  0  0
  1  2  1  0  0  0  0
  1  3  1  0  0  0  0
  1  4  1  0  0  0  0
  4  5  1  0  0  0  0
  4  6  1  0  0  0  0
  4  7  1  0  0  0  0
  7  8  1  0  0  0  0
  7  9  1  0  0  0  0
  7 10  1  0  0  0  0
 10 11  1  0  0  0  0
 10 12  1  0  0  0  0
 10 13  1  0  0  0  0
 13 14  1  0  0  0  0
 13 15  1  0  0  0  0
 15 16  1  0  0  0  0
 15 17  1  0  0  0  0
 15 18  1  0  0  0  0
 18 19  1  0  0  0  0
 18 20  1  0  0  0  0
  1 21  1  0  0  0  0
 18 21  1  0  0  0  0
 21 22  1  0  0  0  0
 21 23  1  0  0  0  0
 13 24  1  0  0  0  0
 24 25  1  0  0  0  0
M  END
> <VM2 Rank>
43

> <Conf_Id>
835

> <Probability>
0.58

> <Sum Probability>
90.07

> <Delta G>
1.238

> <G>
63.314

> <E>
30.500

> <-TS>
32.814

> <U+W>
9.932

> <U>
12.094

> <W>
-2.161

> <W(PB)>
-4.282

> <W(SA)>
2.121

> <Valence>
16.788

> <Coulomb>
-7.596

> <VdW>
2.902

> <VdW6>
-13.303

> <VdW12>
16.205

> <Bond>
0.495

> <Angle>
5.823

> <Pdih>
10.470

> <Idih>
0.000

> <Tether>
0.000

$$$$
VeraChem MOL file


 25 25  0  0  0  0  0  0  0  0999 V2000     
   21.0541   19.5276   20.9874 C   0  0  0  0  0  0  0  0  0  0  0  0
   21.4104   19.6790   19.9594 H   0  0  0  0  0  0  0  0  0  0  0  0
   21.8755   19.8823   21.6201 H   0  0  0  0  0  0  0  0  0  0  0  0
   20.8402   18.0056   21.1817 C   0  0  0  0  0  0  0  0  0  0  0  0
   20.0857   17.6510   20.4666 H   0  0  0  0  0  0  0  0  0  0  0  0
   21.7756   17.5026   20.9009 H   0  0  0  0  0  0  0  0  0  0  0  0
   20.4508   17.5247   22.6030 C   0  0  0  0  0  0  0  0  0  0  0  0
   20.6226   16.4403   22.6368 H   0  0  0  0  0  0  0  0  0  0  0  0
   19.3726   17.6347   22.7633 H   0  0  0  0  0  0  0  0  0  0  0  0
   21.2516   18.1782   23.7635 C   0  0  0  0  0  0  0  0  0  0  0  0
   21.4934   17.3895   24.4878 H   0  0  0  0  0  0  0  0  0  0  0  0
   22.2255   18.5341   23.4063 H   0  0  0  0  0  0  0  0  0  0  0  0
   20.5321   19.3082   24.5470 C   0  0  0  0  0  0  0  0  0  0  0  0
   21.2135   19.6021   25.3585 H   0  0  0  0  0  0  0  0  0  0  0  0
   20.2060   20.6073   23.7628 C   0  0  0  0  0  0  0  0  0  0  0  0
   19.7889   21.3154   24.4906 H   0  0  0  0  0  0  0  0  0  0  0  0
   21.1328   21.0769   23.4121 H   0  0  0  0  0  0  0  0  0  0  0  0
   19.1847   20.4748   22.5986 C   0  0  0  0  0  0  0  0  0  0  0  0
   18.5186   21.3476   22.6290 H   0  0  0  0  0  0  0  0  0  0  0  0
   18.5193   19.6202   22.7626 H   0  0  0  0  0  0  0  0  0  0  0  0
   19.8029   20.4206   21.1779 C   0  0  0  0  0  0  0  0  0  0  0  0
   19.0267   20.1150   20.4634 H   0  0  0  0  0  0  0  0  0  0  0  0
   20.0822   21.4443   20.8937 H   0  0  0  0  0  0  0  0  0  0  0  0
   19.3416   18.7960   25.1380 O   0  0  0  0  0  0  0  0  0  0  0  0
   19.5879   17.9600   25.5833 H   0  0  0  0  0  0  0  0  0  0  0  0
  1  2  1  0  0  0  0
  1  3  1  0  0  0  0
  1  4  1  0  0  0  0
  4  5  1  0  0  0  0
  4  6  1  0  0  0  0
  4  7  1  0  0  0  0
  7  8  1  0  0  0  0
  7  9  1  0  0  0  0
  7 10  1  0  0  0  0
 10 11  1  0  0  0  0
 10 12  1  0  0  0  0
 10 13  1  0  0  0  0
 13 14  1  0  0  0  0
 13 15  1  0  0  0  0
 15 16  1  0  0  0  0
 15 17  1  0  0  0  0
 15 18  1  0  0  0  0
 18 19  1  0  0  0  0
 18 20  1  0  0  0  0
  1 21  1  0  0  0  0
 18 21  1  0  0  0  0
 21 22  1  0  0  0  0
 21 23  1  0  0  0  0
 13 24  1  0  0  0  0
 24 25  1  0  0  0  0
M  END
> <VM2 Rank>
44

> <Conf_Id>
1562

> <Probability>
0.56

> <Sum Probability>
90.63

> <Delta G>
1.261

> <G>
63.336

> <E>
30.523

> <-TS>
32.814

> <U+W>
9.955

> <U>
12.093

> <W>
-2.138

> <W(PB)>
-4.252

> <W(SA)>
2.114

> <Valence>
16.788

> <Coulomb>
-7.596

> <VdW>
2.902

> <VdW6>
-13.303

> <VdW12>
16.205

> <Bond>
0.495

> <Angle>
5.823

> <Pdih>
10.470

> <Idih>
0.000

> <Tether>
0.000

$$$$
VeraChem MOL file


 25 25  0  0  0  0  0  0  0  0999 V2000     
   20.2254   19.1434   20.6162 C   0  0  0  0  0  0  0  0  0  0  0  0
   19.1861   18.7992   20.5274 H   0  0  0  0  0  0  0  0  0  0  0  0
   20.5681   19.3165   19.5869 H   0  0  0  0  0  0  0  0  0  0  0  0
   21.1069   18.0236   21.2156 C   0  0  0  0  0  0  0  0  0  0  0  0
   21.0263   17.1521   20.5515 H   0  0  0  0  0  0  0  0  0  0  0  0
   22.1644   18.3191   21.1862 H   0  0  0  0  0  0  0  0  0  0  0  0
   20.7149   17.5735   22.6421 C   0  0  0  0  0  0  0  0  0  0  0  0
   21.0726   16.5420   22.7653 H   0  0  0  0  0  0  0  0  0  0  0  0
   19.6241   17.5079   22.7285 H   0  0  0  0  0  0  0  0  0  0  0  0
   21.3551   18.4192   23.7825 C   0  0  0  0  0  0  0  0  0  0  0  0
   21.8207   17.7193   24.4888 H   0  0  0  0  0  0  0  0  0  0  0  0
   22.1852   19.0236   23.3956 H   0  0  0  0  0  0  0  0  0  0  0  0
   20.4117   19.3227   24.6140 C   0  0  0  0  0  0  0  0  0  0  0  0
   20.9565   19.5819   25.5333 H   0  0  0  0  0  0  0  0  0  0  0  0
   20.0223   20.6654   23.9544 C   0  0  0  0  0  0  0  0  0  0  0  0
   19.3554   21.1882   24.6529 H   0  0  0  0  0  0  0  0  0  0  0  0
   20.9129   21.3022   23.8761 H   0  0  0  0  0  0  0  0  0  0  0  0
   19.3125   20.5869   22.5790 C   0  0  0  0  0  0  0  0  0  0  0  0
   18.7304   21.5112   22.4607 H   0  0  0  0  0  0  0  0  0  0  0  0
   18.5710   19.7782   22.5655 H   0  0  0  0  0  0  0  0  0  0  0  0
   20.2786   20.4922   21.3694 C   0  0  0  0  0  0  0  0  0  0  0  0
   21.3117   20.7245   21.6602 H   0  0  0  0  0  0  0  0  0  0  0  0
   19.9933   21.2780   20.6564 H   0  0  0  0  0  0  0  0  0  0  0  0
   19.2365   18.6160   24.9868 O   0  0  0  0  0  0  0  0  0  0  0  0
   18.7648   18.4357   24.1503 H   0  0  0  0  0  0  0  0  0  0  0  0
  1  2  1  0  0  0  0
  1  3  1  0  0  0  0
  1  4  1  0  0  0  0
  4  5  1  0  0  0  0
  4  6  1  0  0  0  0
  4  7  1  0  0  0  0
  7  8  1  0  0  0  0
  7  9  1  0  0  0  0
  7 10  1  0  0  0  0
 10 11  1  0  0  0  0
 10 12  1  0  0  0  0
 10 13  1  0  0  0  0
 13 14  1  0  0  0  0
 13 15  1  0  0  0  0
 15 16  1  0  0  0  0
 15 17  1  0  0  0  0
 15 18  1  0  0  0  0
 18 19  1  0  0  0  0
 18 20  1  0  0  0  0
  1 21  1  0  0  0  0
 18 21  1  0  0  0  0
 21 22  1  0  0  0  0
 21 23  1  0  0  0  0
 13 24  1  0  0  0  0
 24 25  1  0  0  0  0
M  END
> <VM2 Rank>
45

> <Conf_Id>
1327

> <Probability>
0.55

> <Sum Probability>
91.19

> <Delta G>
1.263

> <G>
63.338

> <E>
31.413

> <-TS>
31.925

> <U+W>
10.845

> <U>
12.343

> <W>
-1.497

> <W(PB)>
-3.626

> <W(SA)>
2.129

> <Valence>
19.543

> <Coulomb>
-9.330

> <VdW>
2.130

> <VdW6>
-12.583

> <VdW12>
14.713

> <Bond>
0.361

> <Angle>
4.755

> <Pdih>
14.426

> <Idih>
0.000

> <Tether>
0.000

$$$$
VeraChem MOL file


 25 25  0  0  0  0  0  0  0  0999 V2000     
   20.5185   19.2005   20.7422 C   0  0  0  0  0  0  0  0  0  0  0  0
   19.5762   18.6604   20.5790 H   0  0  0  0  0  0  0  0  0  0  0  0
   20.9294   19.3740   19.7381 H   0  0  0  0  0  0  0  0  0  0  0  0
   21.5398   18.3098   21.4948 C   0  0  0  0  0  0  0  0  0  0  0  0
   22.0720   17.7015   20.7505 H   0  0  0  0  0  0  0  0  0  0  0  0
   22.3176   18.9357   21.9509 H   0  0  0  0  0  0  0  0  0  0  0  0
   20.9432   17.3284   22.5388 C   0  0  0  0  0  0  0  0  0  0  0  0
   21.7732   16.8719   23.0952 H   0  0  0  0  0  0  0  0  0  0  0  0
   20.4487   16.5032   22.0084 H   0  0  0  0  0  0  0  0  0  0  0  0
   19.9348   17.9293   23.5482 C   0  0  0  0  0  0  0  0  0  0  0  0
   18.9689   18.0657   23.0505 H   0  0  0  0  0  0  0  0  0  0  0  0
   19.7396   17.1815   24.3283 H   0  0  0  0  0  0  0  0  0  0  0  0
   20.4102   19.2557   24.1920 C   0  0  0  0  0  0  0  0  0  0  0  0
   21.4188   19.4993   23.8365 H   0  0  0  0  0  0  0  0  0  0  0  0
   19.4926   20.4589   23.8796 C   0  0  0  0  0  0  0  0  0  0  0  0
   18.5721   20.3687   24.4715 H   0  0  0  0  0  0  0  0  0  0  0  0
   19.9957   21.3657   24.2396 H   0  0  0  0  0  0  0  0  0  0  0  0
   19.0991   20.6672   22.3913 C   0  0  0  0  0  0  0  0  0  0  0  0
   18.6363   21.6608   22.3166 H   0  0  0  0  0  0  0  0  0  0  0  0
   18.3062   19.9665   22.0998 H   0  0  0  0  0  0  0  0  0  0  0  0
   20.2624   20.6006   21.3692 C   0  0  0  0  0  0  0  0  0  0  0  0
   21.1834   21.0190   21.7969 H   0  0  0  0  0  0  0  0  0  0  0  0
   19.9961   21.2735   20.5425 H   0  0  0  0  0  0  0  0  0  0  0  0
   20.4633   19.0927   25.6039 O   0  0  0  0  0  0  0  0  0  0  0  0
   21.0921   18.3608   25.7761 H   0  0  0  0  0  0  0  0  0  0  0  0
  1  2  1  0  0  0  0
  1  3  1  0  0  0  0
  1  4  1  0  0  0  0
  4  5  1  0  0  0  0
  4  6  1  0  0  0  0
  4  7  1  0  0  0  0
  7  8  1  0  0  0  0
  7  9  1  0  0  0  0
  7 10  1  0  0  0  0
 10 11  1  0  0  0  0
 10 12  1  0  0  0  0
 10 13  1  0  0  0  0
 13 14  1  0  0  0  0
 13 15  1  0  0  0  0
 15 16  1  0  0  0  0
 15 17  1  0  0  0  0
 15 18  1  0  0  0  0
 18 19  1  0  0  0  0
 18 20  1  0  0  0  0
  1 21  1  0  0  0  0
 18 21  1  0  0  0  0
 21 22  1  0  0  0  0
 21 23  1  0  0  0  0
 13 24  1  0  0  0  0
 24 25  1  0  0  0  0
M  END
> <VM2 Rank>
46

> <Conf_Id>
941

> <Probability>
0.54

> <Sum Probability>
91.72

> <Delta G>
1.284

> <G>
63.359

> <E>
30.887

> <-TS>
32.472

> <U+W>
10.320

> <U>
12.311

> <W>
-1.992

> <W(PB)>
-4.137

> <W(SA)>
2.145

> <Valence>
17.914

> <Coulomb>
-8.725

> <VdW>
3.122

> <VdW6>
-12.447

> <VdW12>
15.570

> <Bond>
0.452

> <Angle>
4.377

> <Pdih>
13.085

> <Idih>
0.000

> <Tether>
0.000

$$$$
VeraChem MOL file


 25 25  0  0  0  0  0  0  0  0999 V2000     
   20.4623   19.3508   20.7421 C   0  0  0  0  0  0  0  0  0  0  0  0
   19.4228   19.0389   20.5737 H   0  0  0  0  0  0  0  0  0  0  0  0
   20.8788   19.5203   19.7396 H   0  0  0  0  0  0  0  0  0  0  0  0
   21.2953   18.2057   21.3852 C   0  0  0  0  0  0  0  0  0  0  0  0
   21.6057   17.5419   20.5665 H   0  0  0  0  0  0  0  0  0  0  0  0
   22.2300   18.5882   21.8168 H   0  0  0  0  0  0  0  0  0  0  0  0
   20.5340   17.3257   22.4091 C   0  0  0  0  0  0  0  0  0  0  0  0
   20.9355   16.3050   22.3462 H   0  0  0  0  0  0  0  0  0  0  0  0
   19.4821   17.2317   22.1105 H   0  0  0  0  0  0  0  0  0  0  0  0
   20.6431   17.7671   23.8946 C   0  0  0  0  0  0  0  0  0  0  0  0
   19.9388   17.1674   24.4863 H   0  0  0  0  0  0  0  0  0  0  0  0
   21.6440   17.5096   24.2644 H   0  0  0  0  0  0  0  0  0  0  0  0
   20.4015   19.2638   24.1924 C   0  0  0  0  0  0  0  0  0  0  0  0
   21.2759   19.8235   23.8387 H   0  0  0  0  0  0  0  0  0  0  0  0
   19.1178   19.8281   23.5340 C   0  0  0  0  0  0  0  0  0  0  0  0
   18.5546   19.0300   23.0389 H   0  0  0  0  0  0  0  0  0  0  0  0
   18.4356   20.2088   24.3057 H   0  0  0  0  0  0  0  0  0  0  0  0
   19.3852   20.9641   22.5168 C   0  0  0  0  0  0  0  0  0  0  0  0
   19.6223   21.8849   23.0671 H   0  0  0  0  0  0  0  0  0  0  0  0
   18.4505   21.1700   21.9775 H   0  0  0  0  0  0  0  0  0  0  0  0
   20.5153   20.7111   21.4835 C   0  0  0  0  0  0  0  0  0  0  0  0
   21.5013   20.8471   21.9459 H   0  0  0  0  0  0  0  0  0  0  0  0
   20.4471   21.5095   20.7318 H   0  0  0  0  0  0  0  0  0  0  0  0
   20.3094   19.4267   25.6023 O   0  0  0  0  0  0  0  0  0  0  0  0
   20.2112   20.3882   25.7655 H   0  0  0  0  0  0  0  0  0  0  0  0
  1  2  1  0  0  0  0
  1  3  1  0  0  0  0
  1  4  1  0  0  0  0
  4  5  1  0  0  0  0
  4  6  1  0  0  0  0
  4  7  1  0  0  0  0
  7  8  1  0  0  0  0
  7  9  1  0  0  0  0
  7 10  1  0  0  0  0
 10 11  1  0  0  0  0
 10 12  1  0  0  0  0
 10 13  1  0  0  0  0
 13 14  1  0  0  0  0
 13 15  1  0  0  0  0
 15 16  1  0  0  0  0
 15 17  1  0  0  0  0
 15 18  1  0  0  0  0
 18 19  1  0  0  0  0
 18 20  1  0  0  0  0
  1 21  1  0  0  0  0
 18 21  1  0  0  0  0
 21 22  1  0  0  0  0
 21 23  1  0  0  0  0
 13 24  1  0  0  0  0
 24 25  1  0  0  0  0
M  END
> <VM2 Rank>
47

> <Conf_Id>
670

> <Probability>
0.52

> <Sum Probability>
92.24

> <Delta G>
1.297

> <G>
63.373

> <E>
30.900

> <-TS>
32.472

> <U+W>
10.333

> <U>
12.311

> <W>
-1.978

> <W(PB)>
-4.130

> <W(SA)>
2.152

> <Valence>
17.914

> <Coulomb>
-8.725

> <VdW>
3.122

> <VdW6>
-12.447

> <VdW12>
15.570

> <Bond>
0.452

> <Angle>
4.377

> <Pdih>
13.085

> <Idih>
0.000

> <Tether>
0.000

$$$$
VeraChem MOL file


 25 25  0  0  0  0  0  0  0  0999 V2000     
   20.4624   19.3497   20.7376 C   0  0  0  0  0  0  0  0  0  0  0  0
   19.4225   19.0396   20.5681 H   0  0  0  0  0  0  0  0  0  0  0  0
   20.8803   19.5201   19.7358 H   0  0  0  0  0  0  0  0  0  0  0  0
   21.2927   18.2033   21.3807 C   0  0  0  0  0  0  0  0  0  0  0  0
   21.5974   17.5358   20.5628 H   0  0  0  0  0  0  0  0  0  0  0  0
   22.2302   18.5833   21.8082 H   0  0  0  0  0  0  0  0  0  0  0  0
   20.5302   17.3307   22.4093 C   0  0  0  0  0  0  0  0  0  0  0  0
   20.9240   16.3071   22.3449 H   0  0  0  0  0  0  0  0  0  0  0  0
   19.4760   17.2437   22.1165 H   0  0  0  0  0  0  0  0  0  0  0  0
   20.6519   17.7723   23.8934 C   0  0  0  0  0  0  0  0  0  0  0  0
   19.9552   17.1665   24.4884 H   0  0  0  0  0  0  0  0  0  0  0  0
   21.6579   17.5163   24.2502 H   0  0  0  0  0  0  0  0  0  0  0  0
   20.4029   19.2675   24.1975 C   0  0  0  0  0  0  0  0  0  0  0  0
   21.2738   19.8372   23.8508 H   0  0  0  0  0  0  0  0  0  0  0  0
   19.1194   19.8314   23.5383 C   0  0  0  0  0  0  0  0  0  0  0  0
   18.5476   19.0322   23.0554 H   0  0  0  0  0  0  0  0  0  0  0  0
   18.4482   20.2243   24.3137 H   0  0  0  0  0  0  0  0  0  0  0  0
   19.3846   20.9610   22.5127 C   0  0  0  0  0  0  0  0  0  0  0  0
   19.6196   21.8843   23.0596 H   0  0  0  0  0  0  0  0  0  0  0  0
   18.4496   21.1625   21.9725 H   0  0  0  0  0  0  0  0  0  0  0  0
   20.5167   20.7078   21.4818 C   0  0  0  0  0  0  0  0  0  0  0  0
   21.5017   20.8410   21.9470 H   0  0  0  0  0  0  0  0  0  0  0  0
   20.4517   21.5079   20.7316 H   0  0  0  0  0  0  0  0  0  0  0  0
   20.3033   19.4193   25.6089 O   0  0  0  0  0  0  0  0  0  0  0  0
   21.1465   19.0948   25.9883 H   0  0  0  0  0  0  0  0  0  0  0  0
  1  2  1  0  0  0  0
  1  3  1  0  0  0  0
  1  4  1  0  0  0  0
  4  5  1  0  0  0  0
  4  6  1  0  0  0  0
  4  7  1  0  0  0  0
  7  8  1  0  0  0  0
  7  9  1  0  0  0  0
  7 10  1  0  0  0  0
 10 11  1  0  0  0  0
 10 12  1  0  0  0  0
 10 13  1  0  0  0  0
 13 14  1  0  0  0  0
 13 15  1  0  0  0  0
 15 16  1  0  0  0  0
 15 17  1  0  0  0  0
 15 18  1  0  0  0  0
 18 19  1  0  0  0  0
 18 20  1  0  0  0  0
  1 21  1  0  0  0  0
 18 21  1  0  0  0  0
 21 22  1  0  0  0  0
 21 23  1  0  0  0  0
 13 24  1  0  0  0  0
 24 25  1  0  0  0  0
M  END
> <VM2 Rank>
48

> <Conf_Id>
105

> <Probability>
0.47

> <Sum Probability>
92.71

> <Delta G>
1.367

> <G>
63.442

> <E>
31.043

> <-TS>
32.399

> <U+W>
10.476

> <U>
12.694

> <W>
-2.219

> <W(PB)>
-4.362

> <W(SA)>
2.143

> <Valence>
17.937

> <Coulomb>
-8.339

> <VdW>
3.096

> <VdW6>
-12.392

> <VdW12>
15.489

> <Bond>
0.441

> <Angle>
4.414

> <Pdih>
13.082

> <Idih>
0.000

> <Tether>
0.000

$$$$
VeraChem MOL file


 25 25  0  0  0  0  0  0  0  0999 V2000     
   20.5183   19.2016   20.7378 C   0  0  0  0  0  0  0  0  0  0  0  0
   19.5771   18.6601   20.5732 H   0  0  0  0  0  0  0  0  0  0  0  0
   20.9311   19.3757   19.7345 H   0  0  0  0  0  0  0  0  0  0  0  0
   21.5388   18.3133   21.4932 C   0  0  0  0  0  0  0  0  0  0  0  0
   22.0746   17.7063   20.7504 H   0  0  0  0  0  0  0  0  0  0  0  0
   22.3137   18.9403   21.9524 H   0  0  0  0  0  0  0  0  0  0  0  0
   20.9406   17.3302   22.5345 C   0  0  0  0  0  0  0  0  0  0  0  0
   21.7709   16.8702   23.0876 H   0  0  0  0  0  0  0  0  0  0  0  0
   20.4428   16.5078   22.0029 H   0  0  0  0  0  0  0  0  0  0  0  0
   19.9382   17.9281   23.5522 C   0  0  0  0  0  0  0  0  0  0  0  0
   18.9656   18.0592   23.0666 H   0  0  0  0  0  0  0  0  0  0  0  0
   19.7592   17.1797   24.3359 H   0  0  0  0  0  0  0  0  0  0  0  0
   20.4135   19.2540   24.1972 C   0  0  0  0  0  0  0  0  0  0  0  0
   21.4269   19.4884   23.8491 H   0  0  0  0  0  0  0  0  0  0  0  0
   19.5021   20.4614   23.8784 C   0  0  0  0  0  0  0  0  0  0  0  0
   18.5822   20.3808   24.4731 H   0  0  0  0  0  0  0  0  0  0  0  0
   20.0096   21.3707   24.2257 H   0  0  0  0  0  0  0  0  0  0  0  0
   19.1002   20.6610   22.3914 C   0  0  0  0  0  0  0  0  0  0  0  0
   18.6301   21.6511   22.3153 H   0  0  0  0  0  0  0  0  0  0  0  0
   18.3109   19.9540   22.1056 H   0  0  0  0  0  0  0  0  0  0  0  0
   20.2593   20.6004   21.3649 C   0  0  0  0  0  0  0  0  0  0  0  0
   21.1803   21.0225   21.7890 H   0  0  0  0  0  0  0  0  0  0  0  0
   19.9868   21.2721   20.5391 H   0  0  0  0  0  0  0  0  0  0  0  0
   20.4530   19.0930   25.6105 O   0  0  0  0  0  0  0  0  0  0  0  0
   20.7984   19.9319   25.9809 H   0  0  0  0  0  0  0  0  0  0  0  0
  1  2  1  0  0  0  0
  1  3  1  0  0  0  0
  1  4  1  0  0  0  0
  4  5  1  0  0  0  0
  4  6  1  0  0  0  0
  4  7  1  0  0  0  0
  7  8  1  0  0  0  0
  7  9  1  0  0  0  0
  7 10  1  0  0  0  0
 10 11  1  0  0  0  0
 10 12  1  0  0  0  0
 10 13  1  0  0  0  0
 13 14  1  0  0  0  0
 13 15  1  0  0  0  0
 15 16  1  0  0  0  0
 15 17  1  0  0  0  0
 15 18  1  0  0  0  0
 18 19  1  0  0  0  0
 18 20  1  0  0  0  0
  1 21  1  0  0  0  0
 18 21  1  0  0  0  0
 21 22  1  0  0  0  0
 21 23  1  0  0  0  0
 13 24  1  0  0  0  0
 24 25  1  0  0  0  0
M  END
> <VM2 Rank>
49

> <Conf_Id>
333

> <Probability>
0.46

> <Sum Probability>
93.17

> <Delta G>
1.373

> <G>
63.448

> <E>
31.049

> <-TS>
32.399

> <U+W>
10.482

> <U>
12.694

> <W>
-2.212

> <W(PB)>
-4.351

> <W(SA)>
2.138

> <Valence>
17.937

> <Coulomb>
-8.339

> <VdW>
3.097

> <VdW6>
-12.392

> <VdW12>
15.489

> <Bond>
0.441

> <Angle>
4.414

> <Pdih>
13.082

> <Idih>
0.000

> <Tether>
0.000

$$$$
VeraChem MOL file


 25 25  0  0  0  0  0  0  0  0999 V2000     
   20.5101   19.1575   20.7199 C   0  0  0  0  0  0  0  0  0  0  0  0
   21.4885   19.0597   20.2303 H   0  0  0  0  0  0  0  0  0  0  0  0
   19.7713   19.1552   19.9068 H   0  0  0  0  0  0  0  0  0  0  0  0
   20.2416   17.9027   21.5864 C   0  0  0  0  0  0  0  0  0  0  0  0
   19.2258   17.9346   21.9907 H   0  0  0  0  0  0  0  0  0  0  0  0
   20.2320   17.0381   20.9086 H   0  0  0  0  0  0  0  0  0  0  0  0
   21.2781   17.5936   22.6973 C   0  0  0  0  0  0  0  0  0  0  0  0
   22.2391   17.3601   22.2192 H   0  0  0  0  0  0  0  0  0  0  0  0
   20.9695   16.6651   23.1972 H   0  0  0  0  0  0  0  0  0  0  0  0
   21.5338   18.6713   23.7900 C   0  0  0  0  0  0  0  0  0  0  0  0
   22.1602   18.2007   24.5589 H   0  0  0  0  0  0  0  0  0  0  0  0
   22.1633   19.4718   23.3878 H   0  0  0  0  0  0  0  0  0  0  0  0
   20.3076   19.2841   24.5173 C   0  0  0  0  0  0  0  0  0  0  0  0
   20.6341   19.4979   25.5452 H   0  0  0  0  0  0  0  0  0  0  0  0
   19.8133   20.6412   23.9538 C   0  0  0  0  0  0  0  0  0  0  0  0
   18.9954   20.9849   24.6008 H   0  0  0  0  0  0  0  0  0  0  0  0
   20.6128   21.3824   24.0820 H   0  0  0  0  0  0  0  0  0  0  0  0
   19.3137   20.6946   22.4839 C   0  0  0  0  0  0  0  0  0  0  0  0
   18.8634   21.6860   22.3391 H   0  0  0  0  0  0  0  0  0  0  0  0
   18.4913   19.9884   22.3184 H   0  0  0  0  0  0  0  0  0  0  0  0
   20.4325   20.5383   21.4208 C   0  0  0  0  0  0  0  0  0  0  0  0
   20.2675   21.2900   20.6367 H   0  0  0  0  0  0  0  0  0  0  0  0
   21.4058   20.8044   21.8489 H   0  0  0  0  0  0  0  0  0  0  0  0
   19.2333   18.3597   24.5905 O   0  0  0  0  0  0  0  0  0  0  0  0
   19.1115   18.0482   23.6737 H   0  0  0  0  0  0  0  0  0  0  0  0
  1  2  1  0  0  0  0
  1  3  1  0  0  0  0
  1  4  1  0  0  0  0
  4  5  1  0  0  0  0
  4  6  1  0  0  0  0
  4  7  1  0  0  0  0
  7  8  1  0  0  0  0
  7  9  1  0  0  0  0
  7 10  1  0  0  0  0
 10 11  1  0  0  0  0
 10 12  1  0  0  0  0
 10 13  1  0  0  0  0
 13 14  1  0  0  0  0
 13 15  1  0  0  0  0
 15 16  1  0  0  0  0
 15 17  1  0  0  0  0
 15 18  1  0  0  0  0
 18 19  1  0  0  0  0
 18 20  1  0  0  0  0
  1 21  1  0  0  0  0
 18 21  1  0  0  0  0
 21 22  1  0  0  0  0
 21 23  1  0  0  0  0
 13 24  1  0  0  0  0
 24 25  1  0  0  0  0
M  END
> <VM2 Rank>
50

> <Conf_Id>
703

> <Probability>
0.46

> <Sum Probability>
93.63

> <Delta G>
1.374

> <G>
63.449

> <E>
30.675

> <-TS>
32.774

> <U+W>
10.108

> <U>
11.292

> <W>
-1.184

> <W(PB)>
-3.298

> <W(SA)>
2.114

> <Valence>
18.277

> <Coulomb>
-9.503

> <VdW>
2.518

> <VdW6>
-13.881

> <VdW12>
16.398

> <Bond>
0.507

> <Angle>
7.441

> <Pdih>
10.329

> <Idih>
0.000

> <Tether>
0.000

$$$$
VeraChem MOL file


 25 25  0  0  0  0  0  0  0  0999 V2000     
   20.4138   19.3581   20.7174 C   0  0  0  0  0  0  0  0  0  0  0  0
   19.9182   18.7992   19.9118 H   0  0  0  0  0  0  0  0  0  0  0  0
   21.0019   20.1390   20.2167 H   0  0  0  0  0  0  0  0  0  0  0  0
   21.3801   18.3837   21.4391 C   0  0  0  0  0  0  0  0  0  0  0  0
   22.2301   18.9318   21.8613 H   0  0  0  0  0  0  0  0  0  0  0  0
   21.8282   17.7424   20.6678 H   0  0  0  0  0  0  0  0  0  0  0  0
   20.7384   17.4694   22.5156 C   0  0  0  0  0  0  0  0  0  0  0  0
   21.1693   16.4668   22.3897 H   0  0  0  0  0  0  0  0  0  0  0  0
   19.6633   17.3335   22.3479 H   0  0  0  0  0  0  0  0  0  0  0  0
   21.0292   17.9001   23.9794 C   0  0  0  0  0  0  0  0  0  0  0  0
   20.7304   17.0751   24.6395 H   0  0  0  0  0  0  0  0  0  0  0  0
   22.1149   17.9949   24.1104 H   0  0  0  0  0  0  0  0  0  0  0  0
   20.3558   19.1884   24.5181 C   0  0  0  0  0  0  0  0  0  0  0  0
   20.7295   19.3038   25.5457 H   0  0  0  0  0  0  0  0  0  0  0  0
   20.7307   20.4952   23.7697 C   0  0  0  0  0  0  0  0  0  0  0  0
   20.8010   21.2883   24.5254 H   0  0  0  0  0  0  0  0  0  0  0  0
   21.7480   20.4152   23.3729 H   0  0  0  0  0  0  0  0  0  0  0  0
   19.7659   21.0124   22.6640 C   0  0  0  0  0  0  0  0  0  0  0  0
   20.2418   21.8720   22.1730 H   0  0  0  0  0  0  0  0  0  0  0  0
   18.8694   21.4175   23.1534 H   0  0  0  0  0  0  0  0  0  0  0  0
   19.3014   20.0187   21.5682 C   0  0  0  0  0  0  0  0  0  0  0  0
   18.6583   20.5816   20.8779 H   0  0  0  0  0  0  0  0  0  0  0  0
   18.6398   19.2529   21.9830 H   0  0  0  0  0  0  0  0  0  0  0  0
   18.9488   19.0171   24.5885 O   0  0  0  0  0  0  0  0  0  0  0  0
   18.6401   19.1209   23.6686 H   0  0  0  0  0  0  0  0  0  0  0  0
  1  2  1  0  0  0  0
  1  3  1  0  0  0  0
  1  4  1  0  0  0  0
  4  5  1  0  0  0  0
  4  6  1  0  0  0  0
  4  7  1  0  0  0  0
  7  8  1  0  0  0  0
  7  9  1  0  0  0  0
  7 10  1  0  0  0  0
 10 11  1  0  0  0  0
 10 12  1  0  0  0  0
 10 13  1  0  0  0  0
 13 14  1  0  0  0  0
 13 15  1  0  0  0  0
 15 16  1  0  0  0  0
 15 17  1  0  0  0  0
 15 18  1  0  0  0  0
 18 19  1  0  0  0  0
 18 20  1  0  0  0  0
  1 21  1  0  0  0  0
 18 21  1  0  0  0  0
 21 22  1  0  0  0  0
 21 23  1  0  0  0  0
 13 24  1  0  0  0  0
 24 25  1  0  0  0  0
M  END
> <VM2 Rank>
51

> <Conf_Id>
1610

> <Probability>
0.44

> <Sum Probability>
94.08

> <Delta G>
1.398

> <G>
63.473

> <E>
30.700

> <-TS>
32.774

> <U+W>
10.132

> <U>
11.292

> <W>
-1.159

> <W(PB)>
-3.281

> <W(SA)>
2.122

> <Valence>
18.277

> <Coulomb>
-9.503

> <VdW>
2.517

> <VdW6>
-13.881

> <VdW12>
16.398

> <Bond>
0.507

> <Angle>
7.441

> <Pdih>
10.329

> <Idih>
0.000

> <Tether>
0.000

$$$$
VeraChem MOL file


 25 25  0  0  0  0  0  0  0  0999 V2000     
   20.4619   19.3497   20.7383 C   0  0  0  0  0  0  0  0  0  0  0  0
   19.4218   19.0399   20.5696 H   0  0  0  0  0  0  0  0  0  0  0  0
   20.8791   19.5203   19.7363 H   0  0  0  0  0  0  0  0  0  0  0  0
   21.2926   18.2032   21.3805 C   0  0  0  0  0  0  0  0  0  0  0  0
   21.5972   17.5361   20.5622 H   0  0  0  0  0  0  0  0  0  0  0  0
   22.2302   18.5831   21.8080 H   0  0  0  0  0  0  0  0  0  0  0  0
   20.5310   17.3300   22.4091 C   0  0  0  0  0  0  0  0  0  0  0  0
   20.9265   16.3069   22.3451 H   0  0  0  0  0  0  0  0  0  0  0  0
   19.4771   17.2414   22.1160 H   0  0  0  0  0  0  0  0  0  0  0  0
   20.6519   17.7719   23.8932 C   0  0  0  0  0  0  0  0  0  0  0  0
   19.9607   17.1603   24.4878 H   0  0  0  0  0  0  0  0  0  0  0  0
   21.6596   17.5227   24.2508 H   0  0  0  0  0  0  0  0  0  0  0  0
   20.4008   19.2667   24.1972 C   0  0  0  0  0  0  0  0  0  0  0  0
   21.2728   19.8353   23.8522 H   0  0  0  0  0  0  0  0  0  0  0  0
   19.1176   19.8320   23.5379 C   0  0  0  0  0  0  0  0  0  0  0  0
   18.5469   19.0338   23.0512 H   0  0  0  0  0  0  0  0  0  0  0  0
   18.4437   20.2276   24.3095 H   0  0  0  0  0  0  0  0  0  0  0  0
   19.3854   20.9617   22.5134 C   0  0  0  0  0  0  0  0  0  0  0  0
   19.6218   21.8844   23.0609 H   0  0  0  0  0  0  0  0  0  0  0  0
   18.4511   21.1653   21.9726 H   0  0  0  0  0  0  0  0  0  0  0  0
   20.5176   20.7075   21.4829 C   0  0  0  0  0  0  0  0  0  0  0  0
   20.4540   21.5079   20.7330 H   0  0  0  0  0  0  0  0  0  0  0  0
   21.5025   20.8393   21.9489 H   0  0  0  0  0  0  0  0  0  0  0  0
   20.3052   19.4205   25.6076 O   0  0  0  0  0  0  0  0  0  0  0  0
   19.5224   18.9047   25.8902 H   0  0  0  0  0  0  0  0  0  0  0  0
  1  2  1  0  0  0  0
  1  3  1  0  0  0  0
  1  4  1  0  0  0  0
  4  5  1  0  0  0  0
  4  6  1  0  0  0  0
  4  7  1  0  0  0  0
  7  8  1  0  0  0  0
  7  9  1  0  0  0  0
  7 10  1  0  0  0  0
 10 11  1  0  0  0  0
 10 12  1  0  0  0  0
 10 13  1  0  0  0  0
 13 14  1  0  0  0  0
 13 15  1  0  0  0  0
 15 16  1  0  0  0  0
 15 17  1  0  0  0  0
 15 18  1  0  0  0  0
 18 19  1  0  0  0  0
 18 20  1  0  0  0  0
  1 21  1  0  0  0  0
 18 21  1  0  0  0  0
 21 22  1  0  0  0  0
 21 23  1  0  0  0  0
 13 24  1  0  0  0  0
 24 25  1  0  0  0  0
M  END
> <VM2 Rank>
52

> <Conf_Id>
1546

> <Probability>
0.38

> <Sum Probability>
94.45

> <Delta G>
1.493

> <G>
63.569

> <E>
31.181

> <-TS>
32.388

> <U+W>
10.613

> <U>
12.707

> <W>
-2.094

> <W(PB)>
-4.240

> <W(SA)>
2.146

> <Valence>
18.320

> <Coulomb>
-8.639

> <VdW>
3.026

> <VdW6>
-12.424

> <VdW12>
15.450

> <Bond>
0.436

> <Angle>
4.453

> <Pdih>
13.430

> <Idih>
0.000

> <Tether>
0.000

$$$$
VeraChem MOL file


 25 25  0  0  0  0  0  0  0  0999 V2000     
   20.5181   19.2012   20.7385 C   0  0  0  0  0  0  0  0  0  0  0  0
   19.5769   18.6594   20.5746 H   0  0  0  0  0  0  0  0  0  0  0  0
   20.9304   19.3747   19.7350 H   0  0  0  0  0  0  0  0  0  0  0  0
   21.5391   18.3141   21.4944 C   0  0  0  0  0  0  0  0  0  0  0  0
   22.0762   17.7079   20.7519 H   0  0  0  0  0  0  0  0  0  0  0  0
   22.3130   18.9420   21.9543 H   0  0  0  0  0  0  0  0  0  0  0  0
   20.9416   17.3302   22.5352 C   0  0  0  0  0  0  0  0  0  0  0  0
   21.7723   16.8717   23.0890 H   0  0  0  0  0  0  0  0  0  0  0  0
   20.4458   16.5070   22.0030 H   0  0  0  0  0  0  0  0  0  0  0  0
   19.9372   17.9264   23.5518 C   0  0  0  0  0  0  0  0  0  0  0  0
   18.9662   18.0576   23.0624 H   0  0  0  0  0  0  0  0  0  0  0  0
   19.7584   17.1742   24.3317 H   0  0  0  0  0  0  0  0  0  0  0  0
   20.4114   19.2530   24.1968 C   0  0  0  0  0  0  0  0  0  0  0  0
   21.4248   19.4890   23.8504 H   0  0  0  0  0  0  0  0  0  0  0  0
   19.5019   20.4618   23.8781 C   0  0  0  0  0  0  0  0  0  0  0  0
   18.5816   20.3892   24.4725 H   0  0  0  0  0  0  0  0  0  0  0  0
   20.0154   21.3676   24.2263 H   0  0  0  0  0  0  0  0  0  0  0  0
   19.1003   20.6622   22.3913 C   0  0  0  0  0  0  0  0  0  0  0  0
   18.6318   21.6530   22.3155 H   0  0  0  0  0  0  0  0  0  0  0  0
   18.3100   19.9564   22.1050 H   0  0  0  0  0  0  0  0  0  0  0  0
   20.2592   20.6005   21.3647 C   0  0  0  0  0  0  0  0  0  0  0  0
   21.1802   21.0226   21.7888 H   0  0  0  0  0  0  0  0  0  0  0  0
   19.9870   21.2718   20.5385 H   0  0  0  0  0  0  0  0  0  0  0  0
   20.4552   19.0936   25.6091 O   0  0  0  0  0  0  0  0  0  0  0  0
   19.5417   18.8850   25.8930 H   0  0  0  0  0  0  0  0  0  0  0  0
  1  2  1  0  0  0  0
  1  3  1  0  0  0  0
  1  4  1  0  0  0  0
  4  5  1  0  0  0  0
  4  6  1  0  0  0  0
  4  7  1  0  0  0  0
  7  8  1  0  0  0  0
  7  9  1  0  0  0  0
  7 10  1  0  0  0  0
 10 11  1  0  0  0  0
 10 12  1  0  0  0  0
 10 13  1  0  0  0  0
 13 14  1  0  0  0  0
 13 15  1  0  0  0  0
 15 16  1  0  0  0  0
 15 17  1  0  0  0  0
 15 18  1  0  0  0  0
 18 19  1  0  0  0  0
 18 20  1  0  0  0  0
  1 21  1  0  0  0  0
 18 21  1  0  0  0  0
 21 22  1  0  0  0  0
 21 23  1  0  0  0  0
 13 24  1  0  0  0  0
 24 25  1  0  0  0  0
M  END
> <VM2 Rank>
53

> <Conf_Id>
348

> <Probability>
0.37

> <Sum Probability>
94.83

> <Delta G>
1.500

> <G>
63.576

> <E>
31.187

> <-TS>
32.388

> <U+W>
10.620

> <U>
12.707

> <W>
-2.087

> <W(PB)>
-4.226

> <W(SA)>
2.139

> <Valence>
18.320

> <Coulomb>
-8.639

> <VdW>
3.026

> <VdW6>
-12.424

> <VdW12>
15.450

> <Bond>
0.436

> <Angle>
4.453

> <Pdih>
13.431

> <Idih>
0.000

> <Tether>
0.000

$$$$
VeraChem MOL file


 25 25  0  0  0  0  0  0  0  0999 V2000     
   20.9471   19.3950   20.7688 C   0  0  0  0  0  0  0  0  0  0  0  0
   21.8689   19.8561   21.1456 H   0  0  0  0  0  0  0  0  0  0  0  0
   21.0447   19.4278   19.6750 H   0  0  0  0  0  0  0  0  0  0  0  0
   20.8796   17.8984   21.1731 C   0  0  0  0  0  0  0  0  0  0  0  0
   20.1607   17.3861   20.5193 H   0  0  0  0  0  0  0  0  0  0  0  0
   21.8557   17.4421   20.9590 H   0  0  0  0  0  0  0  0  0  0  0  0
   20.5005   17.5943   22.6423 C   0  0  0  0  0  0  0  0  0  0  0  0
   20.6978   16.5308   22.8339 H   0  0  0  0  0  0  0  0  0  0  0  0
   19.4176   17.7069   22.7676 H   0  0  0  0  0  0  0  0  0  0  0  0
   21.2787   18.4420   23.6840 C   0  0  0  0  0  0  0  0  0  0  0  0
   21.8089   17.7646   24.3668 H   0  0  0  0  0  0  0  0  0  0  0  0
   22.0739   19.0206   23.2019 H   0  0  0  0  0  0  0  0  0  0  0  0
   20.4052   19.3968   24.5304 C   0  0  0  0  0  0  0  0  0  0  0  0
   21.0817   20.0997   25.0372 H   0  0  0  0  0  0  0  0  0  0  0  0
   19.3461   20.2266   23.7613 C   0  0  0  0  0  0  0  0  0  0  0  0
   18.4868   19.6045   23.4827 H   0  0  0  0  0  0  0  0  0  0  0  0
   18.9455   20.9588   24.4748 H   0  0  0  0  0  0  0  0  0  0  0  0
   19.8547   21.0069   22.5216 C   0  0  0  0  0  0  0  0  0  0  0  0
   20.8812   21.3643   22.6795 H   0  0  0  0  0  0  0  0  0  0  0  0
   19.2404   21.9145   22.4433 H   0  0  0  0  0  0  0  0  0  0  0  0
   19.7237   20.2582   21.1660 C   0  0  0  0  0  0  0  0  0  0  0  0
   18.7992   19.6667   21.1266 H   0  0  0  0  0  0  0  0  0  0  0  0
   19.6103   21.0262   20.3885 H   0  0  0  0  0  0  0  0  0  0  0  0
   19.7285   18.6248   25.5124 O   0  0  0  0  0  0  0  0  0  0  0  0
   19.2492   17.9270   25.0212 H   0  0  0  0  0  0  0  0  0  0  0  0
  1  2  1  0  0  0  0
  1  3  1  0  0  0  0
  1  4  1  0  0  0  0
  4  5  1  0  0  0  0
  4  6  1  0  0  0  0
  4  7  1  0  0  0  0
  7  8  1  0  0  0  0
  7  9  1  0  0  0  0
  7 10  1  0  0  0  0
 10 11  1  0  0  0  0
 10 12  1  0  0  0  0
 10 13  1  0  0  0  0
 13 14  1  0  0  0  0
 13 15  1  0  0  0  0
 15 16  1  0  0  0  0
 15 17  1  0  0  0  0
 15 18  1  0  0  0  0
 18 19  1  0  0  0  0
 18 20  1  0  0  0  0
  1 21  1  0  0  0  0
 18 21  1  0  0  0  0
 21 22  1  0  0  0  0
 21 23  1  0  0  0  0
 13 24  1  0  0  0  0
 24 25  1  0  0  0  0
M  END
> <VM2 Rank>
54

> <Conf_Id>
699

> <Probability>
0.29

> <Sum Probability>
95.12

> <Delta G>
1.650

> <G>
63.726

> <E>
31.413

> <-TS>
32.313

> <U+W>
10.845

> <U>
12.433

> <W>
-1.588

> <W(PB)>
-3.713

> <W(SA)>
2.126

> <Valence>
19.007

> <Coulomb>
-9.373

> <VdW>
2.799

> <VdW6>
-12.597

> <VdW12>
15.396

> <Bond>
0.425

> <Angle>
4.785

> <Pdih>
13.798

> <Idih>
0.000

> <Tether>
0.000

$$$$
VeraChem MOL file


 25 25  0  0  0  0  0  0  0  0999 V2000     
   19.8912   19.0033   20.7942 C   0  0  0  0  0  0  0  0  0  0  0  0
   19.7606   19.0284   19.7037 H   0  0  0  0  0  0  0  0  0  0  0  0
   18.9390   18.6189   21.1811 H   0  0  0  0  0  0  0  0  0  0  0  0
   21.0436   18.0075   21.0897 C   0  0  0  0  0  0  0  0  0  0  0  0
   20.7043   17.0009   20.8097 H   0  0  0  0  0  0  0  0  0  0  0  0
   21.8880   18.2337   20.4244 H   0  0  0  0  0  0  0  0  0  0  0  0
   21.5697   17.9664   22.5446 C   0  0  0  0  0  0  0  0  0  0  0  0
   22.2381   18.8181   22.7171 H   0  0  0  0  0  0  0  0  0  0  0  0
   22.2110   17.0808   22.6502 H   0  0  0  0  0  0  0  0  0  0  0  0
   20.4544   17.9052   23.6206 C   0  0  0  0  0  0  0  0  0  0  0  0
   19.4745   17.7401   23.1593 H   0  0  0  0  0  0  0  0  0  0  0  0
   20.6245   17.0195   24.2465 H   0  0  0  0  0  0  0  0  0  0  0  0
   20.3992   19.1340   24.5574 C   0  0  0  0  0  0  0  0  0  0  0  0
   21.2514   19.0635   25.2485 H   0  0  0  0  0  0  0  0  0  0  0  0
   20.4758   20.5264   23.8794 C   0  0  0  0  0  0  0  0  0  0  0  0
   20.2535   21.2727   24.6540 H   0  0  0  0  0  0  0  0  0  0  0  0
   21.5088   20.7420   23.5808 H   0  0  0  0  0  0  0  0  0  0  0  0
   19.5210   20.7793   22.6822 C   0  0  0  0  0  0  0  0  0  0  0  0
   19.2861   21.8526   22.6861 H   0  0  0  0  0  0  0  0  0  0  0  0
   18.5582   20.2729   22.8286 H   0  0  0  0  0  0  0  0  0  0  0  0
   20.1132   20.4562   21.2826 C   0  0  0  0  0  0  0  0  0  0  0  0
   21.1758   20.7284   21.2281 H   0  0  0  0  0  0  0  0  0  0  0  0
   19.6074   21.1150   20.5634 H   0  0  0  0  0  0  0  0  0  0  0  0
   19.1958   19.0647   25.3093 O   0  0  0  0  0  0  0  0  0  0  0  0
   18.4719   19.2262   24.6714 H   0  0  0  0  0  0  0  0  0  0  0  0
  1  2  1  0  0  0  0
  1  3  1  0  0  0  0
  1  4  1  0  0  0  0
  4  5  1  0  0  0  0
  4  6  1  0  0  0  0
  4  7  1  0  0  0  0
  7  8  1  0  0  0  0
  7  9  1  0  0  0  0
  7 10  1  0  0  0  0
 10 11  1  0  0  0  0
 10 12  1  0  0  0  0
 10 13  1  0  0  0  0
 13 14  1  0  0  0  0
 13 15  1  0  0  0  0
 15 16  1  0  0  0  0
 15 17  1  0  0  0  0
 15 18  1  0  0  0  0
 18 19  1  0  0  0  0
 18 20  1  0  0  0  0
  1 21  1  0  0  0  0
 18 21  1  0  0  0  0
 21 22  1  0  0  0  0
 21 23  1  0  0  0  0
 13 24  1  0  0  0  0
 24 25  1  0  0  0  0
M  END
> <VM2 Rank>
55

> <Conf_Id>
686

> <Probability>
0.26

> <Sum Probability>
95.37

> <Delta G>
1.717

> <G>
63.792

> <E>
31.518

> <-TS>
32.274

> <U+W>
10.950

> <U>
12.526

> <W>
-1.576

> <W(PB)>
-3.699

> <W(SA)>
2.123

> <Valence>
19.016

> <Coulomb>
-9.226

> <VdW>
2.737

> <VdW6>
-12.612

> <VdW12>
15.349

> <Bond>
0.421

> <Angle>
4.883

> <Pdih>
13.711

> <Idih>
0.000

> <Tether>
0.000

$$$$
VeraChem MOL file


 25 25  0  0  0  0  0  0  0  0999 V2000     
   19.8515   19.0525   20.7982 C   0  0  0  0  0  0  0  0  0  0  0  0
   18.9088   18.6539   21.1939 H   0  0  0  0  0  0  0  0  0  0  0  0
   19.7685   18.9377   19.7087 H   0  0  0  0  0  0  0  0  0  0  0  0
   21.0383   18.1828   21.2814 C   0  0  0  0  0  0  0  0  0  0  0  0
   21.1400   17.3560   20.5650 H   0  0  0  0  0  0  0  0  0  0  0  0
   21.9824   18.7402   21.2174 H   0  0  0  0  0  0  0  0  0  0  0  0
   20.8578   17.5419   22.6852 C   0  0  0  0  0  0  0  0  0  0  0  0
   21.4495   16.6162   22.6887 H   0  0  0  0  0  0  0  0  0  0  0  0
   19.8197   17.2212   22.8409 H   0  0  0  0  0  0  0  0  0  0  0  0
   21.3644   18.4005   23.8749 C   0  0  0  0  0  0  0  0  0  0  0  0
   21.7398   17.7185   24.6496 H   0  0  0  0  0  0  0  0  0  0  0  0
   22.2456   18.9760   23.5671 H   0  0  0  0  0  0  0  0  0  0  0  0
   20.3320   19.3353   24.5566 C   0  0  0  0  0  0  0  0  0  0  0  0
   20.8908   19.9900   25.2406 H   0  0  0  0  0  0  0  0  0  0  0  0
   19.4962   20.2400   23.6222 C   0  0  0  0  0  0  0  0  0  0  0  0
   18.6823   19.6629   23.1695 H   0  0  0  0  0  0  0  0  0  0  0  0
   18.9957   20.9900   24.2486 H   0  0  0  0  0  0  0  0  0  0  0  0
   20.3208   20.9796   22.5366 C   0  0  0  0  0  0  0  0  0  0  0  0
   21.3967   20.8493   22.7015 H   0  0  0  0  0  0  0  0  0  0  0  0
   20.1502   22.0600   22.6388 H   0  0  0  0  0  0  0  0  0  0  0  0
   19.9663   20.5726   21.0861 C   0  0  0  0  0  0  0  0  0  0  0  0
   19.0131   21.0445   20.8112 H   0  0  0  0  0  0  0  0  0  0  0  0
   20.7188   21.0059   20.4132 H   0  0  0  0  0  0  0  0  0  0  0  0
   19.4368   18.5378   25.3190 O   0  0  0  0  0  0  0  0  0  0  0  0
   19.0336   17.9093   24.6869 H   0  0  0  0  0  0  0  0  0  0  0  0
  1  2  1  0  0  0  0
  1  3  1  0  0  0  0
  1  4  1  0  0  0  0
  4  5  1  0  0  0  0
  4  6  1  0  0  0  0
  4  7  1  0  0  0  0
  7  8  1  0  0  0  0
  7  9  1  0  0  0  0
  7 10  1  0  0  0  0
 10 11  1  0  0  0  0
 10 12  1  0  0  0  0
 10 13  1  0  0  0  0
 13 14  1  0  0  0  0
 13 15  1  0  0  0  0
 15 16  1  0  0  0  0
 15 17  1  0  0  0  0
 15 18  1  0  0  0  0
 18 19  1  0  0  0  0
 18 20  1  0  0  0  0
  1 21  1  0  0  0  0
 18 21  1  0  0  0  0
 21 22  1  0  0  0  0
 21 23  1  0  0  0  0
 13 24  1  0  0  0  0
 24 25  1  0  0  0  0
M  END
> <VM2 Rank>
56

> <Conf_Id>
615

> <Probability>
0.26

> <Sum Probability>
95.63

> <Delta G>
1.725

> <G>
63.800

> <E>
31.526

> <-TS>
32.274

> <U+W>
10.958

> <U>
12.527

> <W>
-1.568

> <W(PB)>
-3.703

> <W(SA)>
2.135

> <Valence>
19.016

> <Coulomb>
-9.226

> <VdW>
2.737

> <VdW6>
-12.612

> <VdW12>
15.349

> <Bond>
0.421

> <Angle>
4.883

> <Pdih>
13.712

> <Idih>
0.000

> <Tether>
0.000

$$$$
VeraChem MOL file


 25 25  0  0  0  0  0  0  0  0999 V2000     
   20.9244   19.5418   20.7804 C   0  0  0  0  0  0  0  0  0  0  0  0
   21.0342   19.5934   19.6885 H   0  0  0  0  0  0  0  0  0  0  0  0
   21.8959   19.8659   21.1745 H   0  0  0  0  0  0  0  0  0  0  0  0
   20.6640   18.0642   21.1657 C   0  0  0  0  0  0  0  0  0  0  0  0
   19.5928   17.8286   21.1078 H   0  0  0  0  0  0  0  0  0  0  0  0
   21.1395   17.4451   20.3925 H   0  0  0  0  0  0  0  0  0  0  0  0
   21.2643   17.6205   22.5289 C   0  0  0  0  0  0  0  0  0  0  0  0
   22.2399   18.0931   22.7050 H   0  0  0  0  0  0  0  0  0  0  0  0
   21.4732   16.5449   22.4483 H   0  0  0  0  0  0  0  0  0  0  0  0
   20.3329   17.8058   23.7547 C   0  0  0  0  0  0  0  0  0  0  0  0
   19.2901   17.6394   23.4584 H   0  0  0  0  0  0  0  0  0  0  0  0
   20.5562   17.0012   24.4677 H   0  0  0  0  0  0  0  0  0  0  0  0
   20.4821   19.1376   24.5333 C   0  0  0  0  0  0  0  0  0  0  0  0
   21.4492   19.1165   25.0556 H   0  0  0  0  0  0  0  0  0  0  0  0
   20.4377   20.4347   23.6929 C   0  0  0  0  0  0  0  0  0  0  0  0
   20.3225   21.2850   24.3783 H   0  0  0  0  0  0  0  0  0  0  0  0
   21.4168   20.5907   23.2273 H   0  0  0  0  0  0  0  0  0  0  0  0
   19.3051   20.4890   22.6330 C   0  0  0  0  0  0  0  0  0  0  0  0
   18.6892   21.3793   22.8194 H   0  0  0  0  0  0  0  0  0  0  0  0
   18.6173   19.6428   22.7429 H   0  0  0  0  0  0  0  0  0  0  0  0
   19.8117   20.5498   21.1721 C   0  0  0  0  0  0  0  0  0  0  0  0
   18.9518   20.4069   20.5036 H   0  0  0  0  0  0  0  0  0  0  0  0
   20.1823   21.5639   20.9692 H   0  0  0  0  0  0  0  0  0  0  0  0
   19.4419   19.1995   25.4990 O   0  0  0  0  0  0  0  0  0  0  0  0
   18.6176   19.3565   24.9952 H   0  0  0  0  0  0  0  0  0  0  0  0
  1  2  1  0  0  0  0
  1  3  1  0  0  0  0
  1  4  1  0  0  0  0
  4  5  1  0  0  0  0
  4  6  1  0  0  0  0
  4  7  1  0  0  0  0
  7  8  1  0  0  0  0
  7  9  1  0  0  0  0
  7 10  1  0  0  0  0
 10 11  1  0  0  0  0
 10 12  1  0  0  0  0
 10 13  1  0  0  0  0
 13 14  1  0  0  0  0
 13 15  1  0  0  0  0
 15 16  1  0  0  0  0
 15 17  1  0  0  0  0
 15 18  1  0  0  0  0
 18 19  1  0  0  0  0
 18 20  1  0  0  0  0
  1 21  1  0  0  0  0
 18 21  1  0  0  0  0
 21 22  1  0  0  0  0
 21 23  1  0  0  0  0
 13 24  1  0  0  0  0
 24 25  1  0  0  0  0
M  END
> <VM2 Rank>
57

> <Conf_Id>
1483

> <Probability>
0.26

> <Sum Probability>
95.88

> <Delta G>
1.726

> <G>
63.802

> <E>
31.489

> <-TS>
32.313

> <U+W>
10.922

> <U>
12.433

> <W>
-1.511

> <W(PB)>
-3.669

> <W(SA)>
2.157

> <Valence>
19.007

> <Coulomb>
-9.373

> <VdW>
2.799

> <VdW6>
-12.597

> <VdW12>
15.396

> <Bond>
0.425

> <Angle>
4.785

> <Pdih>
13.798

> <Idih>
0.000

> <Tether>
0.000

$$$$
VeraChem MOL file


 25 25  0  0  0  0  0  0  0  0999 V2000     
   19.6608   18.8815   21.1202 C   0  0  0  0  0  0  0  0  0  0  0  0
   18.8771   18.3415   21.6606 H   0  0  0  0  0  0  0  0  0  0  0  0
   19.3885   18.7430   20.0646 H   0  0  0  0  0  0  0  0  0  0  0  0
   21.0395   18.2088   21.3386 C   0  0  0  0  0  0  0  0  0  0  0  0
   21.1388   17.4237   20.5763 H   0  0  0  0  0  0  0  0  0  0  0  0
   21.8615   18.9058   21.1324 H   0  0  0  0  0  0  0  0  0  0  0  0
   21.2270   17.5165   22.7135 C   0  0  0  0  0  0  0  0  0  0  0  0
   22.1244   16.8878   22.6348 H   0  0  0  0  0  0  0  0  0  0  0  0
   20.4044   16.8107   22.8910 H   0  0  0  0  0  0  0  0  0  0  0  0
   21.4262   18.4339   23.9553 C   0  0  0  0  0  0  0  0  0  0  0  0
   21.7560   17.7843   24.7765 H   0  0  0  0  0  0  0  0  0  0  0  0
   22.2672   19.1178   23.7878 H   0  0  0  0  0  0  0  0  0  0  0  0
   20.1957   19.2185   24.4861 C   0  0  0  0  0  0  0  0  0  0  0  0
   20.3197   19.2963   25.5760 H   0  0  0  0  0  0  0  0  0  0  0  0
   20.0554   20.6743   23.9778 C   0  0  0  0  0  0  0  0  0  0  0  0
   19.0243   21.0160   24.1391 H   0  0  0  0  0  0  0  0  0  0  0  0
   20.6722   21.3016   24.6344 H   0  0  0  0  0  0  0  0  0  0  0  0
   20.4806   20.9904   22.5211 C   0  0  0  0  0  0  0  0  0  0  0  0
   21.5335   20.7346   22.3593 H   0  0  0  0  0  0  0  0  0  0  0  0
   20.4480   22.0834   22.4146 H   0  0  0  0  0  0  0  0  0  0  0  0
   19.5883   20.4068   21.3967 C   0  0  0  0  0  0  0  0  0  0  0  0
   18.5424   20.6939   21.5710 H   0  0  0  0  0  0  0  0  0  0  0  0
   19.8784   20.9170   20.4678 H   0  0  0  0  0  0  0  0  0  0  0  0
   18.9906   18.5123   24.2508 O   0  0  0  0  0  0  0  0  0  0  0  0
   18.9307   18.4697   23.2781 H   0  0  0  0  0  0  0  0  0  0  0  0
  1  2  1  0  0  0  0
  1  3  1  0  0  0  0
  1  4  1  0  0  0  0
  4  5  1  0  0  0  0
  4  6  1  0  0  0  0
  4  7  1  0  0  0  0
  7  8  1  0  0  0  0
  7  9  1  0  0  0  0
  7 10  1  0  0  0  0
 10 11  1  0  0  0  0
 10 12  1  0  0  0  0
 10 13  1  0  0  0  0
 13 14  1  0  0  0  0
 13 15  1  0  0  0  0
 15 16  1  0  0  0  0
 15 17  1  0  0  0  0
 15 18  1  0  0  0  0
 18 19  1  0  0  0  0
 18 20  1  0  0  0  0
  1 21  1  0  0  0  0
 18 21  1  0  0  0  0
 21 22  1  0  0  0  0
 21 23  1  0  0  0  0
 13 24  1  0  0  0  0
 24 25  1  0  0  0  0
M  END
> <VM2 Rank>
58

> <Conf_Id>
908

> <Probability>
0.19

> <Sum Probability>
96.08

> <Delta G>
1.899

> <G>
63.974

> <E>
31.774

> <-TS>
32.200

> <U+W>
11.207

> <U>
12.093

> <W>
-0.886

> <W(PB)>
-2.996

> <W(SA)>
2.110

> <Valence>
19.646

> <Coulomb>
-9.930

> <VdW>
2.377

> <VdW6>
-13.909

> <VdW12>
16.287

> <Bond>
0.498

> <Angle>
8.148

> <Pdih>
11.000

> <Idih>
0.000

> <Tether>
0.000

$$$$
VeraChem MOL file


 25 25  0  0  0  0  0  0  0  0999 V2000     
   20.8691   19.4383   20.6005 C   0  0  0  0  0  0  0  0  0  0  0  0
   20.5543   18.9204   19.6842 H   0  0  0  0  0  0  0  0  0  0  0  0
   21.6684   20.1262   20.2927 H   0  0  0  0  0  0  0  0  0  0  0  0
   21.4746   18.3948   21.5713 C   0  0  0  0  0  0  0  0  0  0  0  0
   22.1451   18.8958   22.2790 H   0  0  0  0  0  0  0  0  0  0  0  0
   22.1301   17.7322   20.9898 H   0  0  0  0  0  0  0  0  0  0  0  0
   20.4270   17.5269   22.3137 C   0  0  0  0  0  0  0  0  0  0  0  0
   20.6466   16.4678   22.1220 H   0  0  0  0  0  0  0  0  0  0  0  0
   19.4233   17.6834   21.9017 H   0  0  0  0  0  0  0  0  0  0  0  0
   20.4012   17.7419   23.8482 C   0  0  0  0  0  0  0  0  0  0  0  0
   19.5153   17.2358   24.2543 H   0  0  0  0  0  0  0  0  0  0  0  0
   21.2679   17.2292   24.2853 H   0  0  0  0  0  0  0  0  0  0  0  0
   20.4202   19.2075   24.3499 C   0  0  0  0  0  0  0  0  0  0  0  0
   21.4138   19.6387   24.1690 H   0  0  0  0  0  0  0  0  0  0  0  0
   19.3554   20.1341   23.7136 C   0  0  0  0  0  0  0  0  0  0  0  0
   18.4536   19.5619   23.4611 H   0  0  0  0  0  0  0  0  0  0  0  0
   19.0355   20.8590   24.4740 H   0  0  0  0  0  0  0  0  0  0  0  0
   19.8497   20.9578   22.4909 C   0  0  0  0  0  0  0  0  0  0  0  0
   20.8897   21.2845   22.6255 H   0  0  0  0  0  0  0  0  0  0  0  0
   19.2550   21.8814   22.4672 H   0  0  0  0  0  0  0  0  0  0  0  0
   19.6637   20.2686   21.1164 C   0  0  0  0  0  0  0  0  0  0  0  0
   18.7503   19.6603   21.1227 H   0  0  0  0  0  0  0  0  0  0  0  0
   19.4722   21.0515   20.3698 H   0  0  0  0  0  0  0  0  0  0  0  0
   20.2033   19.1730   25.7556 O   0  0  0  0  0  0  0  0  0  0  0  0
   20.2962   20.0937   26.0784 H   0  0  0  0  0  0  0  0  0  0  0  0
  1  2  1  0  0  0  0
  1  3  1  0  0  0  0
  1  4  1  0  0  0  0
  4  5  1  0  0  0  0
  4  6  1  0  0  0  0
  4  7  1  0  0  0  0
  7  8  1  0  0  0  0
  7  9  1  0  0  0  0
  7 10  1  0  0  0  0
 10 11  1  0  0  0  0
 10 12  1  0  0  0  0
 10 13  1  0  0  0  0
 13 14  1  0  0  0  0
 13 15  1  0  0  0  0
 15 16  1  0  0  0  0
 15 17  1  0  0  0  0
 15 18  1  0  0  0  0
 18 19  1  0  0  0  0
 18 20  1  0  0  0  0
  1 21  1  0  0  0  0
 18 21  1  0  0  0  0
 21 22  1  0  0  0  0
 21 23  1  0  0  0  0
 13 24  1  0  0  0  0
 24 25  1  0  0  0  0
M  END
> <VM2 Rank>
59

> <Conf_Id>
1599

> <Probability>
0.19

> <Sum Probability>
96.26

> <Delta G>
1.907

> <G>
63.982

> <E>
31.698

> <-TS>
32.284

> <U+W>
11.130

> <U>
13.296

> <W>
-2.166

> <W(PB)>
-4.311

> <W(SA)>
2.146

> <Valence>
18.607

> <Coulomb>
-8.339

> <VdW>
3.028

> <VdW6>
-12.271

> <VdW12>
15.299

> <Bond>
0.424

> <Angle>
4.488

> <Pdih>
13.696

> <Idih>
0.000

> <Tether>
0.000

$$$$
VeraChem MOL file


 25 25  0  0  0  0  0  0  0  0999 V2000     
   20.8654   19.4363   20.5975 C   0  0  0  0  0  0  0  0  0  0  0  0
   20.5476   18.9149   19.6842 H   0  0  0  0  0  0  0  0  0  0  0  0
   21.6639   20.1230   20.2848 H   0  0  0  0  0  0  0  0  0  0  0  0
   21.4735   18.3971   21.5710 C   0  0  0  0  0  0  0  0  0  0  0  0
   22.1415   18.9026   22.2781 H   0  0  0  0  0  0  0  0  0  0  0  0
   22.1316   17.7349   20.9921 H   0  0  0  0  0  0  0  0  0  0  0  0
   20.4269   17.5290   22.3144 C   0  0  0  0  0  0  0  0  0  0  0  0
   20.6445   16.4701   22.1194 H   0  0  0  0  0  0  0  0  0  0  0  0
   19.4221   17.6876   21.9058 H   0  0  0  0  0  0  0  0  0  0  0  0
   20.4056   17.7411   23.8490 C   0  0  0  0  0  0  0  0  0  0  0  0
   19.5208   17.2321   24.2543 H   0  0  0  0  0  0  0  0  0  0  0  0
   21.2750   17.2268   24.2788 H   0  0  0  0  0  0  0  0  0  0  0  0
   20.4216   19.2069   24.3522 C   0  0  0  0  0  0  0  0  0  0  0  0
   21.4143   19.6423   24.1763 H   0  0  0  0  0  0  0  0  0  0  0  0
   19.3595   20.1352   23.7142 C   0  0  0  0  0  0  0  0  0  0  0  0
   18.4533   19.5677   23.4678 H   0  0  0  0  0  0  0  0  0  0  0  0
   19.0501   20.8613   24.4783 H   0  0  0  0  0  0  0  0  0  0  0  0
   19.8527   20.9571   22.4896 C   0  0  0  0  0  0  0  0  0  0  0  0
   20.8936   21.2816   22.6225 H   0  0  0  0  0  0  0  0  0  0  0  0
   19.2601   21.8821   22.4675 H   0  0  0  0  0  0  0  0  0  0  0  0
   19.6623   20.2686   21.1154 C   0  0  0  0  0  0  0  0  0  0  0  0
   18.7480   19.6617   21.1242 H   0  0  0  0  0  0  0  0  0  0  0  0
   19.4703   21.0517   20.3691 H   0  0  0  0  0  0  0  0  0  0  0  0
   20.1964   19.1715   25.7568 O   0  0  0  0  0  0  0  0  0  0  0  0
   20.9085   18.6204   26.1435 H   0  0  0  0  0  0  0  0  0  0  0  0
  1  2  1  0  0  0  0
  1  3  1  0  0  0  0
  1  4  1  0  0  0  0
  4  5  1  0  0  0  0
  4  6  1  0  0  0  0
  4  7  1  0  0  0  0
  7  8  1  0  0  0  0
  7  9  1  0  0  0  0
  7 10  1  0  0  0  0
 10 11  1  0  0  0  0
 10 12  1  0  0  0  0
 10 13  1  0  0  0  0
 13 14  1  0  0  0  0
 13 15  1  0  0  0  0
 15 16  1  0  0  0  0
 15 17  1  0  0  0  0
 15 18  1  0  0  0  0
 18 19  1  0  0  0  0
 18 20  1  0  0  0  0
  1 21  1  0  0  0  0
 18 21  1  0  0  0  0
 21 22  1  0  0  0  0
 21 23  1  0  0  0  0
 13 24  1  0  0  0  0
 24 25  1  0  0  0  0
M  END
> <VM2 Rank>
60

> <Conf_Id>
1923

> <Probability>
0.18

> <Sum Probability>
96.45

> <Delta G>
1.921

> <G>
63.996

> <E>
31.721

> <-TS>
32.275

> <U+W>
11.153

> <U>
13.313

> <W>
-2.160

> <W(PB)>
-4.301

> <W(SA)>
2.141

> <Valence>
18.589

> <Coulomb>
-8.331

> <VdW>
3.055

> <VdW6>
-12.273

> <VdW12>
15.328

> <Bond>
0.425

> <Angle>
4.506

> <Pdih>
13.659

> <Idih>
0.000

> <Tether>
0.000

$$$$
VeraChem MOL file


 25 25  0  0  0  0  0  0  0  0999 V2000     
   20.8624   19.4211   20.5952 C   0  0  0  0  0  0  0  0  0  0  0  0
   20.2694   19.5632   19.6814 H   0  0  0  0  0  0  0  0  0  0  0  0
   21.9129   19.4884   20.2810 H   0  0  0  0  0  0  0  0  0  0  0  0
   20.5879   17.9883   21.1245 C   0  0  0  0  0  0  0  0  0  0  0  0
   19.5104   17.7804   21.1358 H   0  0  0  0  0  0  0  0  0  0  0  0
   20.9992   17.2894   20.3832 H   0  0  0  0  0  0  0  0  0  0  0  0
   21.2076   17.6413   22.5008 C   0  0  0  0  0  0  0  0  0  0  0  0
   22.1776   18.1404   22.6290 H   0  0  0  0  0  0  0  0  0  0  0  0
   21.4331   16.5661   22.4870 H   0  0  0  0  0  0  0  0  0  0  0  0
   20.2809   17.8914   23.7244 C   0  0  0  0  0  0  0  0  0  0  0  0
   19.2364   17.6593   23.4807 H   0  0  0  0  0  0  0  0  0  0  0  0
   20.5697   17.1625   24.4939 H   0  0  0  0  0  0  0  0  0  0  0  0
   20.3884   19.3028   24.3515 C   0  0  0  0  0  0  0  0  0  0  0  0
   21.4015   19.6866   24.1717 H   0  0  0  0  0  0  0  0  0  0  0  0
   19.3493   20.3333   23.8411 C   0  0  0  0  0  0  0  0  0  0  0  0
   18.3618   20.0795   24.2493 H   0  0  0  0  0  0  0  0  0  0  0  0
   19.6094   21.3128   24.2631 H   0  0  0  0  0  0  0  0  0  0  0  0
   19.2145   20.4876   22.3054 C   0  0  0  0  0  0  0  0  0  0  0  0
   18.6273   21.3939   22.1039 H   0  0  0  0  0  0  0  0  0  0  0  0
   18.6085   19.6672   21.9037 H   0  0  0  0  0  0  0  0  0  0  0  0
   20.5688   20.5961   21.5600 C   0  0  0  0  0  0  0  0  0  0  0  0
   20.5736   21.5252   20.9738 H   0  0  0  0  0  0  0  0  0  0  0  0
   21.4001   20.7090   22.2654 H   0  0  0  0  0  0  0  0  0  0  0  0
   20.2042   19.1811   25.7571 O   0  0  0  0  0  0  0  0  0  0  0  0
   20.3262   20.0763   26.1369 H   0  0  0  0  0  0  0  0  0  0  0  0
  1  2  1  0  0  0  0
  1  3  1  0  0  0  0
  1  4  1  0  0  0  0
  4  5  1  0  0  0  0
  4  6  1  0  0  0  0
  4  7  1  0  0  0  0
  7  8  1  0  0  0  0
  7  9  1  0  0  0  0
  7 10  1  0  0  0  0
 10 11  1  0  0  0  0
 10 12  1  0  0  0  0
 10 13  1  0  0  0  0
 13 14  1  0  0  0  0
 13 15  1  0  0  0  0
 15 16  1  0  0  0  0
 15 17  1  0  0  0  0
 15 18  1  0  0  0  0
 18 19  1  0  0  0  0
 18 20  1  0  0  0  0
  1 21  1  0  0  0  0
 18 21  1  0  0  0  0
 21 22  1  0  0  0  0
 21 23  1  0  0  0  0
 13 24  1  0  0  0  0
 24 25  1  0  0  0  0
M  END
> <VM2 Rank>
61

> <Conf_Id>
760

> <Probability>
0.18

> <Sum Probability>
96.63

> <Delta G>
1.940

> <G>
64.015

> <E>
31.739

> <-TS>
32.276

> <U+W>
11.172

> <U>
13.313

> <W>
-2.141

> <W(PB)>
-4.307

> <W(SA)>
2.165

> <Valence>
18.589

> <Coulomb>
-8.331

> <VdW>
3.055

> <VdW6>
-12.273

> <VdW12>
15.328

> <Bond>
0.425

> <Angle>
4.505

> <Pdih>
13.659

> <Idih>
0.000

> <Tether>
0.000

$$$$
VeraChem MOL file


 25 25  0  0  0  0  0  0  0  0999 V2000     
   19.9855   19.1565   20.8534 C   0  0  0  0  0  0  0  0  0  0  0  0
   18.9824   18.9679   21.2530 H   0  0  0  0  0  0  0  0  0  0  0  0
   19.8378   19.2670   19.7705 H   0  0  0  0  0  0  0  0  0  0  0  0
   20.8807   17.9157   21.0913 C   0  0  0  0  0  0  0  0  0  0  0  0
   20.3013   17.0197   20.8300 H   0  0  0  0  0  0  0  0  0  0  0  0
   21.7185   17.9458   20.3814 H   0  0  0  0  0  0  0  0  0  0  0  0
   21.4650   17.7363   22.5176 C   0  0  0  0  0  0  0  0  0  0  0  0
   22.3065   18.4225   22.6778 H   0  0  0  0  0  0  0  0  0  0  0  0
   21.9101   16.7326   22.5584 H   0  0  0  0  0  0  0  0  0  0  0  0
   20.4517   17.8598   23.6846 C   0  0  0  0  0  0  0  0  0  0  0  0
   19.4665   17.4845   23.3798 H   0  0  0  0  0  0  0  0  0  0  0  0
   20.7926   17.1729   24.4706 H   0  0  0  0  0  0  0  0  0  0  0  0
   20.3362   19.2798   24.3062 C   0  0  0  0  0  0  0  0  0  0  0  0
   21.3045   19.7947   24.2323 H   0  0  0  0  0  0  0  0  0  0  0  0
   19.2409   20.1725   23.6722 C   0  0  0  0  0  0  0  0  0  0  0  0
   18.4097   19.5472   23.3254 H   0  0  0  0  0  0  0  0  0  0  0  0
   18.8061   20.8074   24.4560 H   0  0  0  0  0  0  0  0  0  0  0  0
   19.7171   21.1193   22.5371 C   0  0  0  0  0  0  0  0  0  0  0  0
   20.2947   21.9421   22.9800 H   0  0  0  0  0  0  0  0  0  0  0  0
   18.8302   21.5854   22.0866 H   0  0  0  0  0  0  0  0  0  0  0  0
   20.5673   20.4795   21.4123 C   0  0  0  0  0  0  0  0  0  0  0  0
   21.5971   20.3400   21.7611 H   0  0  0  0  0  0  0  0  0  0  0  0
   20.6462   21.2042   20.5904 H   0  0  0  0  0  0  0  0  0  0  0  0
   20.0197   19.1237   25.6854 O   0  0  0  0  0  0  0  0  0  0  0  0
   20.7605   18.6262   26.0905 H   0  0  0  0  0  0  0  0  0  0  0  0
  1  2  1  0  0  0  0
  1  3  1  0  0  0  0
  1  4  1  0  0  0  0
  4  5  1  0  0  0  0
  4  6  1  0  0  0  0
  4  7  1  0  0  0  0
  7  8  1  0  0  0  0
  7  9  1  0  0  0  0
  7 10  1  0  0  0  0
 10 11  1  0  0  0  0
 10 12  1  0  0  0  0
 10 13  1  0  0  0  0
 13 14  1  0  0  0  0
 13 15  1  0  0  0  0
 15 16  1  0  0  0  0
 15 17  1  0  0  0  0
 15 18  1  0  0  0  0
 18 19  1  0  0  0  0
 18 20  1  0  0  0  0
  1 21  1  0  0  0  0
 18 21  1  0  0  0  0
 21 22  1  0  0  0  0
 21 23  1  0  0  0  0
 13 24  1  0  0  0  0
 24 25  1  0  0  0  0
M  END
> <VM2 Rank>
62

> <Conf_Id>
684

> <Probability>
0.18

> <Sum Probability>
96.80

> <Delta G>
1.947

> <G>
64.022

> <E>
31.664

> <-TS>
32.358

> <U+W>
11.096

> <U>
13.320

> <W>
-2.223

> <W(PB)>
-4.382

> <W(SA)>
2.158

> <Valence>
18.430

> <Coulomb>
-8.418

> <VdW>
3.308

> <VdW6>
-12.374

> <VdW12>
15.682

> <Bond>
0.451

> <Angle>
4.194

> <Pdih>
13.785

> <Idih>
0.000

> <Tether>
0.000

$$$$
VeraChem MOL file


 25 25  0  0  0  0  0  0  0  0999 V2000     
   20.0453   19.0156   20.8519 C   0  0  0  0  0  0  0  0  0  0  0  0
   20.0226   18.8323   19.7690 H   0  0  0  0  0  0  0  0  0  0  0  0
   19.1951   18.4478   21.2472 H   0  0  0  0  0  0  0  0  0  0  0  0
   21.3844   18.4789   21.4175 C   0  0  0  0  0  0  0  0  0  0  0  0
   21.9508   18.0137   20.5992 H   0  0  0  0  0  0  0  0  0  0  0  0
   22.0215   19.3000   21.7663 H   0  0  0  0  0  0  0  0  0  0  0  0
   21.2198   17.4299   22.5445 C   0  0  0  0  0  0  0  0  0  0  0  0
   22.2066   17.2456   22.9908 H   0  0  0  0  0  0  0  0  0  0  0  0
   20.9124   16.4759   22.0949 H   0  0  0  0  0  0  0  0  0  0  0  0
   20.2130   17.7779   23.6742 C   0  0  0  0  0  0  0  0  0  0  0  0
   19.1833   17.6507   23.3196 H   0  0  0  0  0  0  0  0  0  0  0  0
   20.3349   17.0154   24.4550 H   0  0  0  0  0  0  0  0  0  0  0  0
   20.3756   19.1828   24.3060 C   0  0  0  0  0  0  0  0  0  0  0  0
   21.4273   19.4936   24.2309 H   0  0  0  0  0  0  0  0  0  0  0  0
   19.4681   20.2796   23.6828 C   0  0  0  0  0  0  0  0  0  0  0  0
   18.4967   19.8644   23.3863 H   0  0  0  0  0  0  0  0  0  0  0  0
   19.2438   21.0102   24.4719 H   0  0  0  0  0  0  0  0  0  0  0  0
   20.1045   21.0711   22.5110 C   0  0  0  0  0  0  0  0  0  0  0  0
   21.1857   21.1712   22.6711 H   0  0  0  0  0  0  0  0  0  0  0  0
   19.7196   22.0994   22.5479 H   0  0  0  0  0  0  0  0  0  0  0  0
   19.8130   20.5284   21.0867 C   0  0  0  0  0  0  0  0  0  0  0  0
   18.7714   20.7600   20.8252 H   0  0  0  0  0  0  0  0  0  0  0  0
   20.4309   21.0927   20.3749 H   0  0  0  0  0  0  0  0  0  0  0  0
   20.0403   19.0788   25.6854 O   0  0  0  0  0  0  0  0  0  0  0  0
   20.6705   18.4413   26.0815 H   0  0  0  0  0  0  0  0  0  0  0  0
  1  2  1  0  0  0  0
  1  3  1  0  0  0  0
  1  4  1  0  0  0  0
  4  5  1  0  0  0  0
  4  6  1  0  0  0  0
  4  7  1  0  0  0  0
  7  8  1  0  0  0  0
  7  9  1  0  0  0  0
  7 10  1  0  0  0  0
 10 11  1  0  0  0  0
 10 12  1  0  0  0  0
 10 13  1  0  0  0  0
 13 14  1  0  0  0  0
 13 15  1  0  0  0  0
 15 16  1  0  0  0  0
 15 17  1  0  0  0  0
 15 18  1  0  0  0  0
 18 19  1  0  0  0  0
 18 20  1  0  0  0  0
  1 21  1  0  0  0  0
 18 21  1  0  0  0  0
 21 22  1  0  0  0  0
 21 23  1  0  0  0  0
 13 24  1  0  0  0  0
 24 25  1  0  0  0  0
M  END
> <VM2 Rank>
63

> <Conf_Id>
1042

> <Probability>
0.18

> <Sum Probability>
96.98

> <Delta G>
1.950

> <G>
64.025

> <E>
31.663

> <-TS>
32.362

> <U+W>
11.096

> <U>
13.287

> <W>
-2.191

> <W(PB)>
-4.342

> <W(SA)>
2.151

> <Valence>
18.430

> <Coulomb>
-8.446

> <VdW>
3.304

> <VdW6>
-12.366

> <VdW12>
15.670

> <Bond>
0.449

> <Angle>
4.241

> <Pdih>
13.740

> <Idih>
0.000

> <Tether>
0.000

$$$$
VeraChem MOL file


 25 25  0  0  0  0  0  0  0  0999 V2000     
   19.9876   19.1589   20.8515 C   0  0  0  0  0  0  0  0  0  0  0  0
   18.9821   18.9721   21.2458 H   0  0  0  0  0  0  0  0  0  0  0  0
   19.8450   19.2710   19.7681 H   0  0  0  0  0  0  0  0  0  0  0  0
   20.8782   17.9152   21.0914 C   0  0  0  0  0  0  0  0  0  0  0  0
   20.2954   17.0209   20.8316 H   0  0  0  0  0  0  0  0  0  0  0  0
   21.7157   17.9412   20.3809 H   0  0  0  0  0  0  0  0  0  0  0  0
   21.4636   17.7349   22.5172 C   0  0  0  0  0  0  0  0  0  0  0  0
   22.3068   18.4192   22.6766 H   0  0  0  0  0  0  0  0  0  0  0  0
   21.9068   16.7304   22.5577 H   0  0  0  0  0  0  0  0  0  0  0  0
   20.4536   17.8599   23.6870 C   0  0  0  0  0  0  0  0  0  0  0  0
   19.4690   17.4772   23.3902 H   0  0  0  0  0  0  0  0  0  0  0  0
   20.8024   17.1828   24.4787 H   0  0  0  0  0  0  0  0  0  0  0  0
   20.3354   19.2804   24.3058 C   0  0  0  0  0  0  0  0  0  0  0  0
   21.3050   19.7928   24.2307 H   0  0  0  0  0  0  0  0  0  0  0  0
   19.2383   20.1699   23.6697 C   0  0  0  0  0  0  0  0  0  0  0  0
   18.4133   19.5403   23.3157 H   0  0  0  0  0  0  0  0  0  0  0  0
   18.7915   20.8029   24.4479 H   0  0  0  0  0  0  0  0  0  0  0  0
   19.7171   21.1190   22.5379 C   0  0  0  0  0  0  0  0  0  0  0  0
   20.2934   21.9417   22.9827 H   0  0  0  0  0  0  0  0  0  0  0  0
   18.8312   21.5853   22.0855 H   0  0  0  0  0  0  0  0  0  0  0  0
   20.5696   20.4803   21.4142 C   0  0  0  0  0  0  0  0  0  0  0  0
   20.6510   21.2064   20.5938 H   0  0  0  0  0  0  0  0  0  0  0  0
   21.5986   20.3391   21.7650 H   0  0  0  0  0  0  0  0  0  0  0  0
   20.0207   19.1246   25.6853 O   0  0  0  0  0  0  0  0  0  0  0  0
   20.0255   20.0222   26.0786 H   0  0  0  0  0  0  0  0  0  0  0  0
  1  2  1  0  0  0  0
  1  3  1  0  0  0  0
  1  4  1  0  0  0  0
  4  5  1  0  0  0  0
  4  6  1  0  0  0  0
  4  7  1  0  0  0  0
  7  8  1  0  0  0  0
  7  9  1  0  0  0  0
  7 10  1  0  0  0  0
 10 11  1  0  0  0  0
 10 12  1  0  0  0  0
 10 13  1  0  0  0  0
 13 14  1  0  0  0  0
 13 15  1  0  0  0  0
 15 16  1  0  0  0  0
 15 17  1  0  0  0  0
 15 18  1  0  0  0  0
 18 19  1  0  0  0  0
 18 20  1  0  0  0  0
  1 21  1  0  0  0  0
 18 21  1  0  0  0  0
 21 22  1  0  0  0  0
 21 23  1  0  0  0  0
 13 24  1  0  0  0  0
 24 25  1  0  0  0  0
M  END
> <VM2 Rank>
64

> <Conf_Id>
1173

> <Probability>
0.17

> <Sum Probability>
97.15

> <Delta G>
1.963

> <G>
64.039

> <E>
31.677

> <-TS>
32.362

> <U+W>
11.109

> <U>
13.287

> <W>
-2.178

> <W(PB)>
-4.334

> <W(SA)>
2.156

> <Valence>
18.430

> <Coulomb>
-8.446

> <VdW>
3.304

> <VdW6>
-12.366

> <VdW12>
15.670

> <Bond>
0.449

> <Angle>
4.240

> <Pdih>
13.740

> <Idih>
0.000

> <Tether>
0.000

$$$$
VeraChem MOL file


 25 25  0  0  0  0  0  0  0  0999 V2000     
   20.8664   19.4222   20.5982 C   0  0  0  0  0  0  0  0  0  0  0  0
   20.2781   19.5640   19.6813 H   0  0  0  0  0  0  0  0  0  0  0  0
   21.9184   19.4894   20.2891 H   0  0  0  0  0  0  0  0  0  0  0  0
   20.5889   17.9893   21.1255 C   0  0  0  0  0  0  0  0  0  0  0  0
   19.5111   17.7831   21.1345 H   0  0  0  0  0  0  0  0  0  0  0  0
   21.0004   17.2908   20.3839 H   0  0  0  0  0  0  0  0  0  0  0  0
   21.2059   17.6387   22.5022 C   0  0  0  0  0  0  0  0  0  0  0  0
   22.1769   18.1355   22.6320 H   0  0  0  0  0  0  0  0  0  0  0  0
   21.4290   16.5629   22.4867 H   0  0  0  0  0  0  0  0  0  0  0  0
   20.2773   17.8893   23.7239 C   0  0  0  0  0  0  0  0  0  0  0  0
   19.2327   17.6635   23.4742 H   0  0  0  0  0  0  0  0  0  0  0  0
   20.5578   17.1540   24.4898 H   0  0  0  0  0  0  0  0  0  0  0  0
   20.3879   19.3014   24.3491 C   0  0  0  0  0  0  0  0  0  0  0  0
   21.3987   19.6889   24.1642 H   0  0  0  0  0  0  0  0  0  0  0  0
   19.3466   20.3295   23.8403 C   0  0  0  0  0  0  0  0  0  0  0  0
   18.3604   20.0727   24.2493 H   0  0  0  0  0  0  0  0  0  0  0  0
   19.6058   21.3061   24.2696 H   0  0  0  0  0  0  0  0  0  0  0  0
   19.2129   20.4890   22.3047 C   0  0  0  0  0  0  0  0  0  0  0  0
   18.6271   21.3969   22.1065 H   0  0  0  0  0  0  0  0  0  0  0  0
   18.6062   19.6708   21.8996 H   0  0  0  0  0  0  0  0  0  0  0  0
   20.5677   20.5985   21.5601 C   0  0  0  0  0  0  0  0  0  0  0  0
   21.3978   20.7166   22.2662 H   0  0  0  0  0  0  0  0  0  0  0  0
   20.5703   21.5260   20.9714 H   0  0  0  0  0  0  0  0  0  0  0  0
   20.2104   19.1851   25.7559 O   0  0  0  0  0  0  0  0  0  0  0  0
   20.9223   18.5961   26.0826 H   0  0  0  0  0  0  0  0  0  0  0  0
  1  2  1  0  0  0  0
  1  3  1  0  0  0  0
  1  4  1  0  0  0  0
  4  5  1  0  0  0  0
  4  6  1  0  0  0  0
  4  7  1  0  0  0  0
  7  8  1  0  0  0  0
  7  9  1  0  0  0  0
  7 10  1  0  0  0  0
 10 11  1  0  0  0  0
 10 12  1  0  0  0  0
 10 13  1  0  0  0  0
 13 14  1  0  0  0  0
 13 15  1  0  0  0  0
 15 16  1  0  0  0  0
 15 17  1  0  0  0  0
 15 18  1  0  0  0  0
 18 19  1  0  0  0  0
 18 20  1  0  0  0  0
  1 21  1  0  0  0  0
 18 21  1  0  0  0  0
 21 22  1  0  0  0  0
 21 23  1  0  0  0  0
 13 24  1  0  0  0  0
 24 25  1  0  0  0  0
M  END
> <VM2 Rank>
65

> <Conf_Id>
1275

> <Probability>
0.17

> <Sum Probability>
97.32

> <Delta G>
1.966

> <G>
64.041

> <E>
31.758

> <-TS>
32.284

> <U+W>
11.190

> <U>
13.296

> <W>
-2.106

> <W(PB)>
-4.268

> <W(SA)>
2.162

> <Valence>
18.607

> <Coulomb>
-8.339

> <VdW>
3.028

> <VdW6>
-12.271

> <VdW12>
15.299

> <Bond>
0.424

> <Angle>
4.488

> <Pdih>
13.696

> <Idih>
0.000

> <Tether>
0.000

$$$$
VeraChem MOL file


 25 25  0  0  0  0  0  0  0  0999 V2000     
   20.0423   19.0161   20.8538 C   0  0  0  0  0  0  0  0  0  0  0  0
   19.1924   18.4513   21.2542 H   0  0  0  0  0  0  0  0  0  0  0  0
   20.0150   18.8303   19.7714 H   0  0  0  0  0  0  0  0  0  0  0  0
   21.3823   18.4778   21.4157 C   0  0  0  0  0  0  0  0  0  0  0  0
   22.0212   19.2983   21.7627 H   0  0  0  0  0  0  0  0  0  0  0  0
   21.9460   18.0120   20.5960 H   0  0  0  0  0  0  0  0  0  0  0  0
   21.2199   17.4297   22.5437 C   0  0  0  0  0  0  0  0  0  0  0  0
   22.2076   17.2460   22.9882 H   0  0  0  0  0  0  0  0  0  0  0  0
   20.9116   16.4751   22.0959 H   0  0  0  0  0  0  0  0  0  0  0  0
   20.2164   17.7778   23.6767 C   0  0  0  0  0  0  0  0  0  0  0  0
   19.1854   17.6433   23.3291 H   0  0  0  0  0  0  0  0  0  0  0  0
   20.3482   17.0222   24.4630 H   0  0  0  0  0  0  0  0  0  0  0  0
   20.3757   19.1837   24.3064 C   0  0  0  0  0  0  0  0  0  0  0  0
   21.4283   19.4917   24.2325 H   0  0  0  0  0  0  0  0  0  0  0  0
   19.4667   20.2783   23.6803 C   0  0  0  0  0  0  0  0  0  0  0  0
   18.5000   19.8574   23.3758 H   0  0  0  0  0  0  0  0  0  0  0  0
   19.2298   21.0104   24.4638 H   0  0  0  0  0  0  0  0  0  0  0  0
   20.1065   21.0710   22.5115 C   0  0  0  0  0  0  0  0  0  0  0  0
   21.1878   21.1687   22.6726 H   0  0  0  0  0  0  0  0  0  0  0  0
   19.7235   22.1001   22.5487 H   0  0  0  0  0  0  0  0  0  0  0  0
   19.8154   20.5299   21.0866 C   0  0  0  0  0  0  0  0  0  0  0  0
   20.4366   21.0916   20.3756 H   0  0  0  0  0  0  0  0  0  0  0  0
   18.7751   20.7652   20.8234 H   0  0  0  0  0  0  0  0  0  0  0  0
   20.0388   19.0787   25.6855 O   0  0  0  0  0  0  0  0  0  0  0  0
   20.2209   19.9534   26.0881 H   0  0  0  0  0  0  0  0  0  0  0  0
  1  2  1  0  0  0  0
  1  3  1  0  0  0  0
  1  4  1  0  0  0  0
  4  5  1  0  0  0  0
  4  6  1  0  0  0  0
  4  7  1  0  0  0  0
  7  8  1  0  0  0  0
  7  9  1  0  0  0  0
  7 10  1  0  0  0  0
 10 11  1  0  0  0  0
 10 12  1  0  0  0  0
 10 13  1  0  0  0  0
 13 14  1  0  0  0  0
 13 15  1  0  0  0  0
 15 16  1  0  0  0  0
 15 17  1  0  0  0  0
 15 18  1  0  0  0  0
 18 19  1  0  0  0  0
 18 20  1  0  0  0  0
  1 21  1  0  0  0  0
 18 21  1  0  0  0  0
 21 22  1  0  0  0  0
 21 23  1  0  0  0  0
 13 24  1  0  0  0  0
 24 25  1  0  0  0  0
M  END
> <VM2 Rank>
66

> <Conf_Id>
1288

> <Probability>
0.17

> <Sum Probability>
97.49

> <Delta G>
1.969

> <G>
64.044

> <E>
31.686

> <-TS>
32.358

> <U+W>
11.119

> <U>
13.320

> <W>
-2.201

> <W(PB)>
-4.348

> <W(SA)>
2.147

> <Valence>
18.430

> <Coulomb>
-8.418

> <VdW>
3.308

> <VdW6>
-12.374

> <VdW12>
15.682

> <Bond>
0.451

> <Angle>
4.194

> <Pdih>
13.785

> <Idih>
0.000

> <Tether>
0.000

$$$$
VeraChem MOL file


 25 25  0  0  0  0  0  0  0  0999 V2000     
   20.0410   19.0148   20.8532 C   0  0  0  0  0  0  0  0  0  0  0  0
   19.1918   18.4485   21.2525 H   0  0  0  0  0  0  0  0  0  0  0  0
   20.0140   18.8305   19.7705 H   0  0  0  0  0  0  0  0  0  0  0  0
   21.3819   18.4777   21.4141 C   0  0  0  0  0  0  0  0  0  0  0  0
   21.9442   18.0102   20.5943 H   0  0  0  0  0  0  0  0  0  0  0  0
   22.0216   19.2987   21.7582 H   0  0  0  0  0  0  0  0  0  0  0  0
   21.2221   17.4316   22.5442 C   0  0  0  0  0  0  0  0  0  0  0  0
   22.2101   17.2518   22.9895 H   0  0  0  0  0  0  0  0  0  0  0  0
   20.9173   16.4752   22.0978 H   0  0  0  0  0  0  0  0  0  0  0  0
   20.2168   17.7780   23.6758 C   0  0  0  0  0  0  0  0  0  0  0  0
   19.1871   17.6429   23.3240 H   0  0  0  0  0  0  0  0  0  0  0  0
   20.3500   17.0198   24.4595 H   0  0  0  0  0  0  0  0  0  0  0  0
   20.3754   19.1833   24.3072 C   0  0  0  0  0  0  0  0  0  0  0  0
   21.4280   19.4923   24.2398 H   0  0  0  0  0  0  0  0  0  0  0  0
   19.4703   20.2817   23.6830 C   0  0  0  0  0  0  0  0  0  0  0  0
   18.4984   19.8694   23.3833 H   0  0  0  0  0  0  0  0  0  0  0  0
   19.2482   21.0161   24.4693 H   0  0  0  0  0  0  0  0  0  0  0  0
   20.1091   21.0700   22.5108 C   0  0  0  0  0  0  0  0  0  0  0  0
   21.1910   21.1650   22.6696 H   0  0  0  0  0  0  0  0  0  0  0  0
   19.7293   22.1003   22.5477 H   0  0  0  0  0  0  0  0  0  0  0  0
   19.8125   20.5281   21.0874 C   0  0  0  0  0  0  0  0  0  0  0  0
   20.4300   21.0907   20.3739 H   0  0  0  0  0  0  0  0  0  0  0  0
   18.7708   20.7621   20.8284 H   0  0  0  0  0  0  0  0  0  0  0  0
   20.0349   19.0778   25.6844 O   0  0  0  0  0  0  0  0  0  0  0  0
   19.0951   18.8039   25.7162 H   0  0  0  0  0  0  0  0  0  0  0  0
  1  2  1  0  0  0  0
  1  3  1  0  0  0  0
  1  4  1  0  0  0  0
  4  5  1  0  0  0  0
  4  6  1  0  0  0  0
  4  7  1  0  0  0  0
  7  8  1  0  0  0  0
  7  9  1  0  0  0  0
  7 10  1  0  0  0  0
 10 11  1  0  0  0  0
 10 12  1  0  0  0  0
 10 13  1  0  0  0  0
 13 14  1  0  0  0  0
 13 15  1  0  0  0  0
 15 16  1  0  0  0  0
 15 17  1  0  0  0  0
 15 18  1  0  0  0  0
 18 19  1  0  0  0  0
 18 20  1  0  0  0  0
  1 21  1  0  0  0  0
 18 21  1  0  0  0  0
 21 22  1  0  0  0  0
 21 23  1  0  0  0  0
 13 24  1  0  0  0  0
 24 25  1  0  0  0  0
M  END
> <VM2 Rank>
67

> <Conf_Id>
559

> <Probability>
0.17

> <Sum Probability>
97.66

> <Delta G>
1.983

> <G>
64.059

> <E>
31.724

> <-TS>
32.335

> <U+W>
11.156

> <U>
13.141

> <W>
-1.984

> <W(PB)>
-4.127

> <W(SA)>
2.143

> <Valence>
18.807

> <Coulomb>
-8.930

> <VdW>
3.264

> <VdW6>
-12.382

> <VdW12>
15.646

> <Bond>
0.441

> <Angle>
4.299

> <Pdih>
14.067

> <Idih>
0.000

> <Tether>
0.000

$$$$
VeraChem MOL file


 25 25  0  0  0  0  0  0  0  0999 V2000     
   19.9840   19.1568   20.8528 C   0  0  0  0  0  0  0  0  0  0  0  0
   18.9801   18.9699   21.2511 H   0  0  0  0  0  0  0  0  0  0  0  0
   19.8376   19.2666   19.7696 H   0  0  0  0  0  0  0  0  0  0  0  0
   20.8772   17.9149   21.0920 C   0  0  0  0  0  0  0  0  0  0  0  0
   20.2957   17.0191   20.8348 H   0  0  0  0  0  0  0  0  0  0  0  0
   21.7132   17.9416   20.3798 H   0  0  0  0  0  0  0  0  0  0  0  0
   21.4658   17.7386   22.5169 C   0  0  0  0  0  0  0  0  0  0  0  0
   22.3060   18.4268   22.6750 H   0  0  0  0  0  0  0  0  0  0  0  0
   21.9137   16.7361   22.5575 H   0  0  0  0  0  0  0  0  0  0  0  0
   20.4562   17.8598   23.6872 C   0  0  0  0  0  0  0  0  0  0  0  0
   19.4732   17.4750   23.3870 H   0  0  0  0  0  0  0  0  0  0  0  0
   20.8091   17.1814   24.4760 H   0  0  0  0  0  0  0  0  0  0  0  0
   20.3355   19.2798   24.3071 C   0  0  0  0  0  0  0  0  0  0  0  0
   21.3046   19.7938   24.2398 H   0  0  0  0  0  0  0  0  0  0  0  0
   19.2414   20.1727   23.6713 C   0  0  0  0  0  0  0  0  0  0  0  0
   18.4108   19.5490   23.3200 H   0  0  0  0  0  0  0  0  0  0  0  0
   18.8058   20.8106   24.4525 H   0  0  0  0  0  0  0  0  0  0  0  0
   19.7205   21.1196   22.5377 C   0  0  0  0  0  0  0  0  0  0  0  0
   20.3013   21.9397   22.9816 H   0  0  0  0  0  0  0  0  0  0  0  0
   18.8351   21.5898   22.0886 H   0  0  0  0  0  0  0  0  0  0  0  0
   20.5674   20.4794   21.4108 C   0  0  0  0  0  0  0  0  0  0  0  0
   21.5982   20.3398   21.7569 H   0  0  0  0  0  0  0  0  0  0  0  0
   20.6444   21.2044   20.5890 H   0  0  0  0  0  0  0  0  0  0  0  0
   20.0160   19.1215   25.6842 O   0  0  0  0  0  0  0  0  0  0  0  0
   19.1521   18.6611   25.7160 H   0  0  0  0  0  0  0  0  0  0  0  0
  1  2  1  0  0  0  0
  1  3  1  0  0  0  0
  1  4  1  0  0  0  0
  4  5  1  0  0  0  0
  4  6  1  0  0  0  0
  4  7  1  0  0  0  0
  7  8  1  0  0  0  0
  7  9  1  0  0  0  0
  7 10  1  0  0  0  0
 10 11  1  0  0  0  0
 10 12  1  0  0  0  0
 10 13  1  0  0  0  0
 13 14  1  0  0  0  0
 13 15  1  0  0  0  0
 15 16  1  0  0  0  0
 15 17  1  0  0  0  0
 15 18  1  0  0  0  0
 18 19  1  0  0  0  0
 18 20  1  0  0  0  0
  1 21  1  0  0  0  0
 18 21  1  0  0  0  0
 21 22  1  0  0  0  0
 21 23  1  0  0  0  0
 13 24  1  0  0  0  0
 24 25  1  0  0  0  0
M  END
> <VM2 Rank>
68

> <Conf_Id>
198

> <Probability>
0.16

> <Sum Probability>
97.82

> <Delta G>
2.001

> <G>
64.076

> <E>
31.741

> <-TS>
32.335

> <U+W>
11.174

> <U>
13.140

> <W>
-1.967

> <W(PB)>
-4.109

> <W(SA)>
2.143

> <Valence>
18.807

> <Coulomb>
-8.930

> <VdW>
3.263

> <VdW6>
-12.382

> <VdW12>
15.645

> <Bond>
0.441

> <Angle>
4.299

> <Pdih>
14.067

> <Idih>
0.000

> <Tether>
0.000

$$$$
VeraChem MOL file


 25 25  0  0  0  0  0  0  0  0999 V2000     
   20.8661   19.4366   20.5985 C   0  0  0  0  0  0  0  0  0  0  0  0
   20.5491   18.9155   19.6849 H   0  0  0  0  0  0  0  0  0  0  0  0
   21.6640   20.1243   20.2866 H   0  0  0  0  0  0  0  0  0  0  0  0
   21.4748   18.3972   21.5716 C   0  0  0  0  0  0  0  0  0  0  0  0
   22.1337   17.7361   20.9923 H   0  0  0  0  0  0  0  0  0  0  0  0
   22.1421   18.9024   22.2796 H   0  0  0  0  0  0  0  0  0  0  0  0
   20.4287   17.5274   22.3135 C   0  0  0  0  0  0  0  0  0  0  0  0
   20.6499   16.4689   22.1205 H   0  0  0  0  0  0  0  0  0  0  0  0
   19.4247   17.6825   21.9017 H   0  0  0  0  0  0  0  0  0  0  0  0
   20.4027   17.7407   23.8480 C   0  0  0  0  0  0  0  0  0  0  0  0
   19.5196   17.2273   24.2503 H   0  0  0  0  0  0  0  0  0  0  0  0
   21.2725   17.2306   24.2825 H   0  0  0  0  0  0  0  0  0  0  0  0
   20.4190   19.2065   24.3510 C   0  0  0  0  0  0  0  0  0  0  0  0
   21.4128   19.6392   24.1758 H   0  0  0  0  0  0  0  0  0  0  0  0
   19.3580   20.1378   23.7153 C   0  0  0  0  0  0  0  0  0  0  0  0
   18.4497   19.5741   23.4672 H   0  0  0  0  0  0  0  0  0  0  0  0
   19.0526   20.8678   24.4775 H   0  0  0  0  0  0  0  0  0  0  0  0
   19.8528   20.9572   22.4899 C   0  0  0  0  0  0  0  0  0  0  0  0
   20.8942   21.2803   22.6228 H   0  0  0  0  0  0  0  0  0  0  0  0
   19.2618   21.8832   22.4662 H   0  0  0  0  0  0  0  0  0  0  0  0
   19.6619   20.2671   21.1166 C   0  0  0  0  0  0  0  0  0  0  0  0
   18.7485   19.6589   21.1263 H   0  0  0  0  0  0  0  0  0  0  0  0
   19.4684   21.0493   20.3698 H   0  0  0  0  0  0  0  0  0  0  0  0
   20.2000   19.1724   25.7555 O   0  0  0  0  0  0  0  0  0  0  0  0
   19.3025   18.8034   25.8871 H   0  0  0  0  0  0  0  0  0  0  0  0
  1  2  1  0  0  0  0
  1  3  1  0  0  0  0
  1  4  1  0  0  0  0
  4  5  1  0  0  0  0
  4  6  1  0  0  0  0
  4  7  1  0  0  0  0
  7  8  1  0  0  0  0
  7  9  1  0  0  0  0
  7 10  1  0  0  0  0
 10 11  1  0  0  0  0
 10 12  1  0  0  0  0
 10 13  1  0  0  0  0
 13 14  1  0  0  0  0
 13 15  1  0  0  0  0
 15 16  1  0  0  0  0
 15 17  1  0  0  0  0
 15 18  1  0  0  0  0
 18 19  1  0  0  0  0
 18 20  1  0  0  0  0
  1 21  1  0  0  0  0
 18 21  1  0  0  0  0
 21 22  1  0  0  0  0
 21 23  1  0  0  0  0
 13 24  1  0  0  0  0
 24 25  1  0  0  0  0
M  END
> <VM2 Rank>
69

> <Conf_Id>
654

> <Probability>
0.16

> <Sum Probability>
97.97

> <Delta G>
2.011

> <G>
64.086

> <E>
31.829

> <-TS>
32.257

> <U+W>
11.262

> <U>
13.202

> <W>
-1.941

> <W(PB)>
-4.073

> <W(SA)>
2.132

> <Valence>
18.957

> <Coulomb>
-8.753

> <VdW>
2.998

> <VdW6>
-12.294

> <VdW12>
15.292

> <Bond>
0.419

> <Angle>
4.543

> <Pdih>
13.996

> <Idih>
0.000

> <Tether>
0.000

$$$$
VeraChem MOL file


 25 25  0  0  0  0  0  0  0  0999 V2000     
   20.9411   19.3923   20.7640 C   0  0  0  0  0  0  0  0  0  0  0  0
   21.0307   19.4217   19.6694 H   0  0  0  0  0  0  0  0  0  0  0  0
   21.8662   19.8533   21.1325 H   0  0  0  0  0  0  0  0  0  0  0  0
   20.8747   17.8968   21.1730 C   0  0  0  0  0  0  0  0  0  0  0  0
   20.1500   17.3838   20.5263 H   0  0  0  0  0  0  0  0  0  0  0  0
   21.8485   17.4389   20.9521 H   0  0  0  0  0  0  0  0  0  0  0  0
   20.5072   17.5952   22.6460 C   0  0  0  0  0  0  0  0  0  0  0  0
   20.7092   16.5332   22.8404 H   0  0  0  0  0  0  0  0  0  0  0  0
   19.4248   17.7029   22.7834 H   0  0  0  0  0  0  0  0  0  0  0  0
   21.2849   18.4487   23.6824 C   0  0  0  0  0  0  0  0  0  0  0  0
   21.8281   17.7750   24.3577 H   0  0  0  0  0  0  0  0  0  0  0  0
   22.0699   19.0362   23.1944 H   0  0  0  0  0  0  0  0  0  0  0  0
   20.4050   19.3950   24.5335 C   0  0  0  0  0  0  0  0  0  0  0  0
   21.0798   20.0958   25.0460 H   0  0  0  0  0  0  0  0  0  0  0  0
   19.3507   20.2294   23.7631 C   0  0  0  0  0  0  0  0  0  0  0  0
   18.4920   19.6053   23.4867 H   0  0  0  0  0  0  0  0  0  0  0  0
   18.9499   20.9616   24.4762 H   0  0  0  0  0  0  0  0  0  0  0  0
   19.8609   21.0072   22.5221 C   0  0  0  0  0  0  0  0  0  0  0  0
   20.8896   21.3590   22.6773 H   0  0  0  0  0  0  0  0  0  0  0  0
   19.2511   21.9179   22.4453 H   0  0  0  0  0  0  0  0  0  0  0  0
   19.7217   20.2585   21.1673 C   0  0  0  0  0  0  0  0  0  0  0  0
   18.7960   19.6685   21.1332 H   0  0  0  0  0  0  0  0  0  0  0  0
   19.6056   21.0263   20.3900 H   0  0  0  0  0  0  0  0  0  0  0  0
   19.7177   18.6198   25.5086 O   0  0  0  0  0  0  0  0  0  0  0  0
   20.3969   18.0979   25.9834 H   0  0  0  0  0  0  0  0  0  0  0  0
  1  2  1  0  0  0  0
  1  3  1  0  0  0  0
  1  4  1  0  0  0  0
  4  5  1  0  0  0  0
  4  6  1  0  0  0  0
  4  7  1  0  0  0  0
  7  8  1  0  0  0  0
  7  9  1  0  0  0  0
  7 10  1  0  0  0  0
 10 11  1  0  0  0  0
 10 12  1  0  0  0  0
 10 13  1  0  0  0  0
 13 14  1  0  0  0  0
 13 15  1  0  0  0  0
 15 16  1  0  0  0  0
 15 17  1  0  0  0  0
 15 18  1  0  0  0  0
 18 19  1  0  0  0  0
 18 20  1  0  0  0  0
  1 21  1  0  0  0  0
 18 21  1  0  0  0  0
 21 22  1  0  0  0  0
 21 23  1  0  0  0  0
 13 24  1  0  0  0  0
 24 25  1  0  0  0  0
M  END
> <VM2 Rank>
70

> <Conf_Id>
1258

> <Probability>
0.15

> <Sum Probability>
98.13

> <Delta G>
2.030

> <G>
64.106

> <E>
31.817

> <-TS>
32.288

> <U+W>
11.250

> <U>
13.420

> <W>
-2.170

> <W(PB)>
-4.300

> <W(SA)>
2.131

> <Valence>
18.609

> <Coulomb>
-8.052

> <VdW>
2.863

> <VdW6>
-12.525

> <VdW12>
15.388

> <Bond>
0.430

> <Angle>
4.723

> <Pdih>
13.455

> <Idih>
0.000

> <Tether>
0.000

$$$$
VeraChem MOL file


 25 25  0  0  0  0  0  0  0  0999 V2000     
   20.9187   19.5396   20.7756 C   0  0  0  0  0  0  0  0  0  0  0  0
   21.0208   19.5880   19.6828 H   0  0  0  0  0  0  0  0  0  0  0  0
   21.8926   19.8661   21.1619 H   0  0  0  0  0  0  0  0  0  0  0  0
   20.6630   18.0627   21.1669 C   0  0  0  0  0  0  0  0  0  0  0  0
   19.5920   17.8253   21.1141 H   0  0  0  0  0  0  0  0  0  0  0  0
   21.1367   17.4420   20.3940 H   0  0  0  0  0  0  0  0  0  0  0  0
   21.2688   17.6247   22.5295 C   0  0  0  0  0  0  0  0  0  0  0  0
   22.2422   18.1027   22.7032 H   0  0  0  0  0  0  0  0  0  0  0  0
   21.4832   16.5500   22.4505 H   0  0  0  0  0  0  0  0  0  0  0  0
   20.3379   17.8071   23.7565 C   0  0  0  0  0  0  0  0  0  0  0  0
   19.2941   17.6425   23.4621 H   0  0  0  0  0  0  0  0  0  0  0  0
   20.5608   17.0022   24.4690 H   0  0  0  0  0  0  0  0  0  0  0  0
   20.4804   19.1385   24.5364 C   0  0  0  0  0  0  0  0  0  0  0  0
   21.4447   19.1177   25.0644 H   0  0  0  0  0  0  0  0  0  0  0  0
   20.4468   20.4344   23.6915 C   0  0  0  0  0  0  0  0  0  0  0  0
   20.3431   21.2912   24.3698 H   0  0  0  0  0  0  0  0  0  0  0  0
   21.4251   20.5769   23.2201 H   0  0  0  0  0  0  0  0  0  0  0  0
   19.3104   20.4932   22.6367 C   0  0  0  0  0  0  0  0  0  0  0  0
   18.6988   21.3857   22.8259 H   0  0  0  0  0  0  0  0  0  0  0  0
   18.6193   19.6507   22.7585 H   0  0  0  0  0  0  0  0  0  0  0  0
   19.8074   20.5476   21.1719 C   0  0  0  0  0  0  0  0  0  0  0  0
   18.9429   20.4011   20.5102 H   0  0  0  0  0  0  0  0  0  0  0  0
   20.1754   21.5613   20.9623 H   0  0  0  0  0  0  0  0  0  0  0  0
   19.4306   19.1952   25.4949 O   0  0  0  0  0  0  0  0  0  0  0  0
   19.5339   20.0419   25.9761 H   0  0  0  0  0  0  0  0  0  0  0  0
  1  2  1  0  0  0  0
  1  3  1  0  0  0  0
  1  4  1  0  0  0  0
  4  5  1  0  0  0  0
  4  6  1  0  0  0  0
  4  7  1  0  0  0  0
  7  8  1  0  0  0  0
  7  9  1  0  0  0  0
  7 10  1  0  0  0  0
 10 11  1  0  0  0  0
 10 12  1  0  0  0  0
 10 13  1  0  0  0  0
 13 14  1  0  0  0  0
 13 15  1  0  0  0  0
 15 16  1  0  0  0  0
 15 17  1  0  0  0  0
 15 18  1  0  0  0  0
 18 19  1  0  0  0  0
 18 20  1  0  0  0  0
  1 21  1  0  0  0  0
 18 21  1  0  0  0  0
 21 22  1  0  0  0  0
 21 23  1  0  0  0  0
 13 24  1  0  0  0  0
 24 25  1  0  0  0  0
M  END
> <VM2 Rank>
71

> <Conf_Id>
1233

> <Probability>
0.15

> <Sum Probability>
98.28

> <Delta G>
2.031

> <G>
64.107

> <E>
31.820

> <-TS>
32.287

> <U+W>
11.252

> <U>
13.420

> <W>
-2.168

> <W(PB)>
-4.325

> <W(SA)>
2.157

> <Valence>
18.609

> <Coulomb>
-8.052

> <VdW>
2.863

> <VdW6>
-12.524

> <VdW12>
15.387

> <Bond>
0.430

> <Angle>
4.723

> <Pdih>
13.455

> <Idih>
0.000

> <Tether>
0.000

$$$$
VeraChem MOL file


 25 25  0  0  0  0  0  0  0  0999 V2000     
   20.8631   19.4214   20.5963 C   0  0  0  0  0  0  0  0  0  0  0  0
   20.2710   19.5638   19.6820 H   0  0  0  0  0  0  0  0  0  0  0  0
   21.9140   19.4875   20.2829 H   0  0  0  0  0  0  0  0  0  0  0  0
   20.5866   17.9891   21.1257 C   0  0  0  0  0  0  0  0  0  0  0  0
   19.5088   17.7829   21.1380 H   0  0  0  0  0  0  0  0  0  0  0  0
   20.9961   17.2896   20.3840 H   0  0  0  0  0  0  0  0  0  0  0  0
   21.2076   17.6412   22.5012 C   0  0  0  0  0  0  0  0  0  0  0  0
   22.1770   18.1416   22.6294 H   0  0  0  0  0  0  0  0  0  0  0  0
   21.4349   16.5663   22.4856 H   0  0  0  0  0  0  0  0  0  0  0  0
   20.2816   17.8885   23.7256 C   0  0  0  0  0  0  0  0  0  0  0  0
   19.2383   17.6522   23.4802 H   0  0  0  0  0  0  0  0  0  0  0  0
   20.5759   17.1597   24.4932 H   0  0  0  0  0  0  0  0  0  0  0  0
   20.3862   19.3013   24.3502 C   0  0  0  0  0  0  0  0  0  0  0  0
   21.3983   19.6878   24.1711 H   0  0  0  0  0  0  0  0  0  0  0  0
   19.3470   20.3316   23.8401 C   0  0  0  0  0  0  0  0  0  0  0  0
   18.3575   20.0821   24.2452 H   0  0  0  0  0  0  0  0  0  0  0  0
   19.6103   21.3084   24.2668 H   0  0  0  0  0  0  0  0  0  0  0  0
   19.2147   20.4900   22.3045 C   0  0  0  0  0  0  0  0  0  0  0  0
   18.6305   21.3986   22.1049 H   0  0  0  0  0  0  0  0  0  0  0  0
   18.6068   19.6726   21.8995 H   0  0  0  0  0  0  0  0  0  0  0  0
   20.5698   20.5968   21.5605 C   0  0  0  0  0  0  0  0  0  0  0  0
   21.4005   20.7096   22.2669 H   0  0  0  0  0  0  0  0  0  0  0  0
   20.5760   21.5257   20.9739 H   0  0  0  0  0  0  0  0  0  0  0  0
   20.2073   19.1831   25.7558 O   0  0  0  0  0  0  0  0  0  0  0  0
   19.3086   18.8183   25.8910 H   0  0  0  0  0  0  0  0  0  0  0  0
  1  2  1  0  0  0  0
  1  3  1  0  0  0  0
  1  4  1  0  0  0  0
  4  5  1  0  0  0  0
  4  6  1  0  0  0  0
  4  7  1  0  0  0  0
  7  8  1  0  0  0  0
  7  9  1  0  0  0  0
  7 10  1  0  0  0  0
 10 11  1  0  0  0  0
 10 12  1  0  0  0  0
 10 13  1  0  0  0  0
 13 14  1  0  0  0  0
 13 15  1  0  0  0  0
 15 16  1  0  0  0  0
 15 17  1  0  0  0  0
 15 18  1  0  0  0  0
 18 19  1  0  0  0  0
 18 20  1  0  0  0  0
  1 21  1  0  0  0  0
 18 21  1  0  0  0  0
 21 22  1  0  0  0  0
 21 23  1  0  0  0  0
 13 24  1  0  0  0  0
 24 25  1  0  0  0  0
M  END
> <VM2 Rank>
72

> <Conf_Id>
275

> <Probability>
0.15

> <Sum Probability>
98.43

> <Delta G>
2.051

> <G>
64.126

> <E>
31.869

> <-TS>
32.257

> <U+W>
11.301

> <U>
13.202

> <W>
-1.901

> <W(PB)>
-4.065

> <W(SA)>
2.163

> <Valence>
18.957

> <Coulomb>
-8.753

> <VdW>
2.998

> <VdW6>
-12.294

> <VdW12>
15.292

> <Bond>
0.419

> <Angle>
4.543

> <Pdih>
13.995

> <Idih>
0.000

> <Tether>
0.000

$$$$
VeraChem MOL file


 25 25  0  0  0  0  0  0  0  0999 V2000     
   19.8906   19.0035   20.7945 C   0  0  0  0  0  0  0  0  0  0  0  0
   18.9395   18.6177   21.1829 H   0  0  0  0  0  0  0  0  0  0  0  0
   19.7588   19.0281   19.7041 H   0  0  0  0  0  0  0  0  0  0  0  0
   21.0446   18.0092   21.0894 C   0  0  0  0  0  0  0  0  0  0  0  0
   20.7068   17.0028   20.8069 H   0  0  0  0  0  0  0  0  0  0  0  0
   21.8892   18.2378   20.4253 H   0  0  0  0  0  0  0  0  0  0  0  0
   21.5698   17.9642   22.5448 C   0  0  0  0  0  0  0  0  0  0  0  0
   22.2422   18.8123   22.7184 H   0  0  0  0  0  0  0  0  0  0  0  0
   22.2071   17.0756   22.6495 H   0  0  0  0  0  0  0  0  0  0  0  0
   20.4546   17.9064   23.6217 C   0  0  0  0  0  0  0  0  0  0  0  0
   19.4722   17.7480   23.1628 H   0  0  0  0  0  0  0  0  0  0  0  0
   20.6197   17.0198   24.2473 H   0  0  0  0  0  0  0  0  0  0  0  0
   20.3989   19.1351   24.5585 C   0  0  0  0  0  0  0  0  0  0  0  0
   21.2505   19.0633   25.2505 H   0  0  0  0  0  0  0  0  0  0  0  0
   20.4836   20.5262   23.8767 C   0  0  0  0  0  0  0  0  0  0  0  0
   20.2724   21.2802   24.6462 H   0  0  0  0  0  0  0  0  0  0  0  0
   21.5157   20.7325   23.5693 H   0  0  0  0  0  0  0  0  0  0  0  0
   19.5221   20.7767   22.6853 C   0  0  0  0  0  0  0  0  0  0  0  0
   19.2777   21.8477   22.6923 H   0  0  0  0  0  0  0  0  0  0  0  0
   18.5657   20.2595   22.8416 H   0  0  0  0  0  0  0  0  0  0  0  0
   20.1090   20.4572   21.2824 C   0  0  0  0  0  0  0  0  0  0  0  0
   19.5966   21.1142   20.5662 H   0  0  0  0  0  0  0  0  0  0  0  0
   21.1701   20.7338   21.2228 H   0  0  0  0  0  0  0  0  0  0  0  0
   19.1908   19.0643   25.3068 O   0  0  0  0  0  0  0  0  0  0  0  0
   19.1760   19.8485   25.8932 H   0  0  0  0  0  0  0  0  0  0  0  0
  1  2  1  0  0  0  0
  1  3  1  0  0  0  0
  1  4  1  0  0  0  0
  4  5  1  0  0  0  0
  4  6  1  0  0  0  0
  4  7  1  0  0  0  0
  7  8  1  0  0  0  0
  7  9  1  0  0  0  0
  7 10  1  0  0  0  0
 10 11  1  0  0  0  0
 10 12  1  0  0  0  0
 10 13  1  0  0  0  0
 13 14  1  0  0  0  0
 13 15  1  0  0  0  0
 15 16  1  0  0  0  0
 15 17  1  0  0  0  0
 15 18  1  0  0  0  0
 18 19  1  0  0  0  0
 18 20  1  0  0  0  0
  1 21  1  0  0  0  0
 18 21  1  0  0  0  0
 21 22  1  0  0  0  0
 21 23  1  0  0  0  0
 13 24  1  0  0  0  0
 24 25  1  0  0  0  0
M  END
> <VM2 Rank>
73

> <Conf_Id>
1533

> <Probability>
0.13

> <Sum Probability>
98.56

> <Delta G>
2.110

> <G>
64.186

> <E>
31.920

> <-TS>
32.266

> <U+W>
11.353

> <U>
13.643

> <W>
-2.290

> <W(PB)>
-4.412

> <W(SA)>
2.122

> <Valence>
18.610

> <Coulomb>
-7.808

> <VdW>
2.842

> <VdW6>
-12.553

> <VdW12>
15.394

> <Bond>
0.434

> <Angle>
4.744

> <Pdih>
13.432

> <Idih>
0.000

> <Tether>
0.000

$$$$
VeraChem MOL file


 25 25  0  0  0  0  0  0  0  0999 V2000     
   20.8966   19.3562   21.0011 C   0  0  0  0  0  0  0  0  0  0  0  0
   21.1126   19.2634   19.9280 H   0  0  0  0  0  0  0  0  0  0  0  0
   21.8693   19.5615   21.4621 H   0  0  0  0  0  0  0  0  0  0  0  0
   20.3103   18.0144   21.5053 C   0  0  0  0  0  0  0  0  0  0  0  0
   19.2433   18.1142   21.7333 H   0  0  0  0  0  0  0  0  0  0  0  0
   20.3480   17.2870   20.6828 H   0  0  0  0  0  0  0  0  0  0  0  0
   21.0630   17.4017   22.7126 C   0  0  0  0  0  0  0  0  0  0  0  0
   21.9781   16.9236   22.3372 H   0  0  0  0  0  0  0  0  0  0  0  0
   20.4566   16.5842   23.1261 H   0  0  0  0  0  0  0  0  0  0  0  0
   21.4769   18.3658   23.8627 C   0  0  0  0  0  0  0  0  0  0  0  0
   21.8944   17.7450   24.6661 H   0  0  0  0  0  0  0  0  0  0  0  0
   22.3138   18.9988   23.5446 H   0  0  0  0  0  0  0  0  0  0  0  0
   20.3812   19.2562   24.4983 C   0  0  0  0  0  0  0  0  0  0  0  0
   20.7328   19.4821   25.5154 H   0  0  0  0  0  0  0  0  0  0  0  0
   20.1670   20.6378   23.8180 C   0  0  0  0  0  0  0  0  0  0  0  0
   19.7126   21.2842   24.5803 H   0  0  0  0  0  0  0  0  0  0  0  0
   21.1368   21.1005   23.5944 H   0  0  0  0  0  0  0  0  0  0  0  0
   19.2484   20.7017   22.5661 C   0  0  0  0  0  0  0  0  0  0  0  0
   18.7525   21.6819   22.5708 H   0  0  0  0  0  0  0  0  0  0  0  0
   18.4248   19.9826   22.6452 H   0  0  0  0  0  0  0  0  0  0  0  0
   19.9592   20.5724   21.1935 C   0  0  0  0  0  0  0  0  0  0  0  0
   20.5374   21.4870   21.0038 H   0  0  0  0  0  0  0  0  0  0  0  0
   19.1857   20.5430   20.4140 H   0  0  0  0  0  0  0  0  0  0  0  0
   19.1614   18.5368   24.6024 O   0  0  0  0  0  0  0  0  0  0  0  0
   18.9765   18.2355   23.6911 H   0  0  0  0  0  0  0  0  0  0  0  0
  1  2  1  0  0  0  0
  1  3  1  0  0  0  0
  1  4  1  0  0  0  0
  4  5  1  0  0  0  0
  4  6  1  0  0  0  0
  4  7  1  0  0  0  0
  7  8  1  0  0  0  0
  7  9  1  0  0  0  0
  7 10  1  0  0  0  0
 10 11  1  0  0  0  0
 10 12  1  0  0  0  0
 10 13  1  0  0  0  0
 13 14  1  0  0  0  0
 13 15  1  0  0  0  0
 15 16  1  0  0  0  0
 15 17  1  0  0  0  0
 15 18  1  0  0  0  0
 18 19  1  0  0  0  0
 18 20  1  0  0  0  0
  1 21  1  0  0  0  0
 18 21  1  0  0  0  0
 21 22  1  0  0  0  0
 21 23  1  0  0  0  0
 13 24  1  0  0  0  0
 24 25  1  0  0  0  0
M  END
> <VM2 Rank>
74

> <Conf_Id>
1649

> <Probability>
0.13

> <Sum Probability>
98.70

> <Delta G>
2.118

> <G>
64.193

> <E>
31.541

> <-TS>
32.652

> <U+W>
10.974

> <U>
12.265

> <W>
-1.291

> <W(PB)>
-3.431

> <W(SA)>
2.140

> <Valence>
19.257

> <Coulomb>
-9.838

> <VdW>
2.846

> <VdW6>
-13.716

> <VdW12>
16.562

> <Bond>
0.508

> <Angle>
6.448

> <Pdih>
12.301

> <Idih>
0.000

> <Tether>
0.000

$$$$
VeraChem MOL file


 25 25  0  0  0  0  0  0  0  0999 V2000     
   20.9471   19.3957   20.7690 C   0  0  0  0  0  0  0  0  0  0  0  0
   21.0468   19.4300   19.6755 H   0  0  0  0  0  0  0  0  0  0  0  0
   21.8694   19.8535   21.1485 H   0  0  0  0  0  0  0  0  0  0  0  0
   20.8741   17.8989   21.1708 C   0  0  0  0  0  0  0  0  0  0  0  0
   20.1489   17.3913   20.5204 H   0  0  0  0  0  0  0  0  0  0  0  0
   21.8468   17.4387   20.9496 H   0  0  0  0  0  0  0  0  0  0  0  0
   20.5038   17.5918   22.6419 C   0  0  0  0  0  0  0  0  0  0  0  0
   20.7066   16.5292   22.8322 H   0  0  0  0  0  0  0  0  0  0  0  0
   19.4213   17.6971   22.7796 H   0  0  0  0  0  0  0  0  0  0  0  0
   21.2800   18.4398   23.6841 C   0  0  0  0  0  0  0  0  0  0  0  0
   21.8027   17.7606   24.3705 H   0  0  0  0  0  0  0  0  0  0  0  0
   22.0790   19.0151   23.2044 H   0  0  0  0  0  0  0  0  0  0  0  0
   20.4051   19.3955   24.5299 C   0  0  0  0  0  0  0  0  0  0  0  0
   21.0852   20.0992   25.0314 H   0  0  0  0  0  0  0  0  0  0  0  0
   19.3460   20.2242   23.7593 C   0  0  0  0  0  0  0  0  0  0  0  0
   18.4921   19.5957   23.4774 H   0  0  0  0  0  0  0  0  0  0  0  0
   18.9386   20.9564   24.4686 H   0  0  0  0  0  0  0  0  0  0  0  0
   19.8560   21.0070   22.5218 C   0  0  0  0  0  0  0  0  0  0  0  0
   20.8827   21.3631   22.6809 H   0  0  0  0  0  0  0  0  0  0  0  0
   19.2425   21.9152   22.4447 H   0  0  0  0  0  0  0  0  0  0  0  0
   19.7252   20.2611   21.1650 C   0  0  0  0  0  0  0  0  0  0  0  0
   18.7997   19.6711   21.1240 H   0  0  0  0  0  0  0  0  0  0  0  0
   19.6142   21.0303   20.3883 H   0  0  0  0  0  0  0  0  0  0  0  0
   19.7267   18.6289   25.5181 O   0  0  0  0  0  0  0  0  0  0  0  0
   19.2225   19.2619   26.0700 H   0  0  0  0  0  0  0  0  0  0  0  0
  1  2  1  0  0  0  0
  1  3  1  0  0  0  0
  1  4  1  0  0  0  0
  4  5  1  0  0  0  0
  4  6  1  0  0  0  0
  4  7  1  0  0  0  0
  7  8  1  0  0  0  0
  7  9  1  0  0  0  0
  7 10  1  0  0  0  0
 10 11  1  0  0  0  0
 10 12  1  0  0  0  0
 10 13  1  0  0  0  0
 13 14  1  0  0  0  0
 13 15  1  0  0  0  0
 15 16  1  0  0  0  0
 15 17  1  0  0  0  0
 15 18  1  0  0  0  0
 18 19  1  0  0  0  0
 18 20  1  0  0  0  0
  1 21  1  0  0  0  0
 18 21  1  0  0  0  0
 21 22  1  0  0  0  0
 21 23  1  0  0  0  0
 13 24  1  0  0  0  0
 24 25  1  0  0  0  0
M  END
> <VM2 Rank>
75

> <Conf_Id>
967

> <Probability>
0.13

> <Sum Probability>
98.82

> <Delta G>
2.130

> <G>
64.205

> <E>
31.906

> <-TS>
32.299

> <U+W>
11.339

> <U>
13.665

> <W>
-2.326

> <W(PB)>
-4.462

> <W(SA)>
2.136

> <Valence>
18.607

> <Coulomb>
-7.778

> <VdW>
2.836

> <VdW6>
-12.472

> <VdW12>
15.308

> <Bond>
0.426

> <Angle>
4.743

> <Pdih>
13.438

> <Idih>
0.000

> <Tether>
0.000

$$$$
VeraChem MOL file


 25 25  0  0  0  0  0  0  0  0999 V2000     
   20.2448   19.1927   20.6066 C   0  0  0  0  0  0  0  0  0  0  0  0
   19.2963   18.6510   20.4903 H   0  0  0  0  0  0  0  0  0  0  0  0
   20.6323   19.3332   19.5883 H   0  0  0  0  0  0  0  0  0  0  0  0
   21.2573   18.3250   21.3898 C   0  0  0  0  0  0  0  0  0  0  0  0
   21.6664   17.5828   20.6907 H   0  0  0  0  0  0  0  0  0  0  0  0
   22.1156   18.9338   21.7032 H   0  0  0  0  0  0  0  0  0  0  0  0
   20.6419   17.5513   22.5861 C   0  0  0  0  0  0  0  0  0  0  0  0
   20.9068   16.4920   22.4665 H   0  0  0  0  0  0  0  0  0  0  0  0
   19.5445   17.5790   22.5632 H   0  0  0  0  0  0  0  0  0  0  0  0
   21.1621   18.0062   23.9729 C   0  0  0  0  0  0  0  0  0  0  0  0
   21.0627   17.1623   24.6682 H   0  0  0  0  0  0  0  0  0  0  0  0
   22.2388   18.2111   23.9166 H   0  0  0  0  0  0  0  0  0  0  0  0
   20.4428   19.2150   24.6169 C   0  0  0  0  0  0  0  0  0  0  0  0
   21.0022   19.4464   25.5349 H   0  0  0  0  0  0  0  0  0  0  0  0
   20.4348   20.5106   23.7680 C   0  0  0  0  0  0  0  0  0  0  0  0
   20.2511   21.3455   24.4567 H   0  0  0  0  0  0  0  0  0  0  0  0
   21.4437   20.6878   23.3748 H   0  0  0  0  0  0  0  0  0  0  0  0
   19.3790   20.5989   22.6270 C   0  0  0  0  0  0  0  0  0  0  0  0
   18.8379   21.5465   22.7527 H   0  0  0  0  0  0  0  0  0  0  0  0
   18.6139   19.8166   22.7104 H   0  0  0  0  0  0  0  0  0  0  0  0
   19.9825   20.5959   21.2026 C   0  0  0  0  0  0  0  0  0  0  0  0
   19.2789   21.1109   20.5343 H   0  0  0  0  0  0  0  0  0  0  0  0
   20.9035   21.1938   21.1787 H   0  0  0  0  0  0  0  0  0  0  0  0
   19.1188   18.8474   24.9901 O   0  0  0  0  0  0  0  0  0  0  0  0
   18.6852   19.6642   25.3111 H   0  0  0  0  0  0  0  0  0  0  0  0
  1  2  1  0  0  0  0
  1  3  1  0  0  0  0
  1  4  1  0  0  0  0
  4  5  1  0  0  0  0
  4  6  1  0  0  0  0
  4  7  1  0  0  0  0
  7  8  1  0  0  0  0
  7  9  1  0  0  0  0
  7 10  1  0  0  0  0
 10 11  1  0  0  0  0
 10 12  1  0  0  0  0
 10 13  1  0  0  0  0
 13 14  1  0  0  0  0
 13 15  1  0  0  0  0
 15 16  1  0  0  0  0
 15 17  1  0  0  0  0
 15 18  1  0  0  0  0
 18 19  1  0  0  0  0
 18 20  1  0  0  0  0
  1 21  1  0  0  0  0
 18 21  1  0  0  0  0
 21 22  1  0  0  0  0
 21 23  1  0  0  0  0
 13 24  1  0  0  0  0
 24 25  1  0  0  0  0
M  END
> <VM2 Rank>
76

> <Conf_Id>
623

> <Probability>
0.13

> <Sum Probability>
98.95

> <Delta G>
2.140

> <G>
64.216

> <E>
32.113

> <-TS>
32.103

> <U+W>
11.545

> <U>
13.660

> <W>
-2.115

> <W(PB)>
-4.226

> <W(SA)>
2.111

> <Valence>
18.998

> <Coulomb>
-7.829

> <VdW>
2.491

> <VdW6>
-12.613

> <VdW12>
15.104

> <Bond>
0.387

> <Angle>
4.271

> <Pdih>
14.339

> <Idih>
0.000

> <Tether>
0.000

$$$$
VeraChem MOL file


 25 25  0  0  0  0  0  0  0  0999 V2000     
   20.8012   19.5158   20.9925 C   0  0  0  0  0  0  0  0  0  0  0  0
   20.8715   19.7206   19.9155 H   0  0  0  0  0  0  0  0  0  0  0  0
   21.6120   20.1024   21.4391 H   0  0  0  0  0  0  0  0  0  0  0  0
   21.0672   18.0066   21.2076 C   0  0  0  0  0  0  0  0  0  0  0  0
   20.5185   17.4432   20.4405 H   0  0  0  0  0  0  0  0  0  0  0  0
   22.1311   17.8129   21.0141 H   0  0  0  0  0  0  0  0  0  0  0  0
   20.6917   17.4170   22.5922 C   0  0  0  0  0  0  0  0  0  0  0  0
   21.0805   16.3897   22.6109 H   0  0  0  0  0  0  0  0  0  0  0  0
   19.6058   17.2959   22.6803 H   0  0  0  0  0  0  0  0  0  0  0  0
   21.2725   18.1579   23.8287 C   0  0  0  0  0  0  0  0  0  0  0  0
   21.4478   17.3986   24.6021 H   0  0  0  0  0  0  0  0  0  0  0  0
   22.2670   18.5575   23.5922 H   0  0  0  0  0  0  0  0  0  0  0  0
   20.4019   19.2592   24.4970 C   0  0  0  0  0  0  0  0  0  0  0  0
   20.8125   19.3825   25.5096 H   0  0  0  0  0  0  0  0  0  0  0  0
   20.4803   20.6582   23.8384 C   0  0  0  0  0  0  0  0  0  0  0  0
   20.3090   21.3981   24.6311 H   0  0  0  0  0  0  0  0  0  0  0  0
   21.5101   20.8434   23.5106 H   0  0  0  0  0  0  0  0  0  0  0  0
   19.4821   20.9851   22.6892 C   0  0  0  0  0  0  0  0  0  0  0  0
   19.7444   21.9768   22.2962 H   0  0  0  0  0  0  0  0  0  0  0  0
   18.4723   21.0959   23.1076 H   0  0  0  0  0  0  0  0  0  0  0  0
   19.4185   19.9969   21.4979 C   0  0  0  0  0  0  0  0  0  0  0  0
   18.7735   19.1460   21.7438 H   0  0  0  0  0  0  0  0  0  0  0  0
   18.9019   20.5024   20.6705 H   0  0  0  0  0  0  0  0  0  0  0  0
   19.0486   18.8464   24.6165 O   0  0  0  0  0  0  0  0  0  0  0  0
   18.6956   18.8986   23.7065 H   0  0  0  0  0  0  0  0  0  0  0  0
  1  2  1  0  0  0  0
  1  3  1  0  0  0  0
  1  4  1  0  0  0  0
  4  5  1  0  0  0  0
  4  6  1  0  0  0  0
  4  7  1  0  0  0  0
  7  8  1  0  0  0  0
  7  9  1  0  0  0  0
  7 10  1  0  0  0  0
 10 11  1  0  0  0  0
 10 12  1  0  0  0  0
 10 13  1  0  0  0  0
 13 14  1  0  0  0  0
 13 15  1  0  0  0  0
 15 16  1  0  0  0  0
 15 17  1  0  0  0  0
 15 18  1  0  0  0  0
 18 19  1  0  0  0  0
 18 20  1  0  0  0  0
  1 21  1  0  0  0  0
 18 21  1  0  0  0  0
 21 22  1  0  0  0  0
 21 23  1  0  0  0  0
 13 24  1  0  0  0  0
 24 25  1  0  0  0  0
M  END
> <VM2 Rank>
77

> <Conf_Id>
1910

> <Probability>
0.13

> <Sum Probability>
99.08

> <Delta G>
2.142

> <G>
64.217

> <E>
31.565

> <-TS>
32.652

> <U+W>
10.998

> <U>
12.265

> <W>
-1.267

> <W(PB)>
-3.395

> <W(SA)>
2.128

> <Valence>
19.257

> <Coulomb>
-9.838

> <VdW>
2.846

> <VdW6>
-13.716

> <VdW12>
16.562

> <Bond>
0.508

> <Angle>
6.448

> <Pdih>
12.301

> <Idih>
0.000

> <Tether>
0.000

$$$$
VeraChem MOL file


 25 25  0  0  0  0  0  0  0  0999 V2000     
   19.8509   19.0517   20.7985 C   0  0  0  0  0  0  0  0  0  0  0  0
   18.9081   18.6547   21.1960 H   0  0  0  0  0  0  0  0  0  0  0  0
   19.7664   18.9364   19.7093 H   0  0  0  0  0  0  0  0  0  0  0  0
   21.0360   18.1791   21.2811 C   0  0  0  0  0  0  0  0  0  0  0  0
   21.1318   17.3490   20.5678 H   0  0  0  0  0  0  0  0  0  0  0  0
   21.9820   18.7327   21.2117 H   0  0  0  0  0  0  0  0  0  0  0  0
   20.8573   17.5447   22.6883 C   0  0  0  0  0  0  0  0  0  0  0  0
   21.4409   16.6140   22.6949 H   0  0  0  0  0  0  0  0  0  0  0  0
   19.8162   17.2359   22.8540 H   0  0  0  0  0  0  0  0  0  0  0  0
   21.3700   18.4064   23.8719 C   0  0  0  0  0  0  0  0  0  0  0  0
   21.7591   17.7270   24.6415 H   0  0  0  0  0  0  0  0  0  0  0  0
   22.2439   18.9880   23.5552 H   0  0  0  0  0  0  0  0  0  0  0  0
   20.3328   19.3343   24.5577 C   0  0  0  0  0  0  0  0  0  0  0  0
   20.8902   19.9897   25.2424 H   0  0  0  0  0  0  0  0  0  0  0  0
   19.4970   20.2391   23.6233 C   0  0  0  0  0  0  0  0  0  0  0  0
   18.6862   19.6553   23.1732 H   0  0  0  0  0  0  0  0  0  0  0  0
   18.9924   20.9861   24.2496 H   0  0  0  0  0  0  0  0  0  0  0  0
   20.3188   20.9813   22.5368 C   0  0  0  0  0  0  0  0  0  0  0  0
   21.3951   20.8568   22.7026 H   0  0  0  0  0  0  0  0  0  0  0  0
   20.1430   22.0609   22.6380 H   0  0  0  0  0  0  0  0  0  0  0  0
   19.9676   20.5720   21.0858 C   0  0  0  0  0  0  0  0  0  0  0  0
   19.0155   21.0445   20.8085 H   0  0  0  0  0  0  0  0  0  0  0  0
   20.7218   21.0038   20.4139 H   0  0  0  0  0  0  0  0  0  0  0  0
   19.4335   18.5344   25.3166 O   0  0  0  0  0  0  0  0  0  0  0  0
   19.9815   17.9716   25.9013 H   0  0  0  0  0  0  0  0  0  0  0  0
  1  2  1  0  0  0  0
  1  3  1  0  0  0  0
  1  4  1  0  0  0  0
  4  5  1  0  0  0  0
  4  6  1  0  0  0  0
  4  7  1  0  0  0  0
  7  8  1  0  0  0  0
  7  9  1  0  0  0  0
  7 10  1  0  0  0  0
 10 11  1  0  0  0  0
 10 12  1  0  0  0  0
 10 13  1  0  0  0  0
 13 14  1  0  0  0  0
 13 15  1  0  0  0  0
 15 16  1  0  0  0  0
 15 17  1  0  0  0  0
 15 18  1  0  0  0  0
 18 19  1  0  0  0  0
 18 20  1  0  0  0  0
  1 21  1  0  0  0  0
 18 21  1  0  0  0  0
 21 22  1  0  0  0  0
 21 23  1  0  0  0  0
 13 24  1  0  0  0  0
 24 25  1  0  0  0  0
M  END
> <VM2 Rank>
78

> <Conf_Id>
652

> <Probability>
0.12

> <Sum Probability>
99.20

> <Delta G>
2.158

> <G>
64.233

> <E>
31.970

> <-TS>
32.264

> <U+W>
11.402

> <U>
13.643

> <W>
-2.241

> <W(PB)>
-4.379

> <W(SA)>
2.138

> <Valence>
18.609

> <Coulomb>
-7.808

> <VdW>
2.842

> <VdW6>
-12.553

> <VdW12>
15.394

> <Bond>
0.434

> <Angle>
4.744

> <Pdih>
13.431

> <Idih>
0.000

> <Tether>
0.000

$$$$
VeraChem MOL file


 25 25  0  0  0  0  0  0  0  0999 V2000     
   20.9248   19.5413   20.7806 C   0  0  0  0  0  0  0  0  0  0  0  0
   21.0371   19.5934   19.6890 H   0  0  0  0  0  0  0  0  0  0  0  0
   21.8943   19.8680   21.1775 H   0  0  0  0  0  0  0  0  0  0  0  0
   20.6669   18.0632   21.1647 C   0  0  0  0  0  0  0  0  0  0  0  0
   19.5963   17.8259   21.1053 H   0  0  0  0  0  0  0  0  0  0  0  0
   21.1451   17.4451   20.3924 H   0  0  0  0  0  0  0  0  0  0  0  0
   21.2652   17.6213   22.5290 C   0  0  0  0  0  0  0  0  0  0  0  0
   22.2402   18.0949   22.7063 H   0  0  0  0  0  0  0  0  0  0  0  0
   21.4751   16.5458   22.4496 H   0  0  0  0  0  0  0  0  0  0  0  0
   20.3312   17.8075   23.7527 C   0  0  0  0  0  0  0  0  0  0  0  0
   19.2877   17.6493   23.4531 H   0  0  0  0  0  0  0  0  0  0  0  0
   20.5497   16.9981   24.4614 H   0  0  0  0  0  0  0  0  0  0  0  0
   20.4813   19.1384   24.5328 C   0  0  0  0  0  0  0  0  0  0  0  0
   21.4516   19.1195   25.0497 H   0  0  0  0  0  0  0  0  0  0  0  0
   20.4372   20.4373   23.6929 C   0  0  0  0  0  0  0  0  0  0  0  0
   20.3151   21.2835   24.3819 H   0  0  0  0  0  0  0  0  0  0  0  0
   21.4164   20.5983   23.2297 H   0  0  0  0  0  0  0  0  0  0  0  0
   19.3055   20.4931   22.6327 C   0  0  0  0  0  0  0  0  0  0  0  0
   18.6942   21.3866   22.8178 H   0  0  0  0  0  0  0  0  0  0  0  0
   18.6127   19.6523   22.7549 H   0  0  0  0  0  0  0  0  0  0  0  0
   19.8081   20.5456   21.1697 C   0  0  0  0  0  0  0  0  0  0  0  0
   18.9469   20.3948   20.5046 H   0  0  0  0  0  0  0  0  0  0  0  0
   20.1735   21.5601   20.9597 H   0  0  0  0  0  0  0  0  0  0  0  0
   19.4438   19.1953   25.5049 O   0  0  0  0  0  0  0  0  0  0  0  0
   19.5265   18.3884   26.0540 H   0  0  0  0  0  0  0  0  0  0  0  0
  1  2  1  0  0  0  0
  1  3  1  0  0  0  0
  1  4  1  0  0  0  0
  4  5  1  0  0  0  0
  4  6  1  0  0  0  0
  4  7  1  0  0  0  0
  7  8  1  0  0  0  0
  7  9  1  0  0  0  0
  7 10  1  0  0  0  0
 10 11  1  0  0  0  0
 10 12  1  0  0  0  0
 10 13  1  0  0  0  0
 13 14  1  0  0  0  0
 13 15  1  0  0  0  0
 15 16  1  0  0  0  0
 15 17  1  0  0  0  0
 15 18  1  0  0  0  0
 18 19  1  0  0  0  0
 18 20  1  0  0  0  0
  1 21  1  0  0  0  0
 18 21  1  0  0  0  0
 21 22  1  0  0  0  0
 21 23  1  0  0  0  0
 13 24  1  0  0  0  0
 24 25  1  0  0  0  0
M  END
> <VM2 Rank>
79

> <Conf_Id>
896

> <Probability>
0.12

> <Sum Probability>
99.32

> <Delta G>
2.169

> <G>
64.244

> <E>
31.946

> <-TS>
32.299

> <U+W>
11.378

> <U>
13.665

> <W>
-2.287

> <W(PB)>
-4.435

> <W(SA)>
2.148

> <Valence>
18.607

> <Coulomb>
-7.778

> <VdW>
2.836

> <VdW6>
-12.472

> <VdW12>
15.308

> <Bond>
0.426

> <Angle>
4.743

> <Pdih>
13.438

> <Idih>
0.000

> <Tether>
0.000

$$$$
VeraChem MOL file


 25 25  0  0  0  0  0  0  0  0999 V2000     
   20.2395   19.1469   20.6074 C   0  0  0  0  0  0  0  0  0  0  0  0
   19.1988   18.8119   20.5013 H   0  0  0  0  0  0  0  0  0  0  0  0
   20.5990   19.3249   19.5847 H   0  0  0  0  0  0  0  0  0  0  0  0
   21.1005   18.0132   21.2128 C   0  0  0  0  0  0  0  0  0  0  0  0
   21.0013   17.1382   20.5560 H   0  0  0  0  0  0  0  0  0  0  0  0
   22.1634   18.2881   21.1794 H   0  0  0  0  0  0  0  0  0  0  0  0
   20.7033   17.5841   22.6450 C   0  0  0  0  0  0  0  0  0  0  0  0
   21.0373   16.5466   22.7818 H   0  0  0  0  0  0  0  0  0  0  0  0
   19.6101   17.5494   22.7351 H   0  0  0  0  0  0  0  0  0  0  0  0
   21.3578   18.4364   23.7717 C   0  0  0  0  0  0  0  0  0  0  0  0
   21.8533   17.7457   24.4663 H   0  0  0  0  0  0  0  0  0  0  0  0
   22.1678   19.0556   23.3661 H   0  0  0  0  0  0  0  0  0  0  0  0
   20.4128   19.3281   24.6148 C   0  0  0  0  0  0  0  0  0  0  0  0
   20.9665   19.5958   25.5264 H   0  0  0  0  0  0  0  0  0  0  0  0
   20.0036   20.6669   23.9563 C   0  0  0  0  0  0  0  0  0  0  0  0
   19.3182   21.1724   24.6492 H   0  0  0  0  0  0  0  0  0  0  0  0
   20.8816   21.3216   23.8867 H   0  0  0  0  0  0  0  0  0  0  0  0
   19.3088   20.5732   22.5746 C   0  0  0  0  0  0  0  0  0  0  0  0
   18.7059   21.4825   22.4470 H   0  0  0  0  0  0  0  0  0  0  0  0
   18.5878   19.7451   22.5662 H   0  0  0  0  0  0  0  0  0  0  0  0
   20.2881   20.4893   21.3735 C   0  0  0  0  0  0  0  0  0  0  0  0
   20.0130   21.2834   20.6659 H   0  0  0  0  0  0  0  0  0  0  0  0
   21.3185   20.7150   21.6782 H   0  0  0  0  0  0  0  0  0  0  0  0
   19.2495   18.6049   25.0038 O   0  0  0  0  0  0  0  0  0  0  0  0
   19.5608   17.7376   25.3340 H   0  0  0  0  0  0  0  0  0  0  0  0
  1  2  1  0  0  0  0
  1  3  1  0  0  0  0
  1  4  1  0  0  0  0
  4  5  1  0  0  0  0
  4  6  1  0  0  0  0
  4  7  1  0  0  0  0
  7  8  1  0  0  0  0
  7  9  1  0  0  0  0
  7 10  1  0  0  0  0
 10 11  1  0  0  0  0
 10 12  1  0  0  0  0
 10 13  1  0  0  0  0
 13 14  1  0  0  0  0
 13 15  1  0  0  0  0
 15 16  1  0  0  0  0
 15 17  1  0  0  0  0
 15 18  1  0  0  0  0
 18 19  1  0  0  0  0
 18 20  1  0  0  0  0
  1 21  1  0  0  0  0
 18 21  1  0  0  0  0
 21 22  1  0  0  0  0
 21 23  1  0  0  0  0
 13 24  1  0  0  0  0
 24 25  1  0  0  0  0
M  END
> <VM2 Rank>
80

> <Conf_Id>
704

> <Probability>
0.12

> <Sum Probability>
99.44

> <Delta G>
2.178

> <G>
64.253

> <E>
32.151

> <-TS>
32.102

> <U+W>
11.583

> <U>
13.660

> <W>
-2.077

> <W(PB)>
-4.202

> <W(SA)>
2.125

> <Valence>
18.998

> <Coulomb>
-7.829

> <VdW>
2.491

> <VdW6>
-12.613

> <VdW12>
15.104

> <Bond>
0.387

> <Angle>
4.272

> <Pdih>
14.339

> <Idih>
0.000

> <Tether>
0.000

$$$$
VeraChem MOL file


 25 25  0  0  0  0  0  0  0  0999 V2000     
   19.8962   19.0049   20.7866 C   0  0  0  0  0  0  0  0  0  0  0  0
   18.9412   18.6199   21.1663 H   0  0  0  0  0  0  0  0  0  0  0  0
   19.7730   19.0330   19.6953 H   0  0  0  0  0  0  0  0  0  0  0  0
   21.0455   18.0072   21.0881 C   0  0  0  0  0  0  0  0  0  0  0  0
   20.7054   17.0006   20.8090 H   0  0  0  0  0  0  0  0  0  0  0  0
   21.8926   18.2306   20.4253 H   0  0  0  0  0  0  0  0  0  0  0  0
   21.5669   17.9686   22.5448 C   0  0  0  0  0  0  0  0  0  0  0  0
   22.2336   18.8216   22.7171 H   0  0  0  0  0  0  0  0  0  0  0  0
   22.2092   17.0842   22.6542 H   0  0  0  0  0  0  0  0  0  0  0  0
   20.4485   17.9090   23.6181 C   0  0  0  0  0  0  0  0  0  0  0  0
   19.4669   17.7605   23.1539 H   0  0  0  0  0  0  0  0  0  0  0  0
   20.6097   17.0158   24.2355 H   0  0  0  0  0  0  0  0  0  0  0  0
   20.3997   19.1349   24.5591 C   0  0  0  0  0  0  0  0  0  0  0  0
   21.2582   19.0653   25.2427 H   0  0  0  0  0  0  0  0  0  0  0  0
   20.4747   20.5273   23.8795 C   0  0  0  0  0  0  0  0  0  0  0  0
   20.2448   21.2721   24.6529 H   0  0  0  0  0  0  0  0  0  0  0  0
   21.5070   20.7473   23.5824 H   0  0  0  0  0  0  0  0  0  0  0  0
   19.5188   20.7720   22.6820 C   0  0  0  0  0  0  0  0  0  0  0  0
   19.2686   21.8416   22.6886 H   0  0  0  0  0  0  0  0  0  0  0  0
   18.5644   20.2503   22.8351 H   0  0  0  0  0  0  0  0  0  0  0  0
   20.1139   20.4564   21.2814 C   0  0  0  0  0  0  0  0  0  0  0  0
   21.1757   20.7317   21.2295 H   0  0  0  0  0  0  0  0  0  0  0  0
   19.6069   21.1168   20.5645 H   0  0  0  0  0  0  0  0  0  0  0  0
   19.1998   19.0627   25.3204 O   0  0  0  0  0  0  0  0  0  0  0  0
   19.2030   18.1926   25.7701 H   0  0  0  0  0  0  0  0  0  0  0  0
  1  2  1  0  0  0  0
  1  3  1  0  0  0  0
  1  4  1  0  0  0  0
  4  5  1  0  0  0  0
  4  6  1  0  0  0  0
  4  7  1  0  0  0  0
  7  8  1  0  0  0  0
  7  9  1  0  0  0  0
  7 10  1  0  0  0  0
 10 11  1  0  0  0  0
 10 12  1  0  0  0  0
 10 13  1  0  0  0  0
 13 14  1  0  0  0  0
 13 15  1  0  0  0  0
 15 16  1  0  0  0  0
 15 17  1  0  0  0  0
 15 18  1  0  0  0  0
 18 19  1  0  0  0  0
 18 20  1  0  0  0  0
  1 21  1  0  0  0  0
 18 21  1  0  0  0  0
 21 22  1  0  0  0  0
 21 23  1  0  0  0  0
 13 24  1  0  0  0  0
 24 25  1  0  0  0  0
M  END
> <VM2 Rank>
81

> <Conf_Id>
190

> <Probability>
0.10

> <Sum Probability>
99.55

> <Delta G>
2.275

> <G>
64.350

> <E>
32.026

> <-TS>
32.324

> <U+W>
11.459

> <U>
13.691

> <W>
-2.232

> <W(PB)>
-4.350

> <W(SA)>
2.119

> <Valence>
18.570

> <Coulomb>
-7.751

> <VdW>
2.872

> <VdW6>
-12.549

> <VdW12>
15.421

> <Bond>
0.436

> <Angle>
4.707

> <Pdih>
13.427

> <Idih>
0.000

> <Tether>
0.000

$$$$
VeraChem MOL file


 25 25  0  0  0  0  0  0  0  0999 V2000     
   19.8559   19.0552   20.7905 C   0  0  0  0  0  0  0  0  0  0  0  0
   18.9108   18.6553   21.1791 H   0  0  0  0  0  0  0  0  0  0  0  0
   19.7803   18.9437   19.7002 H   0  0  0  0  0  0  0  0  0  0  0  0
   21.0387   18.1831   21.2801 C   0  0  0  0  0  0  0  0  0  0  0  0
   21.9846   18.7376   21.2186 H   0  0  0  0  0  0  0  0  0  0  0  0
   21.1404   17.3545   20.5659 H   0  0  0  0  0  0  0  0  0  0  0  0
   20.8507   17.5454   22.6849 C   0  0  0  0  0  0  0  0  0  0  0  0
   21.4287   16.6113   22.6910 H   0  0  0  0  0  0  0  0  0  0  0  0
   19.8077   17.2417   22.8471 H   0  0  0  0  0  0  0  0  0  0  0  0
   21.3640   18.3986   23.8749 C   0  0  0  0  0  0  0  0  0  0  0  0
   21.7328   17.7121   24.6485 H   0  0  0  0  0  0  0  0  0  0  0  0
   22.2481   18.9703   23.5687 H   0  0  0  0  0  0  0  0  0  0  0  0
   20.3330   19.3348   24.5583 C   0  0  0  0  0  0  0  0  0  0  0  0
   20.8970   19.9930   25.2349 H   0  0  0  0  0  0  0  0  0  0  0  0
   19.4949   20.2333   23.6199 C   0  0  0  0  0  0  0  0  0  0  0  0
   18.6914   19.6436   23.1642 H   0  0  0  0  0  0  0  0  0  0  0  0
   18.9832   20.9823   24.2379 H   0  0  0  0  0  0  0  0  0  0  0  0
   20.3209   20.9761   22.5371 C   0  0  0  0  0  0  0  0  0  0  0  0
   21.3965   20.8434   22.7017 H   0  0  0  0  0  0  0  0  0  0  0  0
   20.1522   22.0564   22.6432 H   0  0  0  0  0  0  0  0  0  0  0  0
   19.9678   20.5745   21.0847 C   0  0  0  0  0  0  0  0  0  0  0  0
   20.7203   21.0116   20.4142 H   0  0  0  0  0  0  0  0  0  0  0  0
   19.0142   21.0461   20.8108 H   0  0  0  0  0  0  0  0  0  0  0  0
   19.4380   18.5420   25.3298 O   0  0  0  0  0  0  0  0  0  0  0  0
   18.8294   19.1625   25.7815 H   0  0  0  0  0  0  0  0  0  0  0  0
  1  2  1  0  0  0  0
  1  3  1  0  0  0  0
  1  4  1  0  0  0  0
  4  5  1  0  0  0  0
  4  6  1  0  0  0  0
  4  7  1  0  0  0  0
  7  8  1  0  0  0  0
  7  9  1  0  0  0  0
  7 10  1  0  0  0  0
 10 11  1  0  0  0  0
 10 12  1  0  0  0  0
 10 13  1  0  0  0  0
 13 14  1  0  0  0  0
 13 15  1  0  0  0  0
 15 16  1  0  0  0  0
 15 17  1  0  0  0  0
 15 18  1  0  0  0  0
 18 19  1  0  0  0  0
 18 20  1  0  0  0  0
  1 21  1  0  0  0  0
 18 21  1  0  0  0  0
 21 22  1  0  0  0  0
 21 23  1  0  0  0  0
 13 24  1  0  0  0  0
 24 25  1  0  0  0  0
M  END
> <VM2 Rank>
82

> <Conf_Id>
216

> <Probability>
0.10

> <Sum Probability>
99.64

> <Delta G>
2.299

> <G>
64.375

> <E>
32.051

> <-TS>
32.324

> <U+W>
11.483

> <U>
13.691

> <W>
-2.207

> <W(PB)>
-4.339

> <W(SA)>
2.132

> <Valence>
18.570

> <Coulomb>
-7.751

> <VdW>
2.872

> <VdW6>
-12.549

> <VdW12>
15.421

> <Bond>
0.436

> <Angle>
4.706

> <Pdih>
13.427

> <Idih>
0.000

> <Tether>
0.000

$$$$
VeraChem MOL file


 25 25  0  0  0  0  0  0  0  0999 V2000     
   20.2304   19.1458   20.6106 C   0  0  0  0  0  0  0  0  0  0  0  0
   19.1914   18.8022   20.5160 H   0  0  0  0  0  0  0  0  0  0  0  0
   20.5795   19.3199   19.5837 H   0  0  0  0  0  0  0  0  0  0  0  0
   21.1061   18.0239   21.2155 C   0  0  0  0  0  0  0  0  0  0  0  0
   21.0231   17.1505   20.5542 H   0  0  0  0  0  0  0  0  0  0  0  0
   22.1648   18.3148   21.1881 H   0  0  0  0  0  0  0  0  0  0  0  0
   20.7081   17.5803   22.6431 C   0  0  0  0  0  0  0  0  0  0  0  0
   21.0467   16.5431   22.7701 H   0  0  0  0  0  0  0  0  0  0  0  0
   19.6154   17.5377   22.7355 H   0  0  0  0  0  0  0  0  0  0  0  0
   21.3561   18.4199   23.7828 C   0  0  0  0  0  0  0  0  0  0  0  0
   21.8205   17.7171   24.4866 H   0  0  0  0  0  0  0  0  0  0  0  0
   22.1854   19.0244   23.3949 H   0  0  0  0  0  0  0  0  0  0  0  0
   20.4114   19.3224   24.6153 C   0  0  0  0  0  0  0  0  0  0  0  0
   20.9600   19.5843   25.5316 H   0  0  0  0  0  0  0  0  0  0  0  0
   20.0262   20.6656   23.9518 C   0  0  0  0  0  0  0  0  0  0  0  0
   19.3652   21.1997   24.6468 H   0  0  0  0  0  0  0  0  0  0  0  0
   20.9203   21.2963   23.8655 H   0  0  0  0  0  0  0  0  0  0  0  0
   19.3128   20.5782   22.5794 C   0  0  0  0  0  0  0  0  0  0  0  0
   18.7141   21.4916   22.4610 H   0  0  0  0  0  0  0  0  0  0  0  0
   18.5873   19.7540   22.5750 H   0  0  0  0  0  0  0  0  0  0  0  0
   20.2773   20.4933   21.3669 C   0  0  0  0  0  0  0  0  0  0  0  0
   19.9868   21.2799   20.6571 H   0  0  0  0  0  0  0  0  0  0  0  0
   21.3099   20.7289   21.6567 H   0  0  0  0  0  0  0  0  0  0  0  0
   19.2355   18.6136   24.9946 O   0  0  0  0  0  0  0  0  0  0  0  0
   18.6779   19.2424   25.4962 H   0  0  0  0  0  0  0  0  0  0  0  0
  1  2  1  0  0  0  0
  1  3  1  0  0  0  0
  1  4  1  0  0  0  0
  4  5  1  0  0  0  0
  4  6  1  0  0  0  0
  4  7  1  0  0  0  0
  7  8  1  0  0  0  0
  7  9  1  0  0  0  0
  7 10  1  0  0  0  0
 10 11  1  0  0  0  0
 10 12  1  0  0  0  0
 10 13  1  0  0  0  0
 13 14  1  0  0  0  0
 13 15  1  0  0  0  0
 15 16  1  0  0  0  0
 15 17  1  0  0  0  0
 15 18  1  0  0  0  0
 18 19  1  0  0  0  0
 18 20  1  0  0  0  0
  1 21  1  0  0  0  0
 18 21  1  0  0  0  0
 21 22  1  0  0  0  0
 21 23  1  0  0  0  0
 13 24  1  0  0  0  0
 24 25  1  0  0  0  0
M  END
> <VM2 Rank>
83

> <Conf_Id>
1023

> <Probability>
0.10

> <Sum Probability>
99.74

> <Delta G>
2.303

> <G>
64.379

> <E>
32.413

> <-TS>
31.966

> <U+W>
11.846

> <U>
14.106

> <W>
-2.260

> <W(PB)>
-4.387

> <W(SA)>
2.127

> <Valence>
19.023

> <Coulomb>
-7.308

> <VdW>
2.391

> <VdW6>
-12.497

> <VdW12>
14.887

> <Bond>
0.377

> <Angle>
4.356

> <Pdih>
14.291

> <Idih>
0.000

> <Tether>
0.000

$$$$
VeraChem MOL file


 25 25  0  0  0  0  0  0  0  0999 V2000     
   19.6658   18.9852   21.1023 C   0  0  0  0  0  0  0  0  0  0  0  0
   18.7157   18.8126   21.6172 H   0  0  0  0  0  0  0  0  0  0  0  0
   19.4039   18.8913   20.0393 H   0  0  0  0  0  0  0  0  0  0  0  0
   20.6854   17.8553   21.4058 C   0  0  0  0  0  0  0  0  0  0  0  0
   21.2764   17.7005   20.4925 H   0  0  0  0  0  0  0  0  0  0  0  0
   20.1443   16.9125   21.5645 H   0  0  0  0  0  0  0  0  0  0  0  0
   21.6978   18.0726   22.5584 C   0  0  0  0  0  0  0  0  0  0  0  0
   22.2657   18.9981   22.4128 H   0  0  0  0  0  0  0  0  0  0  0  0
   22.4502   17.2768   22.4720 H   0  0  0  0  0  0  0  0  0  0  0  0
   21.1339   17.9947   24.0002 C   0  0  0  0  0  0  0  0  0  0  0  0
   20.6419   17.0240   24.1474 H   0  0  0  0  0  0  0  0  0  0  0  0
   21.9954   17.9862   24.6806 H   0  0  0  0  0  0  0  0  0  0  0  0
   20.1906   19.1232   24.4838 C   0  0  0  0  0  0  0  0  0  0  0  0
   20.3039   19.1553   25.5771 H   0  0  0  0  0  0  0  0  0  0  0  0
   20.5205   20.5484   23.9625 C   0  0  0  0  0  0  0  0  0  0  0  0
   20.2723   21.2404   24.7777 H   0  0  0  0  0  0  0  0  0  0  0  0
   21.6030   20.6593   23.8245 H   0  0  0  0  0  0  0  0  0  0  0  0
   19.7650   21.0570   22.7001 C   0  0  0  0  0  0  0  0  0  0  0  0
   19.9573   22.1361   22.6271 H   0  0  0  0  0  0  0  0  0  0  0  0
   18.6798   20.9745   22.8481 H   0  0  0  0  0  0  0  0  0  0  0  0
   20.1590   20.4356   21.3350 C   0  0  0  0  0  0  0  0  0  0  0  0
   21.2383   20.5241   21.1581 H   0  0  0  0  0  0  0  0  0  0  0  0
   19.6950   21.0614   20.5602 H   0  0  0  0  0  0  0  0  0  0  0  0
   18.8459   18.7711   24.2119 O   0  0  0  0  0  0  0  0  0  0  0  0
   18.7995   18.7600   23.2376 H   0  0  0  0  0  0  0  0  0  0  0  0
  1  2  1  0  0  0  0
  1  3  1  0  0  0  0
  1  4  1  0  0  0  0
  4  5  1  0  0  0  0
  4  6  1  0  0  0  0
  4  7  1  0  0  0  0
  7  8  1  0  0  0  0
  7  9  1  0  0  0  0
  7 10  1  0  0  0  0
 10 11  1  0  0  0  0
 10 12  1  0  0  0  0
 10 13  1  0  0  0  0
 13 14  1  0  0  0  0
 13 15  1  0  0  0  0
 15 16  1  0  0  0  0
 15 17  1  0  0  0  0
 15 18  1  0  0  0  0
 18 19  1  0  0  0  0
 18 20  1  0  0  0  0
  1 21  1  0  0  0  0
 18 21  1  0  0  0  0
 21 22  1  0  0  0  0
 21 23  1  0  0  0  0
 13 24  1  0  0  0  0
 24 25  1  0  0  0  0
M  END
> <VM2 Rank>
84

> <Conf_Id>
538

> <Probability>
0.07

> <Sum Probability>
99.81

> <Delta G>
2.469

> <G>
64.544

> <E>
31.741

> <-TS>
32.803

> <U+W>
11.174

> <U>
12.093

> <W>
-0.919

> <W(PB)>
-3.032

> <W(SA)>
2.112

> <Valence>
19.645

> <Coulomb>
-9.929

> <VdW>
2.377

> <VdW6>
-13.908

> <VdW12>
16.285

> <Bond>
0.498

> <Angle>
8.148

> <Pdih>
11.000

> <Idih>
0.000

> <Tether>
0.000

$$$$
VeraChem MOL file


 25 25  0  0  0  0  0  0  0  0999 V2000     
   20.3883   19.3405   20.7189 C   0  0  0  0  0  0  0  0  0  0  0  0
   19.8739   18.7618   19.9397 H   0  0  0  0  0  0  0  0  0  0  0  0
   20.9579   20.1143   20.1868 H   0  0  0  0  0  0  0  0  0  0  0  0
   21.3784   18.3873   21.4363 C   0  0  0  0  0  0  0  0  0  0  0  0
   21.8327   17.7508   20.6647 H   0  0  0  0  0  0  0  0  0  0  0  0
   22.2197   18.9532   21.8522 H   0  0  0  0  0  0  0  0  0  0  0  0
   20.7559   17.4673   22.5195 C   0  0  0  0  0  0  0  0  0  0  0  0
   21.1986   16.4696   22.3959 H   0  0  0  0  0  0  0  0  0  0  0  0
   19.6809   17.3212   22.3572 H   0  0  0  0  0  0  0  0  0  0  0  0
   21.0430   17.9108   23.9800 C   0  0  0  0  0  0  0  0  0  0  0  0
   22.1273   18.0278   24.1053 H   0  0  0  0  0  0  0  0  0  0  0  0
   20.7663   17.0825   24.6450 H   0  0  0  0  0  0  0  0  0  0  0  0
   20.3474   19.1921   24.5106 C   0  0  0  0  0  0  0  0  0  0  0  0
   20.7157   19.3116   25.5398 H   0  0  0  0  0  0  0  0  0  0  0  0
   20.7320   20.5038   23.7716 C   0  0  0  0  0  0  0  0  0  0  0  0
   20.7929   21.2948   24.5300 H   0  0  0  0  0  0  0  0  0  0  0  0
   21.7537   20.4232   23.3868 H   0  0  0  0  0  0  0  0  0  0  0  0
   19.7848   21.0247   22.6539 C   0  0  0  0  0  0  0  0  0  0  0  0
   20.2732   21.8672   22.1465 H   0  0  0  0  0  0  0  0  0  0  0  0
   18.8940   21.4464   23.1392 H   0  0  0  0  0  0  0  0  0  0  0  0
   19.2964   20.0124   21.5881 C   0  0  0  0  0  0  0  0  0  0  0  0
   18.6245   20.5545   20.9092 H   0  0  0  0  0  0  0  0  0  0  0  0
   18.6587   19.2536   22.0540 H   0  0  0  0  0  0  0  0  0  0  0  0
   18.9377   19.0041   24.5811 O   0  0  0  0  0  0  0  0  0  0  0  0
   18.7915   18.1433   25.0220 H   0  0  0  0  0  0  0  0  0  0  0  0
  1  2  1  0  0  0  0
  1  3  1  0  0  0  0
  1  4  1  0  0  0  0
  4  5  1  0  0  0  0
  4  6  1  0  0  0  0
  4  7  1  0  0  0  0
  7  8  1  0  0  0  0
  7  9  1  0  0  0  0
  7 10  1  0  0  0  0
 10 11  1  0  0  0  0
 10 12  1  0  0  0  0
 10 13  1  0  0  0  0
 13 14  1  0  0  0  0
 13 15  1  0  0  0  0
 15 16  1  0  0  0  0
 15 17  1  0  0  0  0
 15 18  1  0  0  0  0
 18 19  1  0  0  0  0
 18 20  1  0  0  0  0
  1 21  1  0  0  0  0
 18 21  1  0  0  0  0
 21 22  1  0  0  0  0
 21 23  1  0  0  0  0
 13 24  1  0  0  0  0
 24 25  1  0  0  0  0
M  END
> <VM2 Rank>
85

> <Conf_Id>
319

> <Probability>
0.02

> <Sum Probability>
99.83

> <Delta G>
3.276

> <G>
65.351

> <E>
32.519

> <-TS>
32.832

> <U+W>
11.951

> <U>
13.952

> <W>
-2.000

> <W(PB)>
-4.130

> <W(SA)>
2.130

> <Valence>
17.543

> <Coulomb>
-6.274

> <VdW>
2.682

> <VdW6>
-13.612

> <VdW12>
16.294

> <Bond>
0.512

> <Angle>
7.073

> <Pdih>
9.959

> <Idih>
0.000

> <Tether>
0.000

$$$$
VeraChem MOL file


 25 25  0  0  0  0  0  0  0  0999 V2000     
   20.4829   19.1510   20.7215 C   0  0  0  0  0  0  0  0  0  0  0  0
   19.7176   19.1482   19.9334 H   0  0  0  0  0  0  0  0  0  0  0  0
   21.4446   19.0445   20.2018 H   0  0  0  0  0  0  0  0  0  0  0  0
   20.2358   17.9036   21.6060 C   0  0  0  0  0  0  0  0  0  0  0  0
   19.2401   17.9486   22.0599 H   0  0  0  0  0  0  0  0  0  0  0  0
   20.1928   17.0322   20.9390 H   0  0  0  0  0  0  0  0  0  0  0  0
   21.3012   17.5998   22.6884 C   0  0  0  0  0  0  0  0  0  0  0  0
   22.2589   17.3873   22.1950 H   0  0  0  0  0  0  0  0  0  0  0  0
   21.0086   16.6640   23.1839 H   0  0  0  0  0  0  0  0  0  0  0  0
   21.5401   18.6670   23.7937 C   0  0  0  0  0  0  0  0  0  0  0  0
   22.1577   18.1912   24.5661 H   0  0  0  0  0  0  0  0  0  0  0  0
   22.1720   19.4718   23.4044 H   0  0  0  0  0  0  0  0  0  0  0  0
   20.3025   19.2751   24.5099 C   0  0  0  0  0  0  0  0  0  0  0  0
   20.6268   19.4821   25.5401 H   0  0  0  0  0  0  0  0  0  0  0  0
   19.8282   20.6437   23.9541 C   0  0  0  0  0  0  0  0  0  0  0  0
   19.0216   21.0056   24.6048 H   0  0  0  0  0  0  0  0  0  0  0  0
   20.6426   21.3693   24.0783 H   0  0  0  0  0  0  0  0  0  0  0  0
   19.3236   20.7085   22.4867 C   0  0  0  0  0  0  0  0  0  0  0  0
   18.8845   21.7052   22.3437 H   0  0  0  0  0  0  0  0  0  0  0  0
   18.4943   20.0089   22.3250 H   0  0  0  0  0  0  0  0  0  0  0  0
   20.4354   20.5350   21.4185 C   0  0  0  0  0  0  0  0  0  0  0  0
   20.2787   21.2880   20.6341 H   0  0  0  0  0  0  0  0  0  0  0  0
   21.4152   20.7830   21.8420 H   0  0  0  0  0  0  0  0  0  0  0  0
   19.2144   18.3593   24.5812 O   0  0  0  0  0  0  0  0  0  0  0  0
   18.4742   18.8362   25.0071 H   0  0  0  0  0  0  0  0  0  0  0  0
  1  2  1  0  0  0  0
  1  3  1  0  0  0  0
  1  4  1  0  0  0  0
  4  5  1  0  0  0  0
  4  6  1  0  0  0  0
  4  7  1  0  0  0  0
  7  8  1  0  0  0  0
  7  9  1  0  0  0  0
  7 10  1  0  0  0  0
 10 11  1  0  0  0  0
 10 12  1  0  0  0  0
 10 13  1  0  0  0  0
 13 14  1  0  0  0  0
 13 15  1  0  0  0  0
 15 16  1  0  0  0  0
 15 17  1  0  0  0  0
 15 18  1  0  0  0  0
 18 19  1  0  0  0  0
 18 20  1  0  0  0  0
  1 21  1  0  0  0  0
 18 21  1  0  0  0  0
 21 22  1  0  0  0  0
 21 23  1  0  0  0  0
 13 24  1  0  0  0  0
 24 25  1  0  0  0  0
M  END
> <VM2 Rank>
86

> <Conf_Id>
613

> <Probability>
0.02

> <Sum Probability>
99.85

> <Delta G>
3.276

> <G>
65.352

> <E>
32.520

> <-TS>
32.832

> <U+W>
11.952

> <U>
13.952

> <W>
-2.000

> <W(PB)>
-4.114

> <W(SA)>
2.114

> <Valence>
17.543

> <Coulomb>
-6.274

> <VdW>
2.682

> <VdW6>
-13.612

> <VdW12>
16.294

> <Bond>
0.512

> <Angle>
7.073

> <Pdih>
9.958

> <Idih>
0.000

> <Tether>
0.000

$$$$
VeraChem MOL file


 25 25  0  0  0  0  0  0  0  0999 V2000     
   20.1389   19.1372   20.7694 C   0  0  0  0  0  0  0  0  0  0  0  0
   21.0409   19.4777   20.2426 H   0  0  0  0  0  0  0  0  0  0  0  0
   19.4271   18.8639   19.9784 H   0  0  0  0  0  0  0  0  0  0  0  0
   20.4844   17.8477   21.5604 C   0  0  0  0  0  0  0  0  0  0  0  0
   19.5925   17.3911   22.0043 H   0  0  0  0  0  0  0  0  0  0  0  0
   20.8223   17.1121   20.8174 H   0  0  0  0  0  0  0  0  0  0  0  0
   21.6274   18.0014   22.5968 C   0  0  0  0  0  0  0  0  0  0  0  0
   22.3002   18.8162   22.3082 H   0  0  0  0  0  0  0  0  0  0  0  0
   22.2560   17.1027   22.5317 H   0  0  0  0  0  0  0  0  0  0  0  0
   21.2066   18.1385   24.0871 C   0  0  0  0  0  0  0  0  0  0  0  0
   20.9031   17.1456   24.4449 H   0  0  0  0  0  0  0  0  0  0  0  0
   22.1023   18.3922   24.6686 H   0  0  0  0  0  0  0  0  0  0  0  0
   20.0831   19.1301   24.4834 C   0  0  0  0  0  0  0  0  0  0  0  0
   20.0569   19.1243   25.5826 H   0  0  0  0  0  0  0  0  0  0  0  0
   20.2663   20.6148   24.0777 C   0  0  0  0  0  0  0  0  0  0  0  0
   19.3795   21.1584   24.4297 H   0  0  0  0  0  0  0  0  0  0  0  0
   21.1032   21.0234   24.6586 H   0  0  0  0  0  0  0  0  0  0  0  0
   20.4938   20.9868   22.5855 C   0  0  0  0  0  0  0  0  0  0  0  0
   21.5386   20.8220   22.3005 H   0  0  0  0  0  0  0  0  0  0  0  0
   20.3676   22.0757   22.5129 H   0  0  0  0  0  0  0  0  0  0  0  0
   19.5395   20.3362   21.5510 C   0  0  0  0  0  0  0  0  0  0  0  0
   18.5681   20.0887   21.9940 H   0  0  0  0  0  0  0  0  0  0  0  0
   19.3058   21.1057   20.8023 H   0  0  0  0  0  0  0  0  0  0  0  0
   18.8240   18.6504   24.0486 O   0  0  0  0  0  0  0  0  0  0  0  0
   18.8911   18.6721   23.0721 H   0  0  0  0  0  0  0  0  0  0  0  0
  1  2  1  0  0  0  0
  1  3  1  0  0  0  0
  1  4  1  0  0  0  0
  4  5  1  0  0  0  0
  4  6  1  0  0  0  0
  4  7  1  0  0  0  0
  7  8  1  0  0  0  0
  7  9  1  0  0  0  0
  7 10  1  0  0  0  0
 10 11  1  0  0  0  0
 10 12  1  0  0  0  0
 10 13  1  0  0  0  0
 13 14  1  0  0  0  0
 13 15  1  0  0  0  0
 15 16  1  0  0  0  0
 15 17  1  0  0  0  0
 15 18  1  0  0  0  0
 18 19  1  0  0  0  0
 18 20  1  0  0  0  0
  1 21  1  0  0  0  0
 18 21  1  0  0  0  0
 21 22  1  0  0  0  0
 21 23  1  0  0  0  0
 13 24  1  0  0  0  0
 24 25  1  0  0  0  0
M  END
> <VM2 Rank>
87

> <Conf_Id>
350

> <Probability>
0.02

> <Sum Probability>
99.87

> <Delta G>
3.344

> <G>
65.419

> <E>
32.133

> <-TS>
33.286

> <U+W>
11.566

> <U>
12.383

> <W>
-0.817

> <W(PB)>
-2.935

> <W(SA)>
2.118

> <Valence>
20.110

> <Coulomb>
-10.324

> <VdW>
2.596

> <VdW6>
-14.356

> <VdW12>
16.952

> <Bond>
0.540

> <Angle>
9.254

> <Pdih>
10.316

> <Idih>
0.000

> <Tether>
0.000

$$$$
VeraChem MOL file


 25 25  0  0  0  0  0  0  0  0999 V2000     
   19.6108   18.8865   21.1993 C   0  0  0  0  0  0  0  0  0  0  0  0
   18.8996   18.4772   21.9253 H   0  0  0  0  0  0  0  0  0  0  0  0
   19.1863   18.6367   20.2176 H   0  0  0  0  0  0  0  0  0  0  0  0
   20.9858   18.1870   21.3303 C   0  0  0  0  0  0  0  0  0  0  0  0
   21.0284   17.3935   20.5718 H   0  0  0  0  0  0  0  0  0  0  0  0
   21.8049   18.8727   21.0777 H   0  0  0  0  0  0  0  0  0  0  0  0
   21.2343   17.5184   22.7054 C   0  0  0  0  0  0  0  0  0  0  0  0
   22.1351   16.8976   22.6064 H   0  0  0  0  0  0  0  0  0  0  0  0
   20.4217   16.8122   22.9209 H   0  0  0  0  0  0  0  0  0  0  0  0
   21.4584   18.4673   23.9186 C   0  0  0  0  0  0  0  0  0  0  0  0
   21.8324   17.8423   24.7399 H   0  0  0  0  0  0  0  0  0  0  0  0
   22.2811   19.1609   23.7090 H   0  0  0  0  0  0  0  0  0  0  0  0
   20.2315   19.2405   24.4798 C   0  0  0  0  0  0  0  0  0  0  0  0
   20.4539   19.4094   25.5435 H   0  0  0  0  0  0  0  0  0  0  0  0
   19.9574   20.6586   23.9032 C   0  0  0  0  0  0  0  0  0  0  0  0
   18.8822   20.8734   23.9614 H   0  0  0  0  0  0  0  0  0  0  0  0
   20.4276   21.3711   24.5932 H   0  0  0  0  0  0  0  0  0  0  0  0
   20.4750   21.0112   22.4829 C   0  0  0  0  0  0  0  0  0  0  0  0
   21.5368   20.7632   22.3778 H   0  0  0  0  0  0  0  0  0  0  0  0
   20.4364   22.1046   22.3854 H   0  0  0  0  0  0  0  0  0  0  0  0
   19.6584   20.4281   21.3054 C   0  0  0  0  0  0  0  0  0  0  0  0
   18.6300   20.8110   21.3541 H   0  0  0  0  0  0  0  0  0  0  0  0
   20.0822   20.8234   20.3723 H   0  0  0  0  0  0  0  0  0  0  0  0
   19.0524   18.4454   24.4351 O   0  0  0  0  0  0  0  0  0  0  0  0
   19.3129   17.5510   24.7332 H   0  0  0  0  0  0  0  0  0  0  0  0
  1  2  1  0  0  0  0
  1  3  1  0  0  0  0
  1  4  1  0  0  0  0
  4  5  1  0  0  0  0
  4  6  1  0  0  0  0
  4  7  1  0  0  0  0
  7  8  1  0  0  0  0
  7  9  1  0  0  0  0
  7 10  1  0  0  0  0
 10 11  1  0  0  0  0
 10 12  1  0  0  0  0
 10 13  1  0  0  0  0
 13 14  1  0  0  0  0
 13 15  1  0  0  0  0
 15 16  1  0  0  0  0
 15 17  1  0  0  0  0
 15 18  1  0  0  0  0
 18 19  1  0  0  0  0
 18 20  1  0  0  0  0
  1 21  1  0  0  0  0
 18 21  1  0  0  0  0
 21 22  1  0  0  0  0
 21 23  1  0  0  0  0
 13 24  1  0  0  0  0
 24 25  1  0  0  0  0
M  END
> <VM2 Rank>
88

> <Conf_Id>
1828

> <Probability>
0.01

> <Sum Probability>
99.88

> <Delta G>
3.525

> <G>
65.601

> <E>
33.004

> <-TS>
32.597

> <U+W>
12.436

> <U>
14.381

> <W>
-1.944

> <W(PB)>
-4.045

> <W(SA)>
2.101

> <Valence>
18.713

> <Coulomb>
-6.942

> <VdW>
2.610

> <VdW6>
-13.510

> <VdW12>
16.120

> <Bond>
0.503

> <Angle>
7.222

> <Pdih>
10.987

> <Idih>
0.000

> <Tether>
0.000

$$$$
VeraChem MOL file


 25 25  0  0  0  0  0  0  0  0999 V2000     
   20.7970   19.5134   20.9897 C   0  0  0  0  0  0  0  0  0  0  0  0
   20.8623   19.7194   19.9127 H   0  0  0  0  0  0  0  0  0  0  0  0
   21.6088   20.1001   21.4341 H   0  0  0  0  0  0  0  0  0  0  0  0
   21.0664   18.0043   21.2048 C   0  0  0  0  0  0  0  0  0  0  0  0
   20.5143   17.4397   20.4412 H   0  0  0  0  0  0  0  0  0  0  0  0
   22.1296   17.8111   21.0077 H   0  0  0  0  0  0  0  0  0  0  0  0
   20.6956   17.4167   22.5923 C   0  0  0  0  0  0  0  0  0  0  0  0
   21.0790   16.3876   22.6133 H   0  0  0  0  0  0  0  0  0  0  0  0
   19.6087   17.3053   22.6878 H   0  0  0  0  0  0  0  0  0  0  0  0
   21.2771   18.1608   23.8259 C   0  0  0  0  0  0  0  0  0  0  0  0
   21.4543   17.4038   24.6007 H   0  0  0  0  0  0  0  0  0  0  0  0
   22.2696   18.5635   23.5870 H   0  0  0  0  0  0  0  0  0  0  0  0
   20.4008   19.2609   24.4910 C   0  0  0  0  0  0  0  0  0  0  0  0
   20.8226   19.3925   25.4980 H   0  0  0  0  0  0  0  0  0  0  0  0
   20.4777   20.6624   23.8336 C   0  0  0  0  0  0  0  0  0  0  0  0
   20.3110   21.4044   24.6252 H   0  0  0  0  0  0  0  0  0  0  0  0
   21.5077   20.8445   23.5048 H   0  0  0  0  0  0  0  0  0  0  0  0
   19.4846   20.9930   22.6823 C   0  0  0  0  0  0  0  0  0  0  0  0
   19.7522   21.9803   22.2820 H   0  0  0  0  0  0  0  0  0  0  0  0
   18.4744   21.1073   23.0977 H   0  0  0  0  0  0  0  0  0  0  0  0
   19.4158   19.9925   21.5032 C   0  0  0  0  0  0  0  0  0  0  0  0
   18.7827   19.1420   21.7815 H   0  0  0  0  0  0  0  0  0  0  0  0
   18.8814   20.4784   20.6757 H   0  0  0  0  0  0  0  0  0  0  0  0
   19.0488   18.8391   24.6373 O   0  0  0  0  0  0  0  0  0  0  0  0
   18.5453   19.6275   24.9227 H   0  0  0  0  0  0  0  0  0  0  0  0
  1  2  1  0  0  0  0
  1  3  1  0  0  0  0
  1  4  1  0  0  0  0
  4  5  1  0  0  0  0
  4  6  1  0  0  0  0
  4  7  1  0  0  0  0
  7  8  1  0  0  0  0
  7  9  1  0  0  0  0
  7 10  1  0  0  0  0
 10 11  1  0  0  0  0
 10 12  1  0  0  0  0
 10 13  1  0  0  0  0
 13 14  1  0  0  0  0
 13 15  1  0  0  0  0
 15 16  1  0  0  0  0
 15 17  1  0  0  0  0
 15 18  1  0  0  0  0
 18 19  1  0  0  0  0
 18 20  1  0  0  0  0
  1 21  1  0  0  0  0
 18 21  1  0  0  0  0
 21 22  1  0  0  0  0
 21 23  1  0  0  0  0
 13 24  1  0  0  0  0
 24 25  1  0  0  0  0
M  END
> <VM2 Rank>
89

> <Conf_Id>
1810

> <Probability>
0.01

> <Sum Probability>
99.89

> <Delta G>
3.531

> <G>
65.607

> <E>
33.220

> <-TS>
32.387

> <U+W>
12.653

> <U>
14.604

> <W>
-1.952

> <W(PB)>
-4.077

> <W(SA)>
2.125

> <Valence>
18.883

> <Coulomb>
-7.234

> <VdW>
2.956

> <VdW6>
-13.442

> <VdW12>
16.398

> <Bond>
0.515

> <Angle>
6.285

> <Pdih>
12.082

> <Idih>
0.000

> <Tether>
0.000

$$$$
VeraChem MOL file


 25 25  0  0  0  0  0  0  0  0999 V2000     
   20.8929   19.3552   20.9984 C   0  0  0  0  0  0  0  0  0  0  0  0
   21.1067   19.2580   19.9253 H   0  0  0  0  0  0  0  0  0  0  0  0
   21.8661   19.5610   21.4578 H   0  0  0  0  0  0  0  0  0  0  0  0
   20.3058   18.0156   21.5102 C   0  0  0  0  0  0  0  0  0  0  0  0
   19.2465   18.1239   21.7703 H   0  0  0  0  0  0  0  0  0  0  0  0
   20.3175   17.2884   20.6870 H   0  0  0  0  0  0  0  0  0  0  0  0
   21.0708   17.3982   22.7058 C   0  0  0  0  0  0  0  0  0  0  0  0
   21.9865   16.9271   22.3235 H   0  0  0  0  0  0  0  0  0  0  0  0
   20.4666   16.5781   23.1162 H   0  0  0  0  0  0  0  0  0  0  0  0
   21.4780   18.3610   23.8583 C   0  0  0  0  0  0  0  0  0  0  0  0
   21.8998   17.7420   24.6608 H   0  0  0  0  0  0  0  0  0  0  0  0
   22.3128   18.9963   23.5396 H   0  0  0  0  0  0  0  0  0  0  0  0
   20.3811   19.2540   24.4923 C   0  0  0  0  0  0  0  0  0  0  0  0
   20.7462   19.4824   25.5042 H   0  0  0  0  0  0  0  0  0  0  0  0
   20.1718   20.6390   23.8154 C   0  0  0  0  0  0  0  0  0  0  0  0
   19.7200   21.2852   24.5791 H   0  0  0  0  0  0  0  0  0  0  0  0
   21.1425   21.0983   23.5899 H   0  0  0  0  0  0  0  0  0  0  0  0
   19.2508   20.7047   22.5660 C   0  0  0  0  0  0  0  0  0  0  0  0
   18.7499   21.6821   22.5729 H   0  0  0  0  0  0  0  0  0  0  0  0
   18.4337   19.9783   22.6524 H   0  0  0  0  0  0  0  0  0  0  0  0
   19.9576   20.5736   21.1908 C   0  0  0  0  0  0  0  0  0  0  0  0
   20.5357   21.4874   20.9978 H   0  0  0  0  0  0  0  0  0  0  0  0
   19.1811   20.5426   20.4144 H   0  0  0  0  0  0  0  0  0  0  0  0
   19.1552   18.5417   24.6227 O   0  0  0  0  0  0  0  0  0  0  0  0
   19.3924   17.6399   24.9175 H   0  0  0  0  0  0  0  0  0  0  0  0
  1  2  1  0  0  0  0
  1  3  1  0  0  0  0
  1  4  1  0  0  0  0
  4  5  1  0  0  0  0
  4  6  1  0  0  0  0
  4  7  1  0  0  0  0
  7  8  1  0  0  0  0
  7  9  1  0  0  0  0
  7 10  1  0  0  0  0
 10 11  1  0  0  0  0
 10 12  1  0  0  0  0
 10 13  1  0  0  0  0
 13 14  1  0  0  0  0
 13 15  1  0  0  0  0
 15 16  1  0  0  0  0
 15 17  1  0  0  0  0
 15 18  1  0  0  0  0
 18 19  1  0  0  0  0
 18 20  1  0  0  0  0
  1 21  1  0  0  0  0
 18 21  1  0  0  0  0
 21 22  1  0  0  0  0
 21 23  1  0  0  0  0
 13 24  1  0  0  0  0
 24 25  1  0  0  0  0
M  END
> <VM2 Rank>
90

> <Conf_Id>
991

> <Probability>
0.01

> <Sum Probability>
99.90

> <Delta G>
3.595

> <G>
65.671

> <E>
33.286

> <-TS>
32.385

> <U+W>
12.719

> <U>
14.604

> <W>
-1.886

> <W(PB)>
-4.020

> <W(SA)>
2.135

> <Valence>
18.883

> <Coulomb>
-7.234

> <VdW>
2.956

> <VdW6>
-13.441

> <VdW12>
16.397

> <Bond>
0.515

> <Angle>
6.286

> <Pdih>
12.082

> <Idih>
0.000

> <Tether>
0.000

$$$$
VeraChem MOL file


 25 25  0  0  0  0  0  0  0  0999 V2000     
   20.1296   19.1320   20.6779 C   0  0  0  0  0  0  0  0  0  0  0  0
   19.1205   19.0648   20.2489 H   0  0  0  0  0  0  0  0  0  0  0  0
   20.8194   19.0418   19.8277 H   0  0  0  0  0  0  0  0  0  0  0  0
   20.3430   17.9163   21.6120 C   0  0  0  0  0  0  0  0  0  0  0  0
   19.4331   17.7235   22.1876 H   0  0  0  0  0  0  0  0  0  0  0  0
   20.4593   17.0248   20.9806 H   0  0  0  0  0  0  0  0  0  0  0  0
   21.5772   18.0248   22.5407 C   0  0  0  0  0  0  0  0  0  0  0  0
   22.2045   18.8825   22.2728 H   0  0  0  0  0  0  0  0  0  0  0  0
   22.2170   17.1493   22.3650 H   0  0  0  0  0  0  0  0  0  0  0  0
   21.2448   18.0684   24.0546 C   0  0  0  0  0  0  0  0  0  0  0  0
   20.8826   17.0798   24.3669 H   0  0  0  0  0  0  0  0  0  0  0  0
   22.1896   18.2134   24.5943 H   0  0  0  0  0  0  0  0  0  0  0  0
   20.2428   19.1394   24.5634 C   0  0  0  0  0  0  0  0  0  0  0  0
   20.4761   19.2692   25.6301 H   0  0  0  0  0  0  0  0  0  0  0  0
   20.3442   20.5481   23.9220 C   0  0  0  0  0  0  0  0  0  0  0  0
   19.9608   21.2500   24.6743 H   0  0  0  0  0  0  0  0  0  0  0  0
   21.3994   20.8212   23.7944 H   0  0  0  0  0  0  0  0  0  0  0  0
   19.5492   20.8210   22.6075 C   0  0  0  0  0  0  0  0  0  0  0  0
   19.3174   21.8949   22.6064 H   0  0  0  0  0  0  0  0  0  0  0  0
   18.5700   20.3267   22.5982 H   0  0  0  0  0  0  0  0  0  0  0  0
   20.3215   20.5416   21.2954 C   0  0  0  0  0  0  0  0  0  0  0  0
   19.9818   21.2674   20.5437 H   0  0  0  0  0  0  0  0  0  0  0  0
   21.3876   20.7626   21.4324 H   0  0  0  0  0  0  0  0  0  0  0  0
   18.9118   18.6514   24.4865 O   0  0  0  0  0  0  0  0  0  0  0  0
   18.6992   18.6528   23.5326 H   0  0  0  0  0  0  0  0  0  0  0  0
  1  2  1  0  0  0  0
  1  3  1  0  0  0  0
  1  4  1  0  0  0  0
  4  5  1  0  0  0  0
  4  6  1  0  0  0  0
  4  7  1  0  0  0  0
  7  8  1  0  0  0  0
  7  9  1  0  0  0  0
  7 10  1  0  0  0  0
 10 11  1  0  0  0  0
 10 12  1  0  0  0  0
 10 13  1  0  0  0  0
 13 14  1  0  0  0  0
 13 15  1  0  0  0  0
 15 16  1  0  0  0  0
 15 17  1  0  0  0  0
 15 18  1  0  0  0  0
 18 19  1  0  0  0  0
 18 20  1  0  0  0  0
  1 21  1  0  0  0  0
 18 21  1  0  0  0  0
 21 22  1  0  0  0  0
 21 23  1  0  0  0  0
 13 24  1  0  0  0  0
 24 25  1  0  0  0  0
M  END
> <VM2 Rank>
91

> <Conf_Id>
438

> <Probability>
0.01

> <Sum Probability>
99.92

> <Delta G>
3.596

> <G>
65.672

> <E>
33.221

> <-TS>
32.451

> <U+W>
12.653

> <U>
13.786

> <W>
-1.133

> <W(PB)>
-3.259

> <W(SA)>
2.127

> <Valence>
20.491

> <Coulomb>
-9.471

> <VdW>
2.766

> <VdW6>
-13.485

> <VdW12>
16.251

> <Bond>
0.508

> <Angle>
6.902

> <Pdih>
13.080

> <Idih>
0.000

> <Tether>
0.000

$$$$
VeraChem MOL file


 25 25  0  0  0  0  0  0  0  0999 V2000     
   20.8966   19.3604   20.9993 C   0  0  0  0  0  0  0  0  0  0  0  0
   21.1179   19.2677   19.9274 H   0  0  0  0  0  0  0  0  0  0  0  0
   21.8658   19.5672   21.4667 H   0  0  0  0  0  0  0  0  0  0  0  0
   20.3091   18.0179   21.5025 C   0  0  0  0  0  0  0  0  0  0  0  0
   19.2474   18.1226   21.7539 H   0  0  0  0  0  0  0  0  0  0  0  0
   20.3292   17.2930   20.6776 H   0  0  0  0  0  0  0  0  0  0  0  0
   21.0621   17.3968   22.7042 C   0  0  0  0  0  0  0  0  0  0  0  0
   21.9722   16.9097   22.3289 H   0  0  0  0  0  0  0  0  0  0  0  0
   20.4423   16.5898   23.1182 H   0  0  0  0  0  0  0  0  0  0  0  0
   21.4758   18.3543   23.8587 C   0  0  0  0  0  0  0  0  0  0  0  0
   21.8834   17.7273   24.6621 H   0  0  0  0  0  0  0  0  0  0  0  0
   22.3191   18.9809   23.5455 H   0  0  0  0  0  0  0  0  0  0  0  0
   20.3847   19.2540   24.4935 C   0  0  0  0  0  0  0  0  0  0  0  0
   20.7561   19.4878   25.5018 H   0  0  0  0  0  0  0  0  0  0  0  0
   20.1768   20.6359   23.8101 C   0  0  0  0  0  0  0  0  0  0  0  0
   19.7398   21.2949   24.5716 H   0  0  0  0  0  0  0  0  0  0  0  0
   21.1496   21.0852   23.5726 H   0  0  0  0  0  0  0  0  0  0  0  0
   19.2488   20.6995   22.5659 C   0  0  0  0  0  0  0  0  0  0  0  0
   18.7440   21.6751   22.5751 H   0  0  0  0  0  0  0  0  0  0  0  0
   18.4355   19.9688   22.6491 H   0  0  0  0  0  0  0  0  0  0  0  0
   19.9551   20.5742   21.1902 C   0  0  0  0  0  0  0  0  0  0  0  0
   19.1790   20.5394   20.4135 H   0  0  0  0  0  0  0  0  0  0  0  0
   20.5287   21.4910   20.9978 H   0  0  0  0  0  0  0  0  0  0  0  0
   19.1549   18.5501   24.6356 O   0  0  0  0  0  0  0  0  0  0  0  0
   18.5049   19.1952   24.9796 H   0  0  0  0  0  0  0  0  0  0  0  0
  1  2  1  0  0  0  0
  1  3  1  0  0  0  0
  1  4  1  0  0  0  0
  4  5  1  0  0  0  0
  4  6  1  0  0  0  0
  4  7  1  0  0  0  0
  7  8  1  0  0  0  0
  7  9  1  0  0  0  0
  7 10  1  0  0  0  0
 10 11  1  0  0  0  0
 10 12  1  0  0  0  0
 10 13  1  0  0  0  0
 13 14  1  0  0  0  0
 13 15  1  0  0  0  0
 15 16  1  0  0  0  0
 15 17  1  0  0  0  0
 15 18  1  0  0  0  0
 18 19  1  0  0  0  0
 18 20  1  0  0  0  0
  1 21  1  0  0  0  0
 18 21  1  0  0  0  0
 21 22  1  0  0  0  0
 21 23  1  0  0  0  0
 13 24  1  0  0  0  0
 24 25  1  0  0  0  0
M  END
> <VM2 Rank>
92

> <Conf_Id>
1269

> <Probability>
0.01

> <Sum Probability>
99.92

> <Delta G>
3.875

> <G>
65.950

> <E>
33.502

> <-TS>
32.448

> <U+W>
12.934

> <U>
14.863

> <W>
-1.929

> <W(PB)>
-4.063

> <W(SA)>
2.134

> <Valence>
18.821

> <Coulomb>
-6.904

> <VdW>
2.946

> <VdW6>
-13.395

> <VdW12>
16.341

> <Bond>
0.514

> <Angle>
6.249

> <Pdih>
12.058

> <Idih>
0.000

> <Tether>
0.000

$$$$
VeraChem MOL file


 25 25  0  0  0  0  0  0  0  0999 V2000     
   20.5437   19.2027   20.8848 C   0  0  0  0  0  0  0  0  0  0  0  0
   20.2900   19.0846   19.8222 H   0  0  0  0  0  0  0  0  0  0  0  0
   21.5783   19.5709   20.8951 H   0  0  0  0  0  0  0  0  0  0  0  0
   20.4560   17.7966   21.5230 C   0  0  0  0  0  0  0  0  0  0  0  0
   19.4110   17.5482   21.7431 H   0  0  0  0  0  0  0  0  0  0  0  0
   20.7486   17.0646   20.7574 H   0  0  0  0  0  0  0  0  0  0  0  0
   21.3674   17.5396   22.7540 C   0  0  0  0  0  0  0  0  0  0  0  0
   22.3799   17.3239   22.3864 H   0  0  0  0  0  0  0  0  0  0  0  0
   21.0330   16.6145   23.2436 H   0  0  0  0  0  0  0  0  0  0  0  0
   21.4939   18.6583   23.8272 C   0  0  0  0  0  0  0  0  0  0  0  0
   22.0967   18.2489   24.6481 H   0  0  0  0  0  0  0  0  0  0  0  0
   22.1057   19.4758   23.4313 H   0  0  0  0  0  0  0  0  0  0  0  0
   20.1864   19.2135   24.4558 C   0  0  0  0  0  0  0  0  0  0  0  0
   20.3338   19.2262   25.5454 H   0  0  0  0  0  0  0  0  0  0  0  0
   19.8368   20.6685   24.0542 C   0  0  0  0  0  0  0  0  0  0  0  0
   18.7732   20.8428   24.2655 H   0  0  0  0  0  0  0  0  0  0  0  0
   20.3781   21.3395   24.7337 H   0  0  0  0  0  0  0  0  0  0  0  0
   20.1435   21.1315   22.6035 C   0  0  0  0  0  0  0  0  0  0  0  0
   21.2228   21.2694   22.4609 H   0  0  0  0  0  0  0  0  0  0  0  0
   19.7200   22.1397   22.4977 H   0  0  0  0  0  0  0  0  0  0  0  0
   19.5626   20.2564   21.4665 C   0  0  0  0  0  0  0  0  0  0  0  0
   18.6092   19.8011   21.7648 H   0  0  0  0  0  0  0  0  0  0  0  0
   19.3082   20.9380   20.6430 H   0  0  0  0  0  0  0  0  0  0  0  0
   19.0737   18.3759   24.1910 O   0  0  0  0  0  0  0  0  0  0  0  0
   19.0457   18.3275   23.2158 H   0  0  0  0  0  0  0  0  0  0  0  0
  1  2  1  0  0  0  0
  1  3  1  0  0  0  0
  1  4  1  0  0  0  0
  4  5  1  0  0  0  0
  4  6  1  0  0  0  0
  4  7  1  0  0  0  0
  7  8  1  0  0  0  0
  7  9  1  0  0  0  0
  7 10  1  0  0  0  0
 10 11  1  0  0  0  0
 10 12  1  0  0  0  0
 10 13  1  0  0  0  0
 13 14  1  0  0  0  0
 13 15  1  0  0  0  0
 15 16  1  0  0  0  0
 15 17  1  0  0  0  0
 15 18  1  0  0  0  0
 18 19  1  0  0  0  0
 18 20  1  0  0  0  0
  1 21  1  0  0  0  0
 18 21  1  0  0  0  0
 21 22  1  0  0  0  0
 21 23  1  0  0  0  0
 13 24  1  0  0  0  0
 24 25  1  0  0  0  0
M  END
> <VM2 Rank>
93

> <Conf_Id>
608

> <Probability>
0.01

> <Sum Probability>
99.93

> <Delta G>
3.933

> <G>
66.009

> <E>
33.364

> <-TS>
32.644

> <U+W>
12.797

> <U>
13.787

> <W>
-0.990

> <W(PB)>
-3.084

> <W(SA)>
2.095

> <Valence>
20.983

> <Coulomb>
-10.046

> <VdW>
2.849

> <VdW6>
-14.096

> <VdW12>
16.945

> <Bond>
0.519

> <Angle>
7.297

> <Pdih>
13.167

> <Idih>
0.000

> <Tether>
0.000

$$$$
VeraChem MOL file


 25 25  0  0  0  0  0  0  0  0999 V2000     
   20.5123   19.3719   20.8882 C   0  0  0  0  0  0  0  0  0  0  0  0
   20.2728   19.2699   19.8206 H   0  0  0  0  0  0  0  0  0  0  0  0
   21.5025   19.8460   20.9176 H   0  0  0  0  0  0  0  0  0  0  0  0
   20.5548   17.9362   21.4782 C   0  0  0  0  0  0  0  0  0  0  0  0
   19.5534   17.5827   21.7565 H   0  0  0  0  0  0  0  0  0  0  0  0
   20.8765   17.2710   20.6648 H   0  0  0  0  0  0  0  0  0  0  0  0
   21.5599   17.7368   22.6384 C   0  0  0  0  0  0  0  0  0  0  0  0
   22.4217   18.4042   22.5112 H   0  0  0  0  0  0  0  0  0  0  0  0
   21.9783   16.7251   22.5468 H   0  0  0  0  0  0  0  0  0  0  0  0
   20.9838   17.8531   24.0763 C   0  0  0  0  0  0  0  0  0  0  0  0
   20.3529   16.9770   24.2782 H   0  0  0  0  0  0  0  0  0  0  0  0
   21.8263   17.7671   24.7747 H   0  0  0  0  0  0  0  0  0  0  0  0
   20.1902   19.1290   24.4543 C   0  0  0  0  0  0  0  0  0  0  0  0
   20.2794   19.2299   25.5456 H   0  0  0  0  0  0  0  0  0  0  0  0
   20.7321   20.4443   23.8308 C   0  0  0  0  0  0  0  0  0  0  0  0
   20.8490   21.1646   24.6508 H   0  0  0  0  0  0  0  0  0  0  0  0
   21.7516   20.2998   23.4577 H   0  0  0  0  0  0  0  0  0  0  0  0
   19.8734   21.1380   22.7350 C   0  0  0  0  0  0  0  0  0  0  0  0
   20.4423   22.0062   22.3753 H   0  0  0  0  0  0  0  0  0  0  0  0
   18.9712   21.5557   23.2029 H   0  0  0  0  0  0  0  0  0  0  0  0
   19.4398   20.3044   21.4984 C   0  0  0  0  0  0  0  0  0  0  0  0
   18.5222   19.7397   21.7015 H   0  0  0  0  0  0  0  0  0  0  0  0
   19.1439   21.0241   20.7226 H   0  0  0  0  0  0  0  0  0  0  0  0
   18.8177   18.9292   24.1606 O   0  0  0  0  0  0  0  0  0  0  0  0
   18.7849   18.9387   23.1843 H   0  0  0  0  0  0  0  0  0  0  0  0
  1  2  1  0  0  0  0
  1  3  1  0  0  0  0
  1  4  1  0  0  0  0
  4  5  1  0  0  0  0
  4  6  1  0  0  0  0
  4  7  1  0  0  0  0
  7  8  1  0  0  0  0
  7  9  1  0  0  0  0
  7 10  1  0  0  0  0
 10 11  1  0  0  0  0
 10 12  1  0  0  0  0
 10 13  1  0  0  0  0
 13 14  1  0  0  0  0
 13 15  1  0  0  0  0
 15 16  1  0  0  0  0
 15 17  1  0  0  0  0
 15 18  1  0  0  0  0
 18 19  1  0  0  0  0
 18 20  1  0  0  0  0
  1 21  1  0  0  0  0
 18 21  1  0  0  0  0
 21 22  1  0  0  0  0
 21 23  1  0  0  0  0
 13 24  1  0  0  0  0
 24 25  1  0  0  0  0
M  END
> <VM2 Rank>
94

> <Conf_Id>
1558

> <Probability>
0.01

> <Sum Probability>
99.93

> <Delta G>
3.963

> <G>
66.038

> <E>
33.394

> <-TS>
32.644

> <U+W>
12.827

> <U>
13.787

> <W>
-0.960

> <W(PB)>
-3.077

> <W(SA)>
2.117

> <Valence>
20.983

> <Coulomb>
-10.046

> <VdW>
2.849

> <VdW6>
-14.095

> <VdW12>
16.945

> <Bond>
0.518

> <Angle>
7.297

> <Pdih>
13.167

> <Idih>
0.000

> <Tether>
0.000

$$$$
VeraChem MOL file


 25 25  0  0  0  0  0  0  0  0999 V2000     
   20.0869   19.0981   20.7582 C   0  0  0  0  0  0  0  0  0  0  0  0
   19.4632   18.2602   20.4187 H   0  0  0  0  0  0  0  0  0  0  0  0
   20.3299   19.6679   19.8510 H   0  0  0  0  0  0  0  0  0  0  0  0
   21.4242   18.5440   21.3151 C   0  0  0  0  0  0  0  0  0  0  0  0
   21.9281   18.0130   20.4960 H   0  0  0  0  0  0  0  0  0  0  0  0
   22.0996   19.3776   21.5310 H   0  0  0  0  0  0  0  0  0  0  0  0
   21.3515   17.5602   22.5190 C   0  0  0  0  0  0  0  0  0  0  0  0
   22.3378   17.5169   23.0006 H   0  0  0  0  0  0  0  0  0  0  0  0
   21.1811   16.5545   22.1111 H   0  0  0  0  0  0  0  0  0  0  0  0
   20.2644   17.7993   23.6020 C   0  0  0  0  0  0  0  0  0  0  0  0
   19.2739   17.7002   23.1484 H   0  0  0  0  0  0  0  0  0  0  0  0
   20.3129   16.9559   24.3030 H   0  0  0  0  0  0  0  0  0  0  0  0
   20.3660   19.0907   24.4609 C   0  0  0  0  0  0  0  0  0  0  0  0
   21.0857   18.8781   25.2644 H   0  0  0  0  0  0  0  0  0  0  0  0
   20.8564   20.3856   23.7665 C   0  0  0  0  0  0  0  0  0  0  0  0
   20.9559   21.1553   24.5432 H   0  0  0  0  0  0  0  0  0  0  0  0
   21.8858   20.2355   23.4296 H   0  0  0  0  0  0  0  0  0  0  0  0
   19.9853   20.9918   22.6230 C   0  0  0  0  0  0  0  0  0  0  0  0
   20.6124   21.6649   22.0228 H   0  0  0  0  0  0  0  0  0  0  0  0
   19.2302   21.6389   23.0898 H   0  0  0  0  0  0  0  0  0  0  0  0
   19.2320   20.0222   21.6731 C   0  0  0  0  0  0  0  0  0  0  0  0
   18.5067   19.4346   22.2432 H   0  0  0  0  0  0  0  0  0  0  0  0
   18.6014   20.6326   21.0122 H   0  0  0  0  0  0  0  0  0  0  0  0
   19.0972   19.3511   25.0422 O   0  0  0  0  0  0  0  0  0  0  0  0
   18.5577   19.7319   24.3204 H   0  0  0  0  0  0  0  0  0  0  0  0
  1  2  1  0  0  0  0
  1  3  1  0  0  0  0
  1  4  1  0  0  0  0
  4  5  1  0  0  0  0
  4  6  1  0  0  0  0
  4  7  1  0  0  0  0
  7  8  1  0  0  0  0
  7  9  1  0  0  0  0
  7 10  1  0  0  0  0
 10 11  1  0  0  0  0
 10 12  1  0  0  0  0
 10 13  1  0  0  0  0
 13 14  1  0  0  0  0
 13 15  1  0  0  0  0
 15 16  1  0  0  0  0
 15 17  1  0  0  0  0
 15 18  1  0  0  0  0
 18 19  1  0  0  0  0
 18 20  1  0  0  0  0
  1 21  1  0  0  0  0
 18 21  1  0  0  0  0
 21 22  1  0  0  0  0
 21 23  1  0  0  0  0
 13 24  1  0  0  0  0
 24 25  1  0  0  0  0
M  END
> <VM2 Rank>
95

> <Conf_Id>
1190

> <Probability>
0.01

> <Sum Probability>
99.94

> <Delta G>
4.003

> <G>
66.079

> <E>
33.265

> <-TS>
32.814

> <U+W>
12.697

> <U>
14.050

> <W>
-1.353

> <W(PB)>
-3.459

> <W(SA)>
2.106

> <Valence>
19.391

> <Coulomb>
-9.106

> <VdW>
3.765

> <VdW6>
-14.145

> <VdW12>
17.909

> <Bond>
0.723

> <Angle>
9.667

> <Pdih>
9.001

> <Idih>
0.000

> <Tether>
0.000

$$$$
VeraChem MOL file


 25 25  0  0  0  0  0  0  0  0999 V2000     
   20.1100   19.1097   20.7555 C   0  0  0  0  0  0  0  0  0  0  0  0
   19.0778   19.2246   20.3981 H   0  0  0  0  0  0  0  0  0  0  0  0
   20.7069   18.8910   19.8596 H   0  0  0  0  0  0  0  0  0  0  0  0
   20.1851   17.8607   21.6809 C   0  0  0  0  0  0  0  0  0  0  0  0
   19.2511   17.7371   22.2366 H   0  0  0  0  0  0  0  0  0  0  0  0
   20.2105   16.9785   21.0268 H   0  0  0  0  0  0  0  0  0  0  0  0
   21.3918   17.7549   22.6517 C   0  0  0  0  0  0  0  0  0  0  0  0
   22.3215   17.7483   22.0669 H   0  0  0  0  0  0  0  0  0  0  0  0
   21.3403   16.7648   23.1249 H   0  0  0  0  0  0  0  0  0  0  0  0
   21.5258   18.8134   23.7899 C   0  0  0  0  0  0  0  0  0  0  0  0
   22.1427   18.3657   24.5802 H   0  0  0  0  0  0  0  0  0  0  0  0
   22.1254   19.6650   23.4566 H   0  0  0  0  0  0  0  0  0  0  0  0
   20.2342   19.3455   24.4591 C   0  0  0  0  0  0  0  0  0  0  0  0
   20.5575   20.0220   25.2632 H   0  0  0  0  0  0  0  0  0  0  0  0
   19.2364   20.1477   23.5777 C   0  0  0  0  0  0  0  0  0  0  0  0
   18.4947   19.4890   23.1166 H   0  0  0  0  0  0  0  0  0  0  0  0
   18.6425   20.7646   24.2644 H   0  0  0  0  0  0  0  0  0  0  0  0
   19.8229   21.0968   22.4973 C   0  0  0  0  0  0  0  0  0  0  0  0
   20.4574   21.8498   22.9839 H   0  0  0  0  0  0  0  0  0  0  0  0
   18.9792   21.6567   22.0713 H   0  0  0  0  0  0  0  0  0  0  0  0
   20.6105   20.4686   21.3108 C   0  0  0  0  0  0  0  0  0  0  0  0
   20.5808   21.1933   20.4858 H   0  0  0  0  0  0  0  0  0  0  0  0
   21.6768   20.3935   21.5449 H   0  0  0  0  0  0  0  0  0  0  0  0
   19.5474   18.2456   25.0371 O   0  0  0  0  0  0  0  0  0  0  0  0
   19.4683   17.5863   24.3186 H   0  0  0  0  0  0  0  0  0  0  0  0
  1  2  1  0  0  0  0
  1  3  1  0  0  0  0
  1  4  1  0  0  0  0
  4  5  1  0  0  0  0
  4  6  1  0  0  0  0
  4  7  1  0  0  0  0
  7  8  1  0  0  0  0
  7  9  1  0  0  0  0
  7 10  1  0  0  0  0
 10 11  1  0  0  0  0
 10 12  1  0  0  0  0
 10 13  1  0  0  0  0
 13 14  1  0  0  0  0
 13 15  1  0  0  0  0
 15 16  1  0  0  0  0
 15 17  1  0  0  0  0
 15 18  1  0  0  0  0
 18 19  1  0  0  0  0
 18 20  1  0  0  0  0
  1 21  1  0  0  0  0
 18 21  1  0  0  0  0
 21 22  1  0  0  0  0
 21 23  1  0  0  0  0
 13 24  1  0  0  0  0
 24 25  1  0  0  0  0
M  END
> <VM2 Rank>
96

> <Conf_Id>
2005

> <Probability>
0.01

> <Sum Probability>
99.95

> <Delta G>
4.044

> <G>
66.120

> <E>
33.306

> <-TS>
32.814

> <U+W>
12.738

> <U>
14.050

> <W>
-1.312

> <W(PB)>
-3.425

> <W(SA)>
2.113

> <Valence>
19.391

> <Coulomb>
-9.106

> <VdW>
3.765

> <VdW6>
-14.145

> <VdW12>
17.910

> <Bond>
0.723

> <Angle>
9.667

> <Pdih>
9.002

> <Idih>
0.000

> <Tether>
0.000

$$$$
VeraChem MOL file


 25 25  0  0  0  0  0  0  0  0999 V2000     
   19.6108   18.8856   21.1978 C   0  0  0  0  0  0  0  0  0  0  0  0
   18.9004   18.4711   21.9215 H   0  0  0  0  0  0  0  0  0  0  0  0
   19.1882   18.6376   20.2147 H   0  0  0  0  0  0  0  0  0  0  0  0
   20.9869   18.1883   21.3291 C   0  0  0  0  0  0  0  0  0  0  0  0
   21.8057   18.8741   21.0761 H   0  0  0  0  0  0  0  0  0  0  0  0
   21.0300   17.3940   20.5714 H   0  0  0  0  0  0  0  0  0  0  0  0
   21.2343   17.5201   22.7049 C   0  0  0  0  0  0  0  0  0  0  0  0
   22.1318   16.8946   22.6075 H   0  0  0  0  0  0  0  0  0  0  0  0
   20.4172   16.8199   22.9249 H   0  0  0  0  0  0  0  0  0  0  0  0
   21.4584   18.4664   23.9199 C   0  0  0  0  0  0  0  0  0  0  0  0
   21.8226   17.8360   24.7412 H   0  0  0  0  0  0  0  0  0  0  0  0
   22.2845   19.1575   23.7165 H   0  0  0  0  0  0  0  0  0  0  0  0
   20.2303   19.2392   24.4796 C   0  0  0  0  0  0  0  0  0  0  0  0
   20.4515   19.4055   25.5440 H   0  0  0  0  0  0  0  0  0  0  0  0
   19.9641   20.6602   23.9050 C   0  0  0  0  0  0  0  0  0  0  0  0
   18.8931   20.8922   23.9689 H   0  0  0  0  0  0  0  0  0  0  0  0
   20.4486   21.3672   24.5911 H   0  0  0  0  0  0  0  0  0  0  0  0
   20.4769   21.0088   22.4825 C   0  0  0  0  0  0  0  0  0  0  0  0
   21.5376   20.7572   22.3742 H   0  0  0  0  0  0  0  0  0  0  0  0
   20.4418   22.1023   22.3837 H   0  0  0  0  0  0  0  0  0  0  0  0
   19.6544   20.4270   21.3086 C   0  0  0  0  0  0  0  0  0  0  0  0
   20.0727   20.8256   20.3744 H   0  0  0  0  0  0  0  0  0  0  0  0
   18.6255   20.8077   21.3630 H   0  0  0  0  0  0  0  0  0  0  0  0
   19.0479   18.4473   24.4326 O   0  0  0  0  0  0  0  0  0  0  0  0
   18.3331   18.9838   24.8305 H   0  0  0  0  0  0  0  0  0  0  0  0
  1  2  1  0  0  0  0
  1  3  1  0  0  0  0
  1  4  1  0  0  0  0
  4  5  1  0  0  0  0
  4  6  1  0  0  0  0
  4  7  1  0  0  0  0
  7  8  1  0  0  0  0
  7  9  1  0  0  0  0
  7 10  1  0  0  0  0
 10 11  1  0  0  0  0
 10 12  1  0  0  0  0
 10 13  1  0  0  0  0
 13 14  1  0  0  0  0
 13 15  1  0  0  0  0
 15 16  1  0  0  0  0
 15 17  1  0  0  0  0
 15 18  1  0  0  0  0
 18 19  1  0  0  0  0
 18 20  1  0  0  0  0
  1 21  1  0  0  0  0
 18 21  1  0  0  0  0
 21 22  1  0  0  0  0
 21 23  1  0  0  0  0
 13 24  1  0  0  0  0
 24 25  1  0  0  0  0
M  END
> <VM2 Rank>
97

> <Conf_Id>
570

> <Probability>
0.00

> <Sum Probability>
99.95

> <Delta G>
4.136

> <G>
66.212

> <E>
33.588

> <-TS>
32.623

> <U+W>
13.021

> <U>
14.959

> <W>
-1.938

> <W(PB)>
-4.057

> <W(SA)>
2.119

> <Valence>
18.591

> <Coulomb>
-6.260

> <VdW>
2.627

> <VdW6>
-13.467

> <VdW12>
16.094

> <Bond>
0.508

> <Angle>
7.247

> <Pdih>
10.837

> <Idih>
0.000

> <Tether>
0.000

$$$$
VeraChem MOL file


 25 25  0  0  0  0  0  0  0  0999 V2000     
   21.3275   19.7204   21.2519 C   0  0  0  0  0  0  0  0  0  0  0  0
   21.8942   19.9593   20.3416 H   0  0  0  0  0  0  0  0  0  0  0  0
   21.9002   20.2129   22.0441 H   0  0  0  0  0  0  0  0  0  0  0  0
   21.3643   18.1727   21.4180 C   0  0  0  0  0  0  0  0  0  0  0  0
   21.3420   17.7342   20.4109 H   0  0  0  0  0  0  0  0  0  0  0  0
   22.3357   17.8829   21.8410 H   0  0  0  0  0  0  0  0  0  0  0  0
   20.2297   17.4949   22.2303 C   0  0  0  0  0  0  0  0  0  0  0  0
   20.3591   16.4079   22.1393 H   0  0  0  0  0  0  0  0  0  0  0  0
   19.2708   17.6810   21.7364 H   0  0  0  0  0  0  0  0  0  0  0  0
   20.1425   17.8208   23.7512 C   0  0  0  0  0  0  0  0  0  0  0  0
   19.1303   17.5908   24.1080 H   0  0  0  0  0  0  0  0  0  0  0  0
   20.8065   17.1189   24.2729 H   0  0  0  0  0  0  0  0  0  0  0  0
   20.5343   19.2439   24.2216 C   0  0  0  0  0  0  0  0  0  0  0  0
   21.5632   19.4330   23.8985 H   0  0  0  0  0  0  0  0  0  0  0  0
   19.6171   20.4151   23.7650 C   0  0  0  0  0  0  0  0  0  0  0  0
   18.7891   20.4979   24.4821 H   0  0  0  0  0  0  0  0  0  0  0  0
   20.1808   21.3528   23.8513 H   0  0  0  0  0  0  0  0  0  0  0  0
   18.9783   20.3447   22.3517 C   0  0  0  0  0  0  0  0  0  0  0  0
   18.2872   21.1933   22.2570 H   0  0  0  0  0  0  0  0  0  0  0  0
   18.3203   19.4717   22.2950 H   0  0  0  0  0  0  0  0  0  0  0  0
   19.9366   20.3963   21.1259 C   0  0  0  0  0  0  0  0  0  0  0  0
   20.1150   21.4549   20.8926 H   0  0  0  0  0  0  0  0  0  0  0  0
   19.4148   19.9880   20.2499 H   0  0  0  0  0  0  0  0  0  0  0  0
   20.5336   19.2341   25.6444 O   0  0  0  0  0  0  0  0  0  0  0  0
   20.8418   20.1186   25.9327 H   0  0  0  0  0  0  0  0  0  0  0  0
  1  2  1  0  0  0  0
  1  3  1  0  0  0  0
  1  4  1  0  0  0  0
  4  5  1  0  0  0  0
  4  6  1  0  0  0  0
  4  7  1  0  0  0  0
  7  8  1  0  0  0  0
  7  9  1  0  0  0  0
  7 10  1  0  0  0  0
 10 11  1  0  0  0  0
 10 12  1  0  0  0  0
 10 13  1  0  0  0  0
 13 14  1  0  0  0  0
 13 15  1  0  0  0  0
 15 16  1  0  0  0  0
 15 17  1  0  0  0  0
 15 18  1  0  0  0  0
 18 19  1  0  0  0  0
 18 20  1  0  0  0  0
  1 21  1  0  0  0  0
 18 21  1  0  0  0  0
 21 22  1  0  0  0  0
 21 23  1  0  0  0  0
 13 24  1  0  0  0  0
 24 25  1  0  0  0  0
M  END
> <VM2 Rank>
98

> <Conf_Id>
567

> <Probability>
0.00

> <Sum Probability>
99.95

> <Delta G>
4.145

> <G>
66.220

> <E>
33.542

> <-TS>
32.679

> <U+W>
12.974

> <U>
15.029

> <W>
-2.055

> <W(PB)>
-4.194

> <W(SA)>
2.139

> <Valence>
18.886

> <Coulomb>
-8.127

> <VdW>
4.270

> <VdW6>
-13.485

> <VdW12>
17.755

> <Bond>
0.714

> <Angle>
8.959

> <Pdih>
9.213

> <Idih>
0.000

> <Tether>
0.000

$$$$
VeraChem MOL file


 25 25  0  0  0  0  0  0  0  0999 V2000     
   21.3787   19.5598   21.2421 C   0  0  0  0  0  0  0  0  0  0  0  0
   21.9418   19.7858   20.3263 H   0  0  0  0  0  0  0  0  0  0  0  0
   22.1364   19.6271   22.0292 H   0  0  0  0  0  0  0  0  0  0  0  0
   20.8790   18.0950   21.1325 C   0  0  0  0  0  0  0  0  0  0  0  0
   20.2164   18.0038   20.2612 H   0  0  0  0  0  0  0  0  0  0  0  0
   21.7551   17.4745   20.8995 H   0  0  0  0  0  0  0  0  0  0  0  0
   20.1751   17.4619   22.3682 C   0  0  0  0  0  0  0  0  0  0  0  0
   20.2909   16.3728   22.2828 H   0  0  0  0  0  0  0  0  0  0  0  0
   19.0916   17.6085   22.3167 H   0  0  0  0  0  0  0  0  0  0  0  0
   20.6832   17.8788   23.7748 C   0  0  0  0  0  0  0  0  0  0  0  0
   20.1635   17.2390   24.5009 H   0  0  0  0  0  0  0  0  0  0  0  0
   21.7465   17.6199   23.8571 H   0  0  0  0  0  0  0  0  0  0  0  0
   20.4997   19.3589   24.2191 C   0  0  0  0  0  0  0  0  0  0  0  0
   21.3563   19.9536   23.8854 H   0  0  0  0  0  0  0  0  0  0  0  0
   19.2103   20.0780   23.7498 C   0  0  0  0  0  0  0  0  0  0  0  0
   18.3365   19.5242   24.1169 H   0  0  0  0  0  0  0  0  0  0  0  0
   19.1822   21.0484   24.2629 H   0  0  0  0  0  0  0  0  0  0  0  0
   19.0311   20.3555   22.2274 C   0  0  0  0  0  0  0  0  0  0  0  0
   18.3495   21.2118   22.1327 H   0  0  0  0  0  0  0  0  0  0  0  0
   18.4853   19.5390   21.7441 H   0  0  0  0  0  0  0  0  0  0  0  0
   20.3063   20.6769   21.4044 C   0  0  0  0  0  0  0  0  0  0  0  0
   19.9730   20.9605   20.3967 H   0  0  0  0  0  0  0  0  0  0  0  0
   20.7867   21.5746   21.8164 H   0  0  0  0  0  0  0  0  0  0  0  0
   20.5008   19.3782   25.6417 O   0  0  0  0  0  0  0  0  0  0  0  0
   21.3476   18.9771   25.9286 H   0  0  0  0  0  0  0  0  0  0  0  0
  1  2  1  0  0  0  0
  1  3  1  0  0  0  0
  1  4  1  0  0  0  0
  4  5  1  0  0  0  0
  4  6  1  0  0  0  0
  4  7  1  0  0  0  0
  7  8  1  0  0  0  0
  7  9  1  0  0  0  0
  7 10  1  0  0  0  0
 10 11  1  0  0  0  0
 10 12  1  0  0  0  0
 10 13  1  0  0  0  0
 13 14  1  0  0  0  0
 13 15  1  0  0  0  0
 15 16  1  0  0  0  0
 15 17  1  0  0  0  0
 15 18  1  0  0  0  0
 18 19  1  0  0  0  0
 18 20  1  0  0  0  0
  1 21  1  0  0  0  0
 18 21  1  0  0  0  0
 21 22  1  0  0  0  0
 21 23  1  0  0  0  0
 13 24  1  0  0  0  0
 24 25  1  0  0  0  0
M  END
> <VM2 Rank>
99

> <Conf_Id>
1447

> <Probability>
0.00

> <Sum Probability>
99.96

> <Delta G>
4.147

> <G>
66.222

> <E>
33.544

> <-TS>
32.678

> <U+W>
12.976

> <U>
15.029

> <W>
-2.053

> <W(PB)>
-4.201

> <W(SA)>
2.148

> <Valence>
18.887

> <Coulomb>
-8.127

> <VdW>
4.270

> <VdW6>
-13.485

> <VdW12>
17.755

> <Bond>
0.714

> <Angle>
8.959

> <Pdih>
9.213

> <Idih>
0.000

> <Tether>
0.000

$$$$
VeraChem MOL file


 25 25  0  0  0  0  0  0  0  0999 V2000     
   20.7137   19.4960   20.7213 C   0  0  0  0  0  0  0  0  0  0  0  0
   20.4819   19.0267   19.7555 H   0  0  0  0  0  0  0  0  0  0  0  0
   21.3133   20.3836   20.4783 H   0  0  0  0  0  0  0  0  0  0  0  0
   21.5966   18.4959   21.5238 C   0  0  0  0  0  0  0  0  0  0  0  0
   22.2347   17.9754   20.7965 H   0  0  0  0  0  0  0  0  0  0  0  0
   22.3139   19.0291   22.1554 H   0  0  0  0  0  0  0  0  0  0  0  0
   20.8720   17.4142   22.3671 C   0  0  0  0  0  0  0  0  0  0  0  0
   21.6462   16.7371   22.7531 H   0  0  0  0  0  0  0  0  0  0  0  0
   20.2485   16.7983   21.7050 H   0  0  0  0  0  0  0  0  0  0  0  0
   20.0115   17.8788   23.5799 C   0  0  0  0  0  0  0  0  0  0  0  0
   18.9729   18.0386   23.2768 H   0  0  0  0  0  0  0  0  0  0  0  0
   19.9523   17.0281   24.2719 H   0  0  0  0  0  0  0  0  0  0  0  0
   20.5052   19.1039   24.3905 C   0  0  0  0  0  0  0  0  0  0  0  0
   21.5230   18.8887   24.7456 H   0  0  0  0  0  0  0  0  0  0  0  0
   20.5329   20.4859   23.6760 C   0  0  0  0  0  0  0  0  0  0  0  0
   20.4902   21.2612   24.4530 H   0  0  0  0  0  0  0  0  0  0  0  0
   21.5092   20.6536   23.2133 H   0  0  0  0  0  0  0  0  0  0  0  0
   19.4168   20.7973   22.6414 C   0  0  0  0  0  0  0  0  0  0  0  0
   19.5437   21.8465   22.3415 H   0  0  0  0  0  0  0  0  0  0  0  0
   18.4376   20.7522   23.1362 H   0  0  0  0  0  0  0  0  0  0  0  0
   19.3638   19.9459   21.3395 C   0  0  0  0  0  0  0  0  0  0  0  0
   18.7160   19.0733   21.4689 H   0  0  0  0  0  0  0  0  0  0  0  0
   18.8376   20.5454   20.5842 H   0  0  0  0  0  0  0  0  0  0  0  0
   19.6516   19.2251   25.5204 O   0  0  0  0  0  0  0  0  0  0  0  0
   18.7765   19.4864   25.1683 H   0  0  0  0  0  0  0  0  0  0  0  0
  1  2  1  0  0  0  0
  1  3  1  0  0  0  0
  1  4  1  0  0  0  0
  4  5  1  0  0  0  0
  4  6  1  0  0  0  0
  4  7  1  0  0  0  0
  7  8  1  0  0  0  0
  7  9  1  0  0  0  0
  7 10  1  0  0  0  0
 10 11  1  0  0  0  0
 10 12  1  0  0  0  0
 10 13  1  0  0  0  0
 13 14  1  0  0  0  0
 13 15  1  0  0  0  0
 15 16  1  0  0  0  0
 15 17  1  0  0  0  0
 15 18  1  0  0  0  0
 18 19  1  0  0  0  0
 18 20  1  0  0  0  0
  1 21  1  0  0  0  0
 18 21  1  0  0  0  0
 21 22  1  0  0  0  0
 21 23  1  0  0  0  0
 13 24  1  0  0  0  0
 24 25  1  0  0  0  0
M  END
> <VM2 Rank>
100

> <Conf_Id>
1117

> <Probability>
0.00

> <Sum Probability>
99.96

> <Delta G>
4.153

> <G>
66.229

> <E>
33.565

> <-TS>
32.663

> <U+W>
12.998

> <U>
14.560

> <W>
-1.562

> <W(PB)>
-3.690

> <W(SA)>
2.128

> <Valence>
19.306

> <Coulomb>
-8.913

> <VdW>
4.167

> <VdW6>
-13.653

> <VdW12>
17.820

> <Bond>
0.720

> <Angle>
9.342

> <Pdih>
9.244

> <Idih>
0.000

> <Tether>
0.000

$$$$
VeraChem MOL file


 25 25  0  0  0  0  0  0  0  0999 V2000     
   20.7875   19.2851   20.7187 C   0  0  0  0  0  0  0  0  0  0  0  0
   21.8464   19.1247   20.4752 H   0  0  0  0  0  0  0  0  0  0  0  0
   20.2823   19.4169   19.7521 H   0  0  0  0  0  0  0  0  0  0  0  0
   20.2096   17.9947   21.3572 C   0  0  0  0  0  0  0  0  0  0  0  0
   19.1289   18.1078   21.4877 H   0  0  0  0  0  0  0  0  0  0  0  0
   20.2948   17.1909   20.6133 H   0  0  0  0  0  0  0  0  0  0  0  0
   20.8768   17.4780   22.6651 C   0  0  0  0  0  0  0  0  0  0  0  0
   21.7358   16.8591   22.3720 H   0  0  0  0  0  0  0  0  0  0  0  0
   20.1837   16.7933   23.1716 H   0  0  0  0  0  0  0  0  0  0  0  0
   21.4030   18.5266   23.6833 C   0  0  0  0  0  0  0  0  0  0  0  0
   21.9481   17.9830   24.4668 H   0  0  0  0  0  0  0  0  0  0  0  0
   22.1847   19.1269   23.2098 H   0  0  0  0  0  0  0  0  0  0  0  0
   20.3666   19.4494   24.3869 C   0  0  0  0  0  0  0  0  0  0  0  0
   20.8958   20.3506   24.7277 H   0  0  0  0  0  0  0  0  0  0  0  0
   19.1275   19.9005   23.5728 C   0  0  0  0  0  0  0  0  0  0  0  0
   18.5435   19.0221   23.2839 H   0  0  0  0  0  0  0  0  0  0  0  0
   18.4617   20.4412   24.2586 H   0  0  0  0  0  0  0  0  0  0  0  0
   19.3627   20.8312   22.3457 C   0  0  0  0  0  0  0  0  0  0  0  0
   19.3869   21.8650   22.7167 H   0  0  0  0  0  0  0  0  0  0  0  0
   18.4858   20.7776   21.6865 H   0  0  0  0  0  0  0  0  0  0  0  0
   20.6478   20.6232   21.5021 C   0  0  0  0  0  0  0  0  0  0  0  0
   20.6927   21.4346   20.7629 H   0  0  0  0  0  0  0  0  0  0  0  0
   21.5270   20.8015   22.1290 H   0  0  0  0  0  0  0  0  0  0  0  0
   19.8825   18.7543   25.5283 O   0  0  0  0  0  0  0  0  0  0  0  0
   19.4835   17.9274   25.1890 H   0  0  0  0  0  0  0  0  0  0  0  0
  1  2  1  0  0  0  0
  1  3  1  0  0  0  0
  1  4  1  0  0  0  0
  4  5  1  0  0  0  0
  4  6  1  0  0  0  0
  4  7  1  0  0  0  0
  7  8  1  0  0  0  0
  7  9  1  0  0  0  0
  7 10  1  0  0  0  0
 10 11  1  0  0  0  0
 10 12  1  0  0  0  0
 10 13  1  0  0  0  0
 13 14  1  0  0  0  0
 13 15  1  0  0  0  0
 15 16  1  0  0  0  0
 15 17  1  0  0  0  0
 15 18  1  0  0  0  0
 18 19  1  0  0  0  0
 18 20  1  0  0  0  0
  1 21  1  0  0  0  0
 18 21  1  0  0  0  0
 21 22  1  0  0  0  0
 21 23  1  0  0  0  0
 13 24  1  0  0  0  0
 24 25  1  0  0  0  0
M  END
> <VM2 Rank>
101

> <Conf_Id>
1936

> <Probability>
0.00

> <Sum Probability>
99.97

> <Delta G>
4.165

> <G>
66.240

> <E>
33.577

> <-TS>
32.663

> <U+W>
13.009

> <U>
14.560

> <W>
-1.550

> <W(PB)>
-3.681

> <W(SA)>
2.130

> <Valence>
19.306

> <Coulomb>
-8.913

> <VdW>
4.167

> <VdW6>
-13.653

> <VdW12>
17.820

> <Bond>
0.720

> <Angle>
9.344

> <Pdih>
9.243

> <Idih>
0.000

> <Tether>
0.000

$$$$
VeraChem MOL file


 25 25  0  0  0  0  0  0  0  0999 V2000     
   21.3789   19.5598   21.2422 C   0  0  0  0  0  0  0  0  0  0  0  0
   21.9421   19.7862   20.3265 H   0  0  0  0  0  0  0  0  0  0  0  0
   22.1365   19.6270   22.0294 H   0  0  0  0  0  0  0  0  0  0  0  0
   20.8797   18.0949   21.1321 C   0  0  0  0  0  0  0  0  0  0  0  0
   20.2174   18.0036   20.2606 H   0  0  0  0  0  0  0  0  0  0  0  0
   21.7561   17.4748   20.8994 H   0  0  0  0  0  0  0  0  0  0  0  0
   20.1758   17.4612   22.3677 C   0  0  0  0  0  0  0  0  0  0  0  0
   20.2937   16.3723   22.2833 H   0  0  0  0  0  0  0  0  0  0  0  0
   19.0921   17.6058   22.3152 H   0  0  0  0  0  0  0  0  0  0  0  0
   20.6816   17.8798   23.7748 C   0  0  0  0  0  0  0  0  0  0  0  0
   20.1625   17.2419   24.5028 H   0  0  0  0  0  0  0  0  0  0  0  0
   21.7448   17.6223   23.8623 H   0  0  0  0  0  0  0  0  0  0  0  0
   20.4993   19.3596   24.2194 C   0  0  0  0  0  0  0  0  0  0  0  0
   21.3585   19.9506   23.8858 H   0  0  0  0  0  0  0  0  0  0  0  0
   19.2099   20.0799   23.7501 C   0  0  0  0  0  0  0  0  0  0  0  0
   18.3357   19.5253   24.1157 H   0  0  0  0  0  0  0  0  0  0  0  0
   19.1776   21.0529   24.2577 H   0  0  0  0  0  0  0  0  0  0  0  0
   19.0310   20.3544   22.2272 C   0  0  0  0  0  0  0  0  0  0  0  0
   18.3481   21.2094   22.1304 H   0  0  0  0  0  0  0  0  0  0  0  0
   18.4866   19.5364   21.7449 H   0  0  0  0  0  0  0  0  0  0  0  0
   20.3060   20.6765   21.4044 C   0  0  0  0  0  0  0  0  0  0  0  0
   20.7860   21.5747   21.8157 H   0  0  0  0  0  0  0  0  0  0  0  0
   19.9725   20.9594   20.3966 H   0  0  0  0  0  0  0  0  0  0  0  0
   20.5019   19.3769   25.6421 O   0  0  0  0  0  0  0  0  0  0  0  0
   20.4525   20.3170   25.9138 H   0  0  0  0  0  0  0  0  0  0  0  0
  1  2  1  0  0  0  0
  1  3  1  0  0  0  0
  1  4  1  0  0  0  0
  4  5  1  0  0  0  0
  4  6  1  0  0  0  0
  4  7  1  0  0  0  0
  7  8  1  0  0  0  0
  7  9  1  0  0  0  0
  7 10  1  0  0  0  0
 10 11  1  0  0  0  0
 10 12  1  0  0  0  0
 10 13  1  0  0  0  0
 13 14  1  0  0  0  0
 13 15  1  0  0  0  0
 15 16  1  0  0  0  0
 15 17  1  0  0  0  0
 15 18  1  0  0  0  0
 18 19  1  0  0  0  0
 18 20  1  0  0  0  0
  1 21  1  0  0  0  0
 18 21  1  0  0  0  0
 21 22  1  0  0  0  0
 21 23  1  0  0  0  0
 13 24  1  0  0  0  0
 24 25  1  0  0  0  0
M  END
> <VM2 Rank>
102

> <Conf_Id>
675

> <Probability>
0.00

> <Sum Probability>
99.97

> <Delta G>
4.183

> <G>
66.258

> <E>
33.597

> <-TS>
32.661

> <U+W>
13.030

> <U>
15.076

> <W>
-2.046

> <W(PB)>
-4.188

> <W(SA)>
2.142

> <Valence>
18.884

> <Coulomb>
-8.074

> <VdW>
4.265

> <VdW6>
-13.486

> <VdW12>
17.751

> <Bond>
0.713

> <Angle>
8.958

> <Pdih>
9.213

> <Idih>
0.000

> <Tether>
0.000

$$$$
VeraChem MOL file


 25 25  0  0  0  0  0  0  0  0999 V2000     
   21.3277   19.7205   21.2520 C   0  0  0  0  0  0  0  0  0  0  0  0
   21.8947   19.9592   20.3418 H   0  0  0  0  0  0  0  0  0  0  0  0
   21.9003   20.2130   22.0443 H   0  0  0  0  0  0  0  0  0  0  0  0
   21.3639   18.1728   21.4180 C   0  0  0  0  0  0  0  0  0  0  0  0
   21.3409   17.7346   20.4108 H   0  0  0  0  0  0  0  0  0  0  0  0
   22.3353   17.8823   21.8404 H   0  0  0  0  0  0  0  0  0  0  0  0
   20.2288   17.4957   22.2301 C   0  0  0  0  0  0  0  0  0  0  0  0
   20.3564   16.4085   22.1370 H   0  0  0  0  0  0  0  0  0  0  0  0
   19.2699   17.6838   21.7371 H   0  0  0  0  0  0  0  0  0  0  0  0
   20.1435   17.8192   23.7515 C   0  0  0  0  0  0  0  0  0  0  0  0
   19.1303   17.5896   24.1067 H   0  0  0  0  0  0  0  0  0  0  0  0
   20.8063   17.1125   24.2677 H   0  0  0  0  0  0  0  0  0  0  0  0
   20.5346   19.2431   24.2219 C   0  0  0  0  0  0  0  0  0  0  0  0
   21.5627   19.4366   23.8988 H   0  0  0  0  0  0  0  0  0  0  0  0
   19.6167   20.4133   23.7650 C   0  0  0  0  0  0  0  0  0  0  0  0
   18.7905   20.4953   24.4841 H   0  0  0  0  0  0  0  0  0  0  0  0
   20.1813   21.3498   23.8565 H   0  0  0  0  0  0  0  0  0  0  0  0
   18.9784   20.3457   22.3511 C   0  0  0  0  0  0  0  0  0  0  0  0
   18.2889   21.1957   22.2575 H   0  0  0  0  0  0  0  0  0  0  0  0
   18.3188   19.4740   22.2935 H   0  0  0  0  0  0  0  0  0  0  0  0
   19.9370   20.3968   21.1256 C   0  0  0  0  0  0  0  0  0  0  0  0
   19.4153   19.9888   20.2494 H   0  0  0  0  0  0  0  0  0  0  0  0
   20.1160   21.4554   20.8924 H   0  0  0  0  0  0  0  0  0  0  0  0
   20.5335   19.2359   25.6448 O   0  0  0  0  0  0  0  0  0  0  0  0
   21.1635   18.5396   25.9247 H   0  0  0  0  0  0  0  0  0  0  0  0
  1  2  1  0  0  0  0
  1  3  1  0  0  0  0
  1  4  1  0  0  0  0
  4  5  1  0  0  0  0
  4  6  1  0  0  0  0
  4  7  1  0  0  0  0
  7  8  1  0  0  0  0
  7  9  1  0  0  0  0
  7 10  1  0  0  0  0
 10 11  1  0  0  0  0
 10 12  1  0  0  0  0
 10 13  1  0  0  0  0
 13 14  1  0  0  0  0
 13 15  1  0  0  0  0
 15 16  1  0  0  0  0
 15 17  1  0  0  0  0
 15 18  1  0  0  0  0
 18 19  1  0  0  0  0
 18 20  1  0  0  0  0
  1 21  1  0  0  0  0
 18 21  1  0  0  0  0
 21 22  1  0  0  0  0
 21 23  1  0  0  0  0
 13 24  1  0  0  0  0
 24 25  1  0  0  0  0
M  END
> <VM2 Rank>
103

> <Conf_Id>
528

> <Probability>
0.00

> <Sum Probability>
99.98

> <Delta G>
4.186

> <G>
66.261

> <E>
33.601

> <-TS>
32.661

> <U+W>
13.033

> <U>
15.076

> <W>
-2.043

> <W(PB)>
-4.186

> <W(SA)>
2.143

> <Valence>
18.884

> <Coulomb>
-8.074

> <VdW>
4.265

> <VdW6>
-13.486

> <VdW12>
17.751

> <Bond>
0.713

> <Angle>
8.957

> <Pdih>
9.214

> <Idih>
0.000

> <Tether>
0.000

$$$$
VeraChem MOL file


 25 25  0  0  0  0  0  0  0  0999 V2000     
   21.3788   19.5590   21.2430 C   0  0  0  0  0  0  0  0  0  0  0  0
   21.9428   19.7852   20.3278 H   0  0  0  0  0  0  0  0  0  0  0  0
   22.1359   19.6242   22.0309 H   0  0  0  0  0  0  0  0  0  0  0  0
   20.8765   18.0952   21.1317 C   0  0  0  0  0  0  0  0  0  0  0  0
   20.2116   18.0064   20.2619 H   0  0  0  0  0  0  0  0  0  0  0  0
   21.7511   17.4739   20.8955 H   0  0  0  0  0  0  0  0  0  0  0  0
   20.1753   17.4612   22.3685 C   0  0  0  0  0  0  0  0  0  0  0  0
   20.2926   16.3723   22.2829 H   0  0  0  0  0  0  0  0  0  0  0  0
   19.0915   17.6066   22.3187 H   0  0  0  0  0  0  0  0  0  0  0  0
   20.6863   17.8792   23.7738 C   0  0  0  0  0  0  0  0  0  0  0  0
   20.1782   17.2321   24.5010 H   0  0  0  0  0  0  0  0  0  0  0  0
   21.7523   17.6297   23.8524 H   0  0  0  0  0  0  0  0  0  0  0  0
   20.4978   19.3583   24.2194 C   0  0  0  0  0  0  0  0  0  0  0  0
   21.3554   19.9528   23.8881 H   0  0  0  0  0  0  0  0  0  0  0  0
   19.2085   20.0781   23.7495 C   0  0  0  0  0  0  0  0  0  0  0  0
   18.3311   19.5269   24.1118 H   0  0  0  0  0  0  0  0  0  0  0  0
   19.1812   21.0499   24.2605 H   0  0  0  0  0  0  0  0  0  0  0  0
   19.0316   20.3554   22.2269 C   0  0  0  0  0  0  0  0  0  0  0  0
   18.3498   21.2114   22.1309 H   0  0  0  0  0  0  0  0  0  0  0  0
   18.4871   19.5385   21.7426 H   0  0  0  0  0  0  0  0  0  0  0  0
   20.3079   20.6773   21.4061 C   0  0  0  0  0  0  0  0  0  0  0  0
   19.9761   20.9632   20.3986 H   0  0  0  0  0  0  0  0  0  0  0  0
   20.7889   21.5736   21.8205 H   0  0  0  0  0  0  0  0  0  0  0  0
   20.5015   19.3794   25.6410 O   0  0  0  0  0  0  0  0  0  0  0  0
   19.7101   18.8792   25.9277 H   0  0  0  0  0  0  0  0  0  0  0  0
  1  2  1  0  0  0  0
  1  3  1  0  0  0  0
  1  4  1  0  0  0  0
  4  5  1  0  0  0  0
  4  6  1  0  0  0  0
  4  7  1  0  0  0  0
  7  8  1  0  0  0  0
  7  9  1  0  0  0  0
  7 10  1  0  0  0  0
 10 11  1  0  0  0  0
 10 12  1  0  0  0  0
 10 13  1  0  0  0  0
 13 14  1  0  0  0  0
 13 15  1  0  0  0  0
 15 16  1  0  0  0  0
 15 17  1  0  0  0  0
 15 18  1  0  0  0  0
 18 19  1  0  0  0  0
 18 20  1  0  0  0  0
  1 21  1  0  0  0  0
 18 21  1  0  0  0  0
 21 22  1  0  0  0  0
 21 23  1  0  0  0  0
 13 24  1  0  0  0  0
 24 25  1  0  0  0  0
M  END
> <VM2 Rank>
104

> <Conf_Id>
1221

> <Probability>
0.00

> <Sum Probability>
99.98

> <Delta G>
4.200

> <G>
66.276

> <E>
33.617

> <-TS>
32.659

> <U+W>
13.049

> <U>
15.005

> <W>
-1.955

> <W(PB)>
-4.087

> <W(SA)>
2.131

> <Valence>
19.235

> <Coulomb>
-8.450

> <VdW>
4.220

> <VdW6>
-13.530

> <VdW12>
17.750

> <Bond>
0.710

> <Angle>
8.934

> <Pdih>
9.590

> <Idih>
0.000

> <Tether>
0.000

$$$$
VeraChem MOL file


 25 25  0  0  0  0  0  0  0  0999 V2000     
   21.3271   19.7211   21.2529 C   0  0  0  0  0  0  0  0  0  0  0  0
   21.8947   19.9606   20.3432 H   0  0  0  0  0  0  0  0  0  0  0  0
   21.8979   20.2146   22.0460 H   0  0  0  0  0  0  0  0  0  0  0  0
   21.3659   18.1736   21.4197 C   0  0  0  0  0  0  0  0  0  0  0  0
   21.3462   17.7346   20.4129 H   0  0  0  0  0  0  0  0  0  0  0  0
   22.3366   17.8853   21.8451 H   0  0  0  0  0  0  0  0  0  0  0  0
   20.2301   17.4954   22.2298 C   0  0  0  0  0  0  0  0  0  0  0  0
   20.3592   16.4084   22.1375 H   0  0  0  0  0  0  0  0  0  0  0  0
   19.2719   17.6826   21.7347 H   0  0  0  0  0  0  0  0  0  0  0  0
   20.1413   17.8194   23.7509 C   0  0  0  0  0  0  0  0  0  0  0  0
   19.1283   17.5850   24.1027 H   0  0  0  0  0  0  0  0  0  0  0  0
   20.8068   17.1171   24.2705 H   0  0  0  0  0  0  0  0  0  0  0  0
   20.5324   19.2430   24.2219 C   0  0  0  0  0  0  0  0  0  0  0  0
   21.5619   19.4329   23.9013 H   0  0  0  0  0  0  0  0  0  0  0  0
   19.6194   20.4170   23.7640 C   0  0  0  0  0  0  0  0  0  0  0  0
   18.7943   20.5131   24.4821 H   0  0  0  0  0  0  0  0  0  0  0  0
   20.1917   21.3499   23.8468 H   0  0  0  0  0  0  0  0  0  0  0  0
   18.9780   20.3453   22.3519 C   0  0  0  0  0  0  0  0  0  0  0  0
   18.2881   21.1949   22.2570 H   0  0  0  0  0  0  0  0  0  0  0  0
   18.3190   19.4730   22.2968 H   0  0  0  0  0  0  0  0  0  0  0  0
   19.9352   20.3945   21.1252 C   0  0  0  0  0  0  0  0  0  0  0  0
   19.4135   19.9829   20.2505 H   0  0  0  0  0  0  0  0  0  0  0  0
   20.1121   21.4526   20.8887 H   0  0  0  0  0  0  0  0  0  0  0  0
   20.5347   19.2337   25.6437 O   0  0  0  0  0  0  0  0  0  0  0  0
   19.6193   19.0245   25.9210 H   0  0  0  0  0  0  0  0  0  0  0  0
  1  2  1  0  0  0  0
  1  3  1  0  0  0  0
  1  4  1  0  0  0  0
  4  5  1  0  0  0  0
  4  6  1  0  0  0  0
  4  7  1  0  0  0  0
  7  8  1  0  0  0  0
  7  9  1  0  0  0  0
  7 10  1  0  0  0  0
 10 11  1  0  0  0  0
 10 12  1  0  0  0  0
 10 13  1  0  0  0  0
 13 14  1  0  0  0  0
 13 15  1  0  0  0  0
 15 16  1  0  0  0  0
 15 17  1  0  0  0  0
 15 18  1  0  0  0  0
 18 19  1  0  0  0  0
 18 20  1  0  0  0  0
  1 21  1  0  0  0  0
 18 21  1  0  0  0  0
 21 22  1  0  0  0  0
 21 23  1  0  0  0  0
 13 24  1  0  0  0  0
 24 25  1  0  0  0  0
M  END
> <VM2 Rank>
105

> <Conf_Id>
1440

> <Probability>
0.00

> <Sum Probability>
99.98

> <Delta G>
4.250

> <G>
66.326

> <E>
33.667

> <-TS>
32.659

> <U+W>
13.100

> <U>
15.005

> <W>
-1.905

> <W(PB)>
-4.036

> <W(SA)>
2.131

> <Valence>
19.235

> <Coulomb>
-8.450

> <VdW>
4.220

> <VdW6>
-13.530

> <VdW12>
17.750

> <Bond>
0.710

> <Angle>
8.935

> <Pdih>
9.590

> <Idih>
0.000

> <Tether>
0.000

$$$$
VeraChem MOL file


 25 25  0  0  0  0  0  0  0  0999 V2000     
   20.7215   19.5005   20.7225 C   0  0  0  0  0  0  0  0  0  0  0  0
   20.4970   19.0371   19.7521 H   0  0  0  0  0  0  0  0  0  0  0  0
   21.3226   20.3898   20.4896 H   0  0  0  0  0  0  0  0  0  0  0  0
   21.5977   18.4951   21.5259 C   0  0  0  0  0  0  0  0  0  0  0  0
   22.2361   17.9733   20.7999 H   0  0  0  0  0  0  0  0  0  0  0  0
   22.3146   19.0246   22.1613 H   0  0  0  0  0  0  0  0  0  0  0  0
   20.8649   17.4155   22.3649 C   0  0  0  0  0  0  0  0  0  0  0  0
   21.6340   16.7314   22.7487 H   0  0  0  0  0  0  0  0  0  0  0  0
   20.2369   16.8066   21.7008 H   0  0  0  0  0  0  0  0  0  0  0  0
   20.0080   17.8827   23.5798 C   0  0  0  0  0  0  0  0  0  0  0  0
   18.9691   18.0508   23.2816 H   0  0  0  0  0  0  0  0  0  0  0  0
   19.9444   17.0325   24.2717 H   0  0  0  0  0  0  0  0  0  0  0  0
   20.5061   19.1058   24.3900 C   0  0  0  0  0  0  0  0  0  0  0  0
   21.5280   18.8900   24.7335 H   0  0  0  0  0  0  0  0  0  0  0  0
   20.5287   20.4879   23.6733 C   0  0  0  0  0  0  0  0  0  0  0  0
   20.4822   21.2672   24.4451 H   0  0  0  0  0  0  0  0  0  0  0  0
   21.5033   20.6578   23.2074 H   0  0  0  0  0  0  0  0  0  0  0  0
   19.4094   20.7909   22.6401 C   0  0  0  0  0  0  0  0  0  0  0  0
   19.5197   21.8437   22.3469 H   0  0  0  0  0  0  0  0  0  0  0  0
   18.4327   20.7256   23.1385 H   0  0  0  0  0  0  0  0  0  0  0  0
   19.3668   19.9452   21.3339 C   0  0  0  0  0  0  0  0  0  0  0  0
   18.8427   20.5457   20.5779 H   0  0  0  0  0  0  0  0  0  0  0  0
   18.7214   19.0698   21.4578 H   0  0  0  0  0  0  0  0  0  0  0  0
   19.6608   19.2194   25.5296 O   0  0  0  0  0  0  0  0  0  0  0  0
   20.0086   19.9606   26.0672 H   0  0  0  0  0  0  0  0  0  0  0  0
  1  2  1  0  0  0  0
  1  3  1  0  0  0  0
  1  4  1  0  0  0  0
  4  5  1  0  0  0  0
  4  6  1  0  0  0  0
  4  7  1  0  0  0  0
  7  8  1  0  0  0  0
  7  9  1  0  0  0  0
  7 10  1  0  0  0  0
 10 11  1  0  0  0  0
 10 12  1  0  0  0  0
 10 13  1  0  0  0  0
 13 14  1  0  0  0  0
 13 15  1  0  0  0  0
 15 16  1  0  0  0  0
 15 17  1  0  0  0  0
 15 18  1  0  0  0  0
 18 19  1  0  0  0  0
 18 20  1  0  0  0  0
  1 21  1  0  0  0  0
 18 21  1  0  0  0  0
 21 22  1  0  0  0  0
 21 23  1  0  0  0  0
 13 24  1  0  0  0  0
 24 25  1  0  0  0  0
M  END
> <VM2 Rank>
106

> <Conf_Id>
336

> <Probability>
0.00

> <Sum Probability>
99.99

> <Delta G>
4.583

> <G>
66.658

> <E>
33.998

> <-TS>
32.661

> <U+W>
13.430

> <U>
15.643

> <W>
-2.213

> <W(PB)>
-4.344

> <W(SA)>
2.131

> <Valence>
18.917

> <Coulomb>
-7.506

> <VdW>
4.232

> <VdW6>
-13.632

> <VdW12>
17.864

> <Bond>
0.735

> <Angle>
9.140

> <Pdih>
9.042

> <Idih>
0.000

> <Tether>
0.000

$$$$
VeraChem MOL file


 25 25  0  0  0  0  0  0  0  0999 V2000     
   20.7955   19.2878   20.7197 C   0  0  0  0  0  0  0  0  0  0  0  0
   21.8567   19.1275   20.4861 H   0  0  0  0  0  0  0  0  0  0  0  0
   20.2994   19.4209   19.7486 H   0  0  0  0  0  0  0  0  0  0  0  0
   20.2107   17.9973   21.3516 C   0  0  0  0  0  0  0  0  0  0  0  0
   19.1296   18.1139   21.4768 H   0  0  0  0  0  0  0  0  0  0  0  0
   20.2978   17.1943   20.6069 H   0  0  0  0  0  0  0  0  0  0  0  0
   20.8669   17.4769   22.6637 C   0  0  0  0  0  0  0  0  0  0  0  0
   21.7173   16.8432   22.3774 H   0  0  0  0  0  0  0  0  0  0  0  0
   20.1607   16.8077   23.1739 H   0  0  0  0  0  0  0  0  0  0  0  0
   21.4019   18.5220   23.6803 C   0  0  0  0  0  0  0  0  0  0  0  0
   21.9476   17.9729   24.4587 H   0  0  0  0  0  0  0  0  0  0  0  0
   22.1839   19.1194   23.2035 H   0  0  0  0  0  0  0  0  0  0  0  0
   20.3691   19.4489   24.3864 C   0  0  0  0  0  0  0  0  0  0  0  0
   20.9006   20.3533   24.7152 H   0  0  0  0  0  0  0  0  0  0  0  0
   19.1282   19.8953   23.5730 C   0  0  0  0  0  0  0  0  0  0  0  0
   18.5501   19.0112   23.2893 H   0  0  0  0  0  0  0  0  0  0  0  0
   18.4600   20.4324   24.2590 H   0  0  0  0  0  0  0  0  0  0  0  0
   19.3587   20.8250   22.3438 C   0  0  0  0  0  0  0  0  0  0  0  0
   19.3742   21.8597   22.7126 H   0  0  0  0  0  0  0  0  0  0  0  0
   18.4836   20.7631   21.6829 H   0  0  0  0  0  0  0  0  0  0  0  0
   20.6476   20.6245   21.5041 C   0  0  0  0  0  0  0  0  0  0  0  0
   21.5238   20.8051   22.1345 H   0  0  0  0  0  0  0  0  0  0  0  0
   20.6916   21.4372   20.7661 H   0  0  0  0  0  0  0  0  0  0  0  0
   19.8854   18.7653   25.5375 O   0  0  0  0  0  0  0  0  0  0  0  0
   20.6684   18.5294   26.0764 H   0  0  0  0  0  0  0  0  0  0  0  0
  1  2  1  0  0  0  0
  1  3  1  0  0  0  0
  1  4  1  0  0  0  0
  4  5  1  0  0  0  0
  4  6  1  0  0  0  0
  4  7  1  0  0  0  0
  7  8  1  0  0  0  0
  7  9  1  0  0  0  0
  7 10  1  0  0  0  0
 10 11  1  0  0  0  0
 10 12  1  0  0  0  0
 10 13  1  0  0  0  0
 13 14  1  0  0  0  0
 13 15  1  0  0  0  0
 15 16  1  0  0  0  0
 15 17  1  0  0  0  0
 15 18  1  0  0  0  0
 18 19  1  0  0  0  0
 18 20  1  0  0  0  0
  1 21  1  0  0  0  0
 18 21  1  0  0  0  0
 21 22  1  0  0  0  0
 21 23  1  0  0  0  0
 13 24  1  0  0  0  0
 24 25  1  0  0  0  0
M  END
> <VM2 Rank>
107

> <Conf_Id>
1633

> <Probability>
0.00

> <Sum Probability>
99.99

> <Delta G>
4.618

> <G>
66.694

> <E>
34.034

> <-TS>
32.660

> <U+W>
13.466

> <U>
15.643

> <W>
-2.177

> <W(PB)>
-4.308

> <W(SA)>
2.131

> <Valence>
18.916

> <Coulomb>
-7.506

> <VdW>
4.232

> <VdW6>
-13.632

> <VdW12>
17.864

> <Bond>
0.735

> <Angle>
9.140

> <Pdih>
9.042

> <Idih>
0.000

> <Tether>
0.000

$$$$
VeraChem MOL file


 25 25  0  0  0  0  0  0  0  0999 V2000     
   20.1083   19.1066   20.6548 C   0  0  0  0  0  0  0  0  0  0  0  0
   19.3567   18.4435   20.2052 H   0  0  0  0  0  0  0  0  0  0  0  0
   20.5345   19.6851   19.8241 H   0  0  0  0  0  0  0  0  0  0  0  0
   21.2337   18.2385   21.2753 C   0  0  0  0  0  0  0  0  0  0  0  0
   22.1545   18.8255   21.3852 H   0  0  0  0  0  0  0  0  0  0  0  0
   21.4828   17.4589   20.5424 H   0  0  0  0  0  0  0  0  0  0  0  0
   20.8817   17.5474   22.6169 C   0  0  0  0  0  0  0  0  0  0  0  0
   21.4291   16.5951   22.6324 H   0  0  0  0  0  0  0  0  0  0  0  0
   19.8212   17.2660   22.6404 H   0  0  0  0  0  0  0  0  0  0  0  0
   21.3098   18.3293   23.8980 C   0  0  0  0  0  0  0  0  0  0  0  0
   21.5798   17.5791   24.6526 H   0  0  0  0  0  0  0  0  0  0  0  0
   22.2377   18.8855   23.7146 H   0  0  0  0  0  0  0  0  0  0  0  0
   20.2677   19.2637   24.5715 C   0  0  0  0  0  0  0  0  0  0  0  0
   20.5989   19.3813   25.6135 H   0  0  0  0  0  0  0  0  0  0  0  0
   20.1614   20.7115   24.0170 C   0  0  0  0  0  0  0  0  0  0  0  0
   19.1959   21.1321   24.3280 H   0  0  0  0  0  0  0  0  0  0  0  0
   20.9210   21.3205   24.5238 H   0  0  0  0  0  0  0  0  0  0  0  0
   20.3341   20.9270   22.4917 C   0  0  0  0  0  0  0  0  0  0  0  0
   21.3817   20.7640   22.2136 H   0  0  0  0  0  0  0  0  0  0  0  0
   20.1476   21.9871   22.2734 H   0  0  0  0  0  0  0  0  0  0  0  0
   19.3820   20.0722   21.6202 C   0  0  0  0  0  0  0  0  0  0  0  0
   18.7440   20.7416   21.0275 H   0  0  0  0  0  0  0  0  0  0  0  0
   18.6869   19.5029   22.2477 H   0  0  0  0  0  0  0  0  0  0  0  0
   18.9853   18.6468   24.6146 O   0  0  0  0  0  0  0  0  0  0  0  0
   19.1330   17.7234   24.9029 H   0  0  0  0  0  0  0  0  0  0  0  0
  1  2  1  0  0  0  0
  1  3  1  0  0  0  0
  1  4  1  0  0  0  0
  4  5  1  0  0  0  0
  4  6  1  0  0  0  0
  4  7  1  0  0  0  0
  7  8  1  0  0  0  0
  7  9  1  0  0  0  0
  7 10  1  0  0  0  0
 10 11  1  0  0  0  0
 10 12  1  0  0  0  0
 10 13  1  0  0  0  0
 13 14  1  0  0  0  0
 13 15  1  0  0  0  0
 15 16  1  0  0  0  0
 15 17  1  0  0  0  0
 15 18  1  0  0  0  0
 18 19  1  0  0  0  0
 18 20  1  0  0  0  0
  1 21  1  0  0  0  0
 18 21  1  0  0  0  0
 21 22  1  0  0  0  0
 21 23  1  0  0  0  0
 13 24  1  0  0  0  0
 24 25  1  0  0  0  0
M  END
> <VM2 Rank>
108

> <Conf_Id>
1667

> <Probability>
0.00

> <Sum Probability>
99.99

> <Delta G>
4.678

> <G>
66.753

> <E>
34.240

> <-TS>
32.513

> <U+W>
13.672

> <U>
15.604

> <W>
-1.932

> <W(PB)>
-4.048

> <W(SA)>
2.116

> <Valence>
19.784

> <Coulomb>
-7.373

> <VdW>
3.193

> <VdW6>
-13.422

> <VdW12>
16.615

> <Bond>
0.544

> <Angle>
5.996

> <Pdih>
13.243

> <Idih>
0.000

> <Tether>
0.000

$$$$
VeraChem MOL file


 25 25  0  0  0  0  0  0  0  0999 V2000     
   20.1712   19.1430   20.6491 C   0  0  0  0  0  0  0  0  0  0  0  0
   19.1877   19.0738   20.1648 H   0  0  0  0  0  0  0  0  0  0  0  0
   20.9110   19.0415   19.8435 H   0  0  0  0  0  0  0  0  0  0  0  0
   20.3154   17.9466   21.6185 C   0  0  0  0  0  0  0  0  0  0  0  0
   19.4007   17.8504   22.2144 H   0  0  0  0  0  0  0  0  0  0  0  0
   20.3649   17.0231   21.0259 H   0  0  0  0  0  0  0  0  0  0  0  0
   21.5614   18.0234   22.5339 C   0  0  0  0  0  0  0  0  0  0  0  0
   22.1901   18.8843   22.2787 H   0  0  0  0  0  0  0  0  0  0  0  0
   22.1928   17.1467   22.3363 H   0  0  0  0  0  0  0  0  0  0  0  0
   21.2339   18.0497   24.0488 C   0  0  0  0  0  0  0  0  0  0  0  0
   20.8451   17.0664   24.3451 H   0  0  0  0  0  0  0  0  0  0  0  0
   22.1826   18.1625   24.5891 H   0  0  0  0  0  0  0  0  0  0  0  0
   20.2586   19.1410   24.5712 C   0  0  0  0  0  0  0  0  0  0  0  0
   20.5385   19.2929   25.6238 H   0  0  0  0  0  0  0  0  0  0  0  0
   20.3481   20.5399   23.9022 C   0  0  0  0  0  0  0  0  0  0  0  0
   19.9773   21.2579   24.6453 H   0  0  0  0  0  0  0  0  0  0  0  0
   21.4013   20.8106   23.7557 H   0  0  0  0  0  0  0  0  0  0  0  0
   19.5358   20.7857   22.5924 C   0  0  0  0  0  0  0  0  0  0  0  0
   19.2414   21.8440   22.5991 H   0  0  0  0  0  0  0  0  0  0  0  0
   18.5906   20.2279   22.5822 H   0  0  0  0  0  0  0  0  0  0  0  0
   20.3213   20.5530   21.2770 C   0  0  0  0  0  0  0  0  0  0  0  0
   19.9666   21.2787   20.5323 H   0  0  0  0  0  0  0  0  0  0  0  0
   21.3812   20.7966   21.4242 H   0  0  0  0  0  0  0  0  0  0  0  0
   18.9184   18.6607   24.5670 O   0  0  0  0  0  0  0  0  0  0  0  0
   18.3547   19.4137   24.8369 H   0  0  0  0  0  0  0  0  0  0  0  0
  1  2  1  0  0  0  0
  1  3  1  0  0  0  0
  1  4  1  0  0  0  0
  4  5  1  0  0  0  0
  4  6  1  0  0  0  0
  4  7  1  0  0  0  0
  7  8  1  0  0  0  0
  7  9  1  0  0  0  0
  7 10  1  0  0  0  0
 10 11  1  0  0  0  0
 10 12  1  0  0  0  0
 10 13  1  0  0  0  0
 13 14  1  0  0  0  0
 13 15  1  0  0  0  0
 15 16  1  0  0  0  0
 15 17  1  0  0  0  0
 15 18  1  0  0  0  0
 18 19  1  0  0  0  0
 18 20  1  0  0  0  0
  1 21  1  0  0  0  0
 18 21  1  0  0  0  0
 21 22  1  0  0  0  0
 21 23  1  0  0  0  0
 13 24  1  0  0  0  0
 24 25  1  0  0  0  0
M  END
> <VM2 Rank>
109

> <Conf_Id>
1192

> <Probability>
0.00

> <Sum Probability>
99.99

> <Delta G>
4.700

> <G>
66.776

> <E>
34.262

> <-TS>
32.514

> <U+W>
13.695

> <U>
15.604

> <W>
-1.910

> <W(PB)>
-4.058

> <W(SA)>
2.148

> <Valence>
19.784

> <Coulomb>
-7.373

> <VdW>
3.193

> <VdW6>
-13.422

> <VdW12>
16.615

> <Bond>
0.544

> <Angle>
5.996

> <Pdih>
13.244

> <Idih>
0.000

> <Tether>
0.000

$$$$
VeraChem MOL file


 25 25  0  0  0  0  0  0  0  0999 V2000     
   20.7267   19.5030   20.7237 C   0  0  0  0  0  0  0  0  0  0  0  0
   20.5072   19.0412   19.7514 H   0  0  0  0  0  0  0  0  0  0  0  0
   21.3286   20.3929   20.4955 H   0  0  0  0  0  0  0  0  0  0  0  0
   21.5988   18.4966   21.5300 C   0  0  0  0  0  0  0  0  0  0  0  0
   22.2410   17.9757   20.8067 H   0  0  0  0  0  0  0  0  0  0  0  0
   22.3120   19.0255   22.1700 H   0  0  0  0  0  0  0  0  0  0  0  0
   20.8608   17.4162   22.3635 C   0  0  0  0  0  0  0  0  0  0  0  0
   21.6272   16.7282   22.7460 H   0  0  0  0  0  0  0  0  0  0  0  0
   20.2322   16.8116   21.6958 H   0  0  0  0  0  0  0  0  0  0  0  0
   20.0035   17.8822   23.5785 C   0  0  0  0  0  0  0  0  0  0  0  0
   18.9659   18.0550   23.2775 H   0  0  0  0  0  0  0  0  0  0  0  0
   19.9370   17.0274   24.2641 H   0  0  0  0  0  0  0  0  0  0  0  0
   20.5061   19.1043   24.3884 C   0  0  0  0  0  0  0  0  0  0  0  0
   21.5309   18.8913   24.7249 H   0  0  0  0  0  0  0  0  0  0  0  0
   20.5234   20.4870   23.6737 C   0  0  0  0  0  0  0  0  0  0  0  0
   20.4674   21.2596   24.4523 H   0  0  0  0  0  0  0  0  0  0  0  0
   21.4994   20.6650   23.2137 H   0  0  0  0  0  0  0  0  0  0  0  0
   19.4057   20.7882   22.6380 C   0  0  0  0  0  0  0  0  0  0  0  0
   19.5129   21.8422   22.3482 H   0  0  0  0  0  0  0  0  0  0  0  0
   18.4284   20.7183   23.1346 H   0  0  0  0  0  0  0  0  0  0  0  0
   19.3691   19.9457   21.3296 C   0  0  0  0  0  0  0  0  0  0  0  0
   18.8480   20.5476   20.5726 H   0  0  0  0  0  0  0  0  0  0  0  0
   18.7237   19.0696   21.4489 H   0  0  0  0  0  0  0  0  0  0  0  0
   19.6699   19.2199   25.5346 O   0  0  0  0  0  0  0  0  0  0  0  0
   19.7224   18.3653   26.0104 H   0  0  0  0  0  0  0  0  0  0  0  0
  1  2  1  0  0  0  0
  1  3  1  0  0  0  0
  1  4  1  0  0  0  0
  4  5  1  0  0  0  0
  4  6  1  0  0  0  0
  4  7  1  0  0  0  0
  7  8  1  0  0  0  0
  7  9  1  0  0  0  0
  7 10  1  0  0  0  0
 10 11  1  0  0  0  0
 10 12  1  0  0  0  0
 10 13  1  0  0  0  0
 13 14  1  0  0  0  0
 13 15  1  0  0  0  0
 15 16  1  0  0  0  0
 15 17  1  0  0  0  0
 15 18  1  0  0  0  0
 18 19  1  0  0  0  0
 18 20  1  0  0  0  0
  1 21  1  0  0  0  0
 18 21  1  0  0  0  0
 21 22  1  0  0  0  0
 21 23  1  0  0  0  0
 13 24  1  0  0  0  0
 24 25  1  0  0  0  0
M  END
> <VM2 Rank>
110

> <Conf_Id>
1595

> <Probability>
0.00

> <Sum Probability>
99.99

> <Delta G>
4.702

> <G>
66.777

> <E>
34.090

> <-TS>
32.688

> <U+W>
13.522

> <U>
15.675

> <W>
-2.153

> <W(PB)>
-4.273

> <W(SA)>
2.120

> <Valence>
18.885

> <Coulomb>
-7.469

> <VdW>
4.260

> <VdW6>
-13.645

> <VdW12>
17.904

> <Bond>
0.733

> <Angle>
9.054

> <Pdih>
9.097

> <Idih>
0.000

> <Tether>
0.000

$$$$
VeraChem MOL file


 25 25  0  0  0  0  0  0  0  0999 V2000     
   20.8006   19.2899   20.7207 C   0  0  0  0  0  0  0  0  0  0  0  0
   20.3089   19.4254   19.7477 H   0  0  0  0  0  0  0  0  0  0  0  0
   21.8628   19.1296   20.4918 H   0  0  0  0  0  0  0  0  0  0  0  0
   20.2122   17.9985   21.3473 C   0  0  0  0  0  0  0  0  0  0  0  0
   20.3023   17.1968   20.6017 H   0  0  0  0  0  0  0  0  0  0  0  0
   19.1306   18.1157   21.4681 H   0  0  0  0  0  0  0  0  0  0  0  0
   20.8623   17.4759   22.6617 C   0  0  0  0  0  0  0  0  0  0  0  0
   21.7113   16.8391   22.3786 H   0  0  0  0  0  0  0  0  0  0  0  0
   20.1523   16.8095   23.1701 H   0  0  0  0  0  0  0  0  0  0  0  0
   21.3978   18.5187   23.6806 C   0  0  0  0  0  0  0  0  0  0  0  0
   21.9321   17.9672   24.4658 H   0  0  0  0  0  0  0  0  0  0  0  0
   22.1866   19.1116   23.2096 H   0  0  0  0  0  0  0  0  0  0  0  0
   20.3681   19.4499   24.3848 C   0  0  0  0  0  0  0  0  0  0  0  0
   20.9039   20.3544   24.7066 H   0  0  0  0  0  0  0  0  0  0  0  0
   19.1250   19.8925   23.5719 C   0  0  0  0  0  0  0  0  0  0  0  0
   18.5511   19.0061   23.2855 H   0  0  0  0  0  0  0  0  0  0  0  0
   18.4515   20.4305   24.2517 H   0  0  0  0  0  0  0  0  0  0  0  0
   19.3565   20.8216   22.3425 C   0  0  0  0  0  0  0  0  0  0  0  0
   19.3676   21.8569   22.7099 H   0  0  0  0  0  0  0  0  0  0  0  0
   18.4842   20.7565   21.6783 H   0  0  0  0  0  0  0  0  0  0  0  0
   20.6493   20.6243   21.5080 C   0  0  0  0  0  0  0  0  0  0  0  0
   21.5229   20.8026   22.1430 H   0  0  0  0  0  0  0  0  0  0  0  0
   20.6966   21.4390   20.7726 H   0  0  0  0  0  0  0  0  0  0  0  0
   19.8922   18.7718   25.5424 O   0  0  0  0  0  0  0  0  0  0  0  0
   19.2987   19.3945   26.0109 H   0  0  0  0  0  0  0  0  0  0  0  0
  1  2  1  0  0  0  0
  1  3  1  0  0  0  0
  1  4  1  0  0  0  0
  4  5  1  0  0  0  0
  4  6  1  0  0  0  0
  4  7  1  0  0  0  0
  7  8  1  0  0  0  0
  7  9  1  0  0  0  0
  7 10  1  0  0  0  0
 10 11  1  0  0  0  0
 10 12  1  0  0  0  0
 10 13  1  0  0  0  0
 13 14  1  0  0  0  0
 13 15  1  0  0  0  0
 15 16  1  0  0  0  0
 15 17  1  0  0  0  0
 15 18  1  0  0  0  0
 18 19  1  0  0  0  0
 18 20  1  0  0  0  0
  1 21  1  0  0  0  0
 18 21  1  0  0  0  0
 21 22  1  0  0  0  0
 21 23  1  0  0  0  0
 13 24  1  0  0  0  0
 24 25  1  0  0  0  0
M  END
> <VM2 Rank>
111

> <Conf_Id>
1540

> <Probability>
0.00

> <Sum Probability>
99.99

> <Delta G>
4.714

> <G>
66.790

> <E>
34.102

> <-TS>
32.688

> <U+W>
13.534

> <U>
15.675

> <W>
-2.141

> <W(PB)>
-4.263

> <W(SA)>
2.122

> <Valence>
18.885

> <Coulomb>
-7.469

> <VdW>
4.260

> <VdW6>
-13.645

> <VdW12>
17.904

> <Bond>
0.733

> <Angle>
9.054

> <Pdih>
9.097

> <Idih>
0.000

> <Tether>
0.000

$$$$
VeraChem MOL file


 25 25  0  0  0  0  0  0  0  0999 V2000     
   20.1024   19.1087   20.7568 C   0  0  0  0  0  0  0  0  0  0  0  0
   19.0673   19.2239   20.4083 H   0  0  0  0  0  0  0  0  0  0  0  0
   20.6918   18.8889   19.8562 H   0  0  0  0  0  0  0  0  0  0  0  0
   20.1843   17.8601   21.6826 C   0  0  0  0  0  0  0  0  0  0  0  0
   19.2586   17.7389   22.2539 H   0  0  0  0  0  0  0  0  0  0  0  0
   20.2005   16.9759   21.0311 H   0  0  0  0  0  0  0  0  0  0  0  0
   21.3963   17.7539   22.6455 C   0  0  0  0  0  0  0  0  0  0  0  0
   22.3243   17.7464   22.0583 H   0  0  0  0  0  0  0  0  0  0  0  0
   21.3409   16.7646   23.1195 H   0  0  0  0  0  0  0  0  0  0  0  0
   21.5286   18.8100   23.7852 C   0  0  0  0  0  0  0  0  0  0  0  0
   22.1526   18.3651   24.5710 H   0  0  0  0  0  0  0  0  0  0  0  0
   22.1238   19.6635   23.4494 H   0  0  0  0  0  0  0  0  0  0  0  0
   20.2363   19.3419   24.4575 C   0  0  0  0  0  0  0  0  0  0  0  0
   20.5686   20.0199   25.2569 H   0  0  0  0  0  0  0  0  0  0  0  0
   19.2410   20.1509   23.5797 C   0  0  0  0  0  0  0  0  0  0  0  0
   18.4979   19.4919   23.1211 H   0  0  0  0  0  0  0  0  0  0  0  0
   18.6496   20.7681   24.2681 H   0  0  0  0  0  0  0  0  0  0  0  0
   19.8281   21.0984   22.4977 C   0  0  0  0  0  0  0  0  0  0  0  0
   20.4675   21.8483   22.9827 H   0  0  0  0  0  0  0  0  0  0  0  0
   18.9851   21.6621   22.0754 H   0  0  0  0  0  0  0  0  0  0  0  0
   20.6084   20.4676   21.3076 C   0  0  0  0  0  0  0  0  0  0  0  0
   21.6757   20.3904   21.5365 H   0  0  0  0  0  0  0  0  0  0  0  0
   20.5757   21.1915   20.4820 H   0  0  0  0  0  0  0  0  0  0  0  0
   19.5386   18.2514   25.0474 O   0  0  0  0  0  0  0  0  0  0  0  0
   20.2052   17.7239   25.5326 H   0  0  0  0  0  0  0  0  0  0  0  0
  1  2  1  0  0  0  0
  1  3  1  0  0  0  0
  1  4  1  0  0  0  0
  4  5  1  0  0  0  0
  4  6  1  0  0  0  0
  4  7  1  0  0  0  0
  7  8  1  0  0  0  0
  7  9  1  0  0  0  0
  7 10  1  0  0  0  0
 10 11  1  0  0  0  0
 10 12  1  0  0  0  0
 10 13  1  0  0  0  0
 13 14  1  0  0  0  0
 13 15  1  0  0  0  0
 15 16  1  0  0  0  0
 15 17  1  0  0  0  0
 15 18  1  0  0  0  0
 18 19  1  0  0  0  0
 18 20  1  0  0  0  0
  1 21  1  0  0  0  0
 18 21  1  0  0  0  0
 21 22  1  0  0  0  0
 21 23  1  0  0  0  0
 13 24  1  0  0  0  0
 24 25  1  0  0  0  0
M  END
> <VM2 Rank>
112

> <Conf_Id>
1914

> <Probability>
0.00

> <Sum Probability>
100.00

> <Delta G>
4.752

> <G>
66.827

> <E>
34.160

> <-TS>
32.667

> <U+W>
13.592

> <U>
15.621

> <W>
-2.029

> <W(PB)>
-4.146

> <W(SA)>
2.117

> <Valence>
18.961

> <Coulomb>
-7.191

> <VdW>
3.851

> <VdW6>
-13.971

> <VdW12>
17.821

> <Bond>
0.726

> <Angle>
9.583

> <Pdih>
8.652

> <Idih>
0.000

> <Tether>
0.000

$$$$
VeraChem MOL file


 25 25  0  0  0  0  0  0  0  0999 V2000     
   20.1077   19.1076   20.6542 C   0  0  0  0  0  0  0  0  0  0  0  0
   19.3572   18.4437   20.2041 H   0  0  0  0  0  0  0  0  0  0  0  0
   20.5333   19.6876   19.8241 H   0  0  0  0  0  0  0  0  0  0  0  0
   21.2342   18.2409   21.2747 C   0  0  0  0  0  0  0  0  0  0  0  0
   21.4850   17.4622   20.5415 H   0  0  0  0  0  0  0  0  0  0  0  0
   22.1541   18.8288   21.3866 H   0  0  0  0  0  0  0  0  0  0  0  0
   20.8820   17.5481   22.6156 C   0  0  0  0  0  0  0  0  0  0  0  0
   21.4274   16.5948   22.6300 H   0  0  0  0  0  0  0  0  0  0  0  0
   19.8209   17.2681   22.6431 H   0  0  0  0  0  0  0  0  0  0  0  0
   21.3087   18.3254   23.8997 C   0  0  0  0  0  0  0  0  0  0  0  0
   21.5633   17.5703   24.6546 H   0  0  0  0  0  0  0  0  0  0  0  0
   22.2422   18.8745   23.7243 H   0  0  0  0  0  0  0  0  0  0  0  0
   20.2675   19.2626   24.5714 C   0  0  0  0  0  0  0  0  0  0  0  0
   20.5996   19.3793   25.6132 H   0  0  0  0  0  0  0  0  0  0  0  0
   20.1680   20.7114   24.0165 C   0  0  0  0  0  0  0  0  0  0  0  0
   19.2116   21.1474   24.3332 H   0  0  0  0  0  0  0  0  0  0  0  0
   20.9388   21.3124   24.5163 H   0  0  0  0  0  0  0  0  0  0  0  0
   20.3333   20.9265   22.4906 C   0  0  0  0  0  0  0  0  0  0  0  0
   21.3802   20.7650   22.2091 H   0  0  0  0  0  0  0  0  0  0  0  0
   20.1455   21.9865   22.2727 H   0  0  0  0  0  0  0  0  0  0  0  0
   19.3803   20.0708   21.6210 C   0  0  0  0  0  0  0  0  0  0  0  0
   18.6879   19.4984   22.2482 H   0  0  0  0  0  0  0  0  0  0  0  0
   18.7402   20.7393   21.0296 H   0  0  0  0  0  0  0  0  0  0  0  0
   18.9823   18.6497   24.6163 O   0  0  0  0  0  0  0  0  0  0  0  0
   18.3890   19.2718   25.0836 H   0  0  0  0  0  0  0  0  0  0  0  0
  1  2  1  0  0  0  0
  1  3  1  0  0  0  0
  1  4  1  0  0  0  0
  4  5  1  0  0  0  0
  4  6  1  0  0  0  0
  4  7  1  0  0  0  0
  7  8  1  0  0  0  0
  7  9  1  0  0  0  0
  7 10  1  0  0  0  0
 10 11  1  0  0  0  0
 10 12  1  0  0  0  0
 10 13  1  0  0  0  0
 13 14  1  0  0  0  0
 13 15  1  0  0  0  0
 15 16  1  0  0  0  0
 15 17  1  0  0  0  0
 15 18  1  0  0  0  0
 18 19  1  0  0  0  0
 18 20  1  0  0  0  0
  1 21  1  0  0  0  0
 18 21  1  0  0  0  0
 21 22  1  0  0  0  0
 21 23  1  0  0  0  0
 13 24  1  0  0  0  0
 24 25  1  0  0  0  0
M  END
> <VM2 Rank>
113

> <Conf_Id>
1027

> <Probability>
0.00

> <Sum Probability>
100.00

> <Delta G>
5.059

> <G>
67.134

> <E>
34.614

> <-TS>
32.520

> <U+W>
14.047

> <U>
16.200

> <W>
-2.154

> <W(PB)>
-4.283

> <W(SA)>
2.129

> <Valence>
19.712

> <Coulomb>
-6.683

> <VdW>
3.172

> <VdW6>
-13.375

> <VdW12>
16.546

> <Bond>
0.548

> <Angle>
6.059

> <Pdih>
13.105

> <Idih>
0.000

> <Tether>
0.000

$$$$
VeraChem MOL file


 25 25  0  0  0  0  0  0  0  0999 V2000     
   20.1714   19.1417   20.6485 C   0  0  0  0  0  0  0  0  0  0  0  0
   19.1880   19.0737   20.1638 H   0  0  0  0  0  0  0  0  0  0  0  0
   20.9116   19.0388   19.8434 H   0  0  0  0  0  0  0  0  0  0  0  0
   20.3134   17.9462   21.6192 C   0  0  0  0  0  0  0  0  0  0  0  0
   19.3984   17.8541   22.2149 H   0  0  0  0  0  0  0  0  0  0  0  0
   20.3607   17.0219   21.0279 H   0  0  0  0  0  0  0  0  0  0  0  0
   21.5607   18.0233   22.5329 C   0  0  0  0  0  0  0  0  0  0  0  0
   22.1898   18.8828   22.2742 H   0  0  0  0  0  0  0  0  0  0  0  0
   22.1912   17.1458   22.3356 H   0  0  0  0  0  0  0  0  0  0  0  0
   21.2386   18.0546   24.0485 C   0  0  0  0  0  0  0  0  0  0  0  0
   20.8671   17.0670   24.3512 H   0  0  0  0  0  0  0  0  0  0  0  0
   22.1898   18.1811   24.5818 H   0  0  0  0  0  0  0  0  0  0  0  0
   20.2578   19.1417   24.5710 C   0  0  0  0  0  0  0  0  0  0  0  0
   20.5377   19.2951   25.6234 H   0  0  0  0  0  0  0  0  0  0  0  0
   20.3443   20.5420   23.9036 C   0  0  0  0  0  0  0  0  0  0  0  0
   19.9592   21.2524   24.6465 H   0  0  0  0  0  0  0  0  0  0  0  0
   21.3961   20.8217   23.7650 H   0  0  0  0  0  0  0  0  0  0  0  0
   19.5363   20.7854   22.5910 C   0  0  0  0  0  0  0  0  0  0  0  0
   19.2397   21.8430   22.5965 H   0  0  0  0  0  0  0  0  0  0  0  0
   18.5917   20.2260   22.5850 H   0  0  0  0  0  0  0  0  0  0  0  0
   20.3230   20.5516   21.2764 C   0  0  0  0  0  0  0  0  0  0  0  0
   19.9701   21.2777   20.5314 H   0  0  0  0  0  0  0  0  0  0  0  0
   21.3829   20.7940   21.4254 H   0  0  0  0  0  0  0  0  0  0  0  0
   18.9185   18.6565   24.5688 O   0  0  0  0  0  0  0  0  0  0  0  0
   18.9289   17.7966   25.0357 H   0  0  0  0  0  0  0  0  0  0  0  0
  1  2  1  0  0  0  0
  1  3  1  0  0  0  0
  1  4  1  0  0  0  0
  4  5  1  0  0  0  0
  4  6  1  0  0  0  0
  4  7  1  0  0  0  0
  7  8  1  0  0  0  0
  7  9  1  0  0  0  0
  7 10  1  0  0  0  0
 10 11  1  0  0  0  0
 10 12  1  0  0  0  0
 10 13  1  0  0  0  0
 13 14  1  0  0  0  0
 13 15  1  0  0  0  0
 15 16  1  0  0  0  0
 15 17  1  0  0  0  0
 15 18  1  0  0  0  0
 18 19  1  0  0  0  0
 18 20  1  0  0  0  0
  1 21  1  0  0  0  0
 18 21  1  0  0  0  0
 21 22  1  0  0  0  0
 21 23  1  0  0  0  0
 13 24  1  0  0  0  0
 24 25  1  0  0  0  0
M  END
> <VM2 Rank>
114

> <Conf_Id>
1452

> <Probability>
0.00

> <Sum Probability>
100.00

> <Delta G>
5.102

> <G>
67.177

> <E>
34.657

> <-TS>
32.520

> <U+W>
14.090

> <U>
16.200

> <W>
-2.111

> <W(PB)>
-4.247

> <W(SA)>
2.137

> <Valence>
19.712

> <Coulomb>
-6.683

> <VdW>
3.172

> <VdW6>
-13.375

> <VdW12>
16.546

> <Bond>
0.548

> <Angle>
6.059

> <Pdih>
13.105

> <Idih>
0.000

> <Tether>
0.000

$$$$
VeraChem MOL file


 25 25  0  0  0  0  0  0  0  0999 V2000     
   20.0901   19.0968   20.7536 C   0  0  0  0  0  0  0  0  0  0  0  0
   19.4676   18.2580   20.4142 H   0  0  0  0  0  0  0  0  0  0  0  0
   20.3347   19.6658   19.8463 H   0  0  0  0  0  0  0  0  0  0  0  0
   21.4264   18.5447   21.3149 C   0  0  0  0  0  0  0  0  0  0  0  0
   22.0994   19.3792   21.5341 H   0  0  0  0  0  0  0  0  0  0  0  0
   21.9340   18.0147   20.4975 H   0  0  0  0  0  0  0  0  0  0  0  0
   21.3500   17.5604   22.5180 C   0  0  0  0  0  0  0  0  0  0  0  0
   22.3358   17.5142   23.0002 H   0  0  0  0  0  0  0  0  0  0  0  0
   21.1771   16.5555   22.1093 H   0  0  0  0  0  0  0  0  0  0  0  0
   20.2627   17.8016   23.6007 C   0  0  0  0  0  0  0  0  0  0  0  0
   19.2722   17.7085   23.1460 H   0  0  0  0  0  0  0  0  0  0  0  0
   20.3099   16.9559   24.2988 H   0  0  0  0  0  0  0  0  0  0  0  0
   20.3673   19.0937   24.4588 C   0  0  0  0  0  0  0  0  0  0  0  0
   21.1053   18.8850   25.2467 H   0  0  0  0  0  0  0  0  0  0  0  0
   20.8492   20.3919   23.7610 C   0  0  0  0  0  0  0  0  0  0  0  0
   20.9396   21.1624   24.5376 H   0  0  0  0  0  0  0  0  0  0  0  0
   21.8804   20.2490   23.4268 H   0  0  0  0  0  0  0  0  0  0  0  0
   19.9794   20.9945   22.6152 C   0  0  0  0  0  0  0  0  0  0  0  0
   20.5999   21.6765   22.0189 H   0  0  0  0  0  0  0  0  0  0  0  0
   19.2153   21.6276   23.0866 H   0  0  0  0  0  0  0  0  0  0  0  0
   19.2322   20.0215   21.6654 C   0  0  0  0  0  0  0  0  0  0  0  0
   18.5110   19.4369   22.2448 H   0  0  0  0  0  0  0  0  0  0  0  0
   18.5974   20.6271   21.0045 H   0  0  0  0  0  0  0  0  0  0  0  0
   19.1068   19.3378   25.0725 O   0  0  0  0  0  0  0  0  0  0  0  0
   18.8619   18.5184   25.5492 H   0  0  0  0  0  0  0  0  0  0  0  0
  1  2  1  0  0  0  0
  1  3  1  0  0  0  0
  1  4  1  0  0  0  0
  4  5  1  0  0  0  0
  4  6  1  0  0  0  0
  4  7  1  0  0  0  0
  7  8  1  0  0  0  0
  7  9  1  0  0  0  0
  7 10  1  0  0  0  0
 10 11  1  0  0  0  0
 10 12  1  0  0  0  0
 10 13  1  0  0  0  0
 13 14  1  0  0  0  0
 13 15  1  0  0  0  0
 15 16  1  0  0  0  0
 15 17  1  0  0  0  0
 15 18  1  0  0  0  0
 18 19  1  0  0  0  0
 18 20  1  0  0  0  0
  1 21  1  0  0  0  0
 18 21  1  0  0  0  0
 21 22  1  0  0  0  0
 21 23  1  0  0  0  0
 13 24  1  0  0  0  0
 24 25  1  0  0  0  0
M  END
> <VM2 Rank>
115

> <Conf_Id>
1020

> <Probability>
0.00

> <Sum Probability>
100.00

> <Delta G>
5.128

> <G>
67.204

> <E>
34.496

> <-TS>
32.708

> <U+W>
13.928

> <U>
16.068

> <W>
-2.140

> <W(PB)>
-4.259

> <W(SA)>
2.119

> <Valence>
18.913

> <Coulomb>
-6.661

> <VdW>
3.815

> <VdW6>
-13.863

> <VdW12>
17.678

> <Bond>
0.725

> <Angle>
9.705

> <Pdih>
8.484

> <Idih>
0.000

> <Tether>
0.000

$$$$
VeraChem MOL file


 25 25  0  0  0  0  0  0  0  0999 V2000     
   20.1111   19.1129   20.7508 C   0  0  0  0  0  0  0  0  0  0  0  0
   19.0791   19.2294   20.3936 H   0  0  0  0  0  0  0  0  0  0  0  0
   20.7085   18.8960   19.8548 H   0  0  0  0  0  0  0  0  0  0  0  0
   20.1845   17.8613   21.6731 C   0  0  0  0  0  0  0  0  0  0  0  0
   20.2034   16.9793   21.0188 H   0  0  0  0  0  0  0  0  0  0  0  0
   19.2554   17.7387   22.2383 H   0  0  0  0  0  0  0  0  0  0  0  0
   21.3897   17.7486   22.6437 C   0  0  0  0  0  0  0  0  0  0  0  0
   22.3213   17.7310   22.0627 H   0  0  0  0  0  0  0  0  0  0  0  0
   21.3217   16.7616   23.1212 H   0  0  0  0  0  0  0  0  0  0  0  0
   21.5257   18.8038   23.7841 C   0  0  0  0  0  0  0  0  0  0  0  0
   22.1371   18.3487   24.5742 H   0  0  0  0  0  0  0  0  0  0  0  0
   22.1317   19.6516   23.4536 H   0  0  0  0  0  0  0  0  0  0  0  0
   20.2375   19.3444   24.4570 C   0  0  0  0  0  0  0  0  0  0  0  0
   20.5768   20.0315   25.2456 H   0  0  0  0  0  0  0  0  0  0  0  0
   19.2371   20.1448   23.5766 C   0  0  0  0  0  0  0  0  0  0  0  0
   18.4996   19.4821   23.1146 H   0  0  0  0  0  0  0  0  0  0  0  0
   18.6408   20.7624   24.2606 H   0  0  0  0  0  0  0  0  0  0  0  0
   19.8219   21.0955   22.4965 C   0  0  0  0  0  0  0  0  0  0  0  0
   20.4540   21.8502   22.9836 H   0  0  0  0  0  0  0  0  0  0  0  0
   18.9770   21.6531   22.0697 H   0  0  0  0  0  0  0  0  0  0  0  0
   20.6122   20.4698   21.3107 C   0  0  0  0  0  0  0  0  0  0  0  0
   21.6776   20.3923   21.5479 H   0  0  0  0  0  0  0  0  0  0  0  0
   20.5858   21.1967   20.4874 H   0  0  0  0  0  0  0  0  0  0  0  0
   19.5442   18.2619   25.0675 O   0  0  0  0  0  0  0  0  0  0  0  0
   18.7711   18.6467   25.5289 H   0  0  0  0  0  0  0  0  0  0  0  0
  1  2  1  0  0  0  0
  1  3  1  0  0  0  0
  1  4  1  0  0  0  0
  4  5  1  0  0  0  0
  4  6  1  0  0  0  0
  4  7  1  0  0  0  0
  7  8  1  0  0  0  0
  7  9  1  0  0  0  0
  7 10  1  0  0  0  0
 10 11  1  0  0  0  0
 10 12  1  0  0  0  0
 10 13  1  0  0  0  0
 13 14  1  0  0  0  0
 13 15  1  0  0  0  0
 15 16  1  0  0  0  0
 15 17  1  0  0  0  0
 15 18  1  0  0  0  0
 18 19  1  0  0  0  0
 18 20  1  0  0  0  0
  1 21  1  0  0  0  0
 18 21  1  0  0  0  0
 21 22  1  0  0  0  0
 21 23  1  0  0  0  0
 13 24  1  0  0  0  0
 24 25  1  0  0  0  0
M  END
> <VM2 Rank>
116

> <Conf_Id>
184

> <Probability>
0.00

> <Sum Probability>
100.00

> <Delta G>
5.157

> <G>
67.233

> <E>
34.525

> <-TS>
32.708

> <U+W>
13.957

> <U>
16.068

> <W>
-2.110

> <W(PB)>
-4.237

> <W(SA)>
2.127

> <Valence>
18.913

> <Coulomb>
-6.661

> <VdW>
3.815

> <VdW6>
-13.862

> <VdW12>
17.677

> <Bond>
0.725

> <Angle>
9.706

> <Pdih>
8.483

> <Idih>
0.000

> <Tether>
0.000

$$$$
VeraChem MOL file


 25 25  0  0  0  0  0  0  0  0999 V2000     
   20.1517   19.1411   20.7530 C   0  0  0  0  0  0  0  0  0  0  0  0
   19.4487   18.8723   19.9531 H   0  0  0  0  0  0  0  0  0  0  0  0
   21.0624   19.4838   20.2433 H   0  0  0  0  0  0  0  0  0  0  0  0
   20.4658   17.8541   21.5573 C   0  0  0  0  0  0  0  0  0  0  0  0
   20.7593   17.0858   20.8291 H   0  0  0  0  0  0  0  0  0  0  0  0
   19.5596   17.4619   22.0332 H   0  0  0  0  0  0  0  0  0  0  0  0
   21.6239   17.9966   22.5771 C   0  0  0  0  0  0  0  0  0  0  0  0
   22.2992   18.8061   22.2795 H   0  0  0  0  0  0  0  0  0  0  0  0
   22.2436   17.0924   22.5056 H   0  0  0  0  0  0  0  0  0  0  0  0
   21.2198   18.1434   24.0709 C   0  0  0  0  0  0  0  0  0  0  0  0
   20.9308   17.1510   24.4403 H   0  0  0  0  0  0  0  0  0  0  0  0
   22.1243   18.4045   24.6353 H   0  0  0  0  0  0  0  0  0  0  0  0
   20.1014   19.1384   24.4836 C   0  0  0  0  0  0  0  0  0  0  0  0
   20.1319   19.1545   25.5826 H   0  0  0  0  0  0  0  0  0  0  0  0
   20.2628   20.6232   24.0613 C   0  0  0  0  0  0  0  0  0  0  0  0
   19.3656   21.1557   24.4032 H   0  0  0  0  0  0  0  0  0  0  0  0
   21.0909   21.0508   24.6407 H   0  0  0  0  0  0  0  0  0  0  0  0
   20.4919   20.9854   22.5673 C   0  0  0  0  0  0  0  0  0  0  0  0
   21.5361   20.8161   22.2838 H   0  0  0  0  0  0  0  0  0  0  0  0
   20.3636   22.0731   22.4831 H   0  0  0  0  0  0  0  0  0  0  0  0
   19.5335   20.3189   21.5481 C   0  0  0  0  0  0  0  0  0  0  0  0
   18.5950   20.0147   22.0271 H   0  0  0  0  0  0  0  0  0  0  0  0
   19.2443   21.0843   20.8153 H   0  0  0  0  0  0  0  0  0  0  0  0
   18.8133   18.6418   24.1414 O   0  0  0  0  0  0  0  0  0  0  0  0
   18.8073   17.6934   24.3788 H   0  0  0  0  0  0  0  0  0  0  0  0
  1  2  1  0  0  0  0
  1  3  1  0  0  0  0
  1  4  1  0  0  0  0
  4  5  1  0  0  0  0
  4  6  1  0  0  0  0
  4  7  1  0  0  0  0
  7  8  1  0  0  0  0
  7  9  1  0  0  0  0
  7 10  1  0  0  0  0
 10 11  1  0  0  0  0
 10 12  1  0  0  0  0
 10 13  1  0  0  0  0
 13 14  1  0  0  0  0
 13 15  1  0  0  0  0
 15 16  1  0  0  0  0
 15 17  1  0  0  0  0
 15 18  1  0  0  0  0
 18 19  1  0  0  0  0
 18 20  1  0  0  0  0
  1 21  1  0  0  0  0
 18 21  1  0  0  0  0
 21 22  1  0  0  0  0
 21 23  1  0  0  0  0
 13 24  1  0  0  0  0
 24 25  1  0  0  0  0
M  END
> <VM2 Rank>
117

> <Conf_Id>
1555

> <Probability>
0.00

> <Sum Probability>
100.00

> <Delta G>
5.540

> <G>
67.615

> <E>
34.890

> <-TS>
32.725

> <U+W>
14.323

> <U>
16.213

> <W>
-1.891

> <W(PB)>
-4.002

> <W(SA)>
2.111

> <Valence>
19.752

> <Coulomb>
-6.007

> <VdW>
2.469

> <VdW6>
-13.673

> <VdW12>
16.142

> <Bond>
0.503

> <Angle>
8.543

> <Pdih>
10.706

> <Idih>
0.000

> <Tether>
0.000

$$$$
VeraChem MOL file


 25 25  0  0  0  0  0  0  0  0999 V2000     
   20.1513   19.1423   20.7530 C   0  0  0  0  0  0  0  0  0  0  0  0
   19.4494   18.8708   19.9530 H   0  0  0  0  0  0  0  0  0  0  0  0
   21.0610   19.4877   20.2433 H   0  0  0  0  0  0  0  0  0  0  0  0
   20.4697   17.8567   21.5576 C   0  0  0  0  0  0  0  0  0  0  0  0
   19.5648   17.4638   22.0369 H   0  0  0  0  0  0  0  0  0  0  0  0
   20.7639   17.0876   20.8307 H   0  0  0  0  0  0  0  0  0  0  0  0
   21.6262   18.0021   22.5788 C   0  0  0  0  0  0  0  0  0  0  0  0
   22.2949   18.8204   22.2915 H   0  0  0  0  0  0  0  0  0  0  0  0
   22.2531   17.1034   22.5023 H   0  0  0  0  0  0  0  0  0  0  0  0
   21.2105   18.1307   24.0709 C   0  0  0  0  0  0  0  0  0  0  0  0
   20.8928   17.1390   24.4187 H   0  0  0  0  0  0  0  0  0  0  0  0
   22.1120   18.3653   24.6511 H   0  0  0  0  0  0  0  0  0  0  0  0
   20.1023   19.1360   24.4836 C   0  0  0  0  0  0  0  0  0  0  0  0
   20.1329   19.1517   25.5827 H   0  0  0  0  0  0  0  0  0  0  0  0
   20.2781   20.6199   24.0614 C   0  0  0  0  0  0  0  0  0  0  0  0
   19.4018   21.1721   24.4247 H   0  0  0  0  0  0  0  0  0  0  0  0
   21.1261   21.0296   24.6252 H   0  0  0  0  0  0  0  0  0  0  0  0
   20.4866   20.9880   22.5656 C   0  0  0  0  0  0  0  0  0  0  0  0
   21.5298   20.8296   22.2718 H   0  0  0  0  0  0  0  0  0  0  0  0
   20.3492   22.0750   22.4863 H   0  0  0  0  0  0  0  0  0  0  0  0
   19.5289   20.3183   21.5478 C   0  0  0  0  0  0  0  0  0  0  0  0
   18.5898   20.0125   22.0233 H   0  0  0  0  0  0  0  0  0  0  0  0
   19.2399   21.0826   20.8137 H   0  0  0  0  0  0  0  0  0  0  0  0
   18.8105   18.6490   24.1413 O   0  0  0  0  0  0  0  0  0  0  0  0
   18.1753   19.3554   24.3726 H   0  0  0  0  0  0  0  0  0  0  0  0
  1  2  1  0  0  0  0
  1  3  1  0  0  0  0
  1  4  1  0  0  0  0
  4  5  1  0  0  0  0
  4  6  1  0  0  0  0
  4  7  1  0  0  0  0
  7  8  1  0  0  0  0
  7  9  1  0  0  0  0
  7 10  1  0  0  0  0
 10 11  1  0  0  0  0
 10 12  1  0  0  0  0
 10 13  1  0  0  0  0
 13 14  1  0  0  0  0
 13 15  1  0  0  0  0
 15 16  1  0  0  0  0
 15 17  1  0  0  0  0
 15 18  1  0  0  0  0
 18 19  1  0  0  0  0
 18 20  1  0  0  0  0
  1 21  1  0  0  0  0
 18 21  1  0  0  0  0
 21 22  1  0  0  0  0
 21 23  1  0  0  0  0
 13 24  1  0  0  0  0
 24 25  1  0  0  0  0
M  END
> <VM2 Rank>
118

> <Conf_Id>
547

> <Probability>
0.00

> <Sum Probability>
100.00

> <Delta G>
5.551

> <G>
67.626

> <E>
34.901

> <-TS>
32.725

> <U+W>
14.333

> <U>
16.214

> <W>
-1.881

> <W(PB)>
-3.985

> <W(SA)>
2.105

> <Valence>
19.752

> <Coulomb>
-6.007

> <VdW>
2.469

> <VdW6>
-13.673

> <VdW12>
16.142

> <Bond>
0.503

> <Angle>
8.543

> <Pdih>
10.706

> <Idih>
0.000

> <Tether>
0.000

$$$$
VeraChem MOL file


 25 25  0  0  0  0  0  0  0  0999 V2000     
   19.4937   18.8211   21.2910 C   0  0  0  0  0  0  0  0  0  0  0  0
   18.8587   18.2614   21.9841 H   0  0  0  0  0  0  0  0  0  0  0  0
   19.0021   18.6776   20.3190 H   0  0  0  0  0  0  0  0  0  0  0  0
   20.8847   18.1413   21.2174 C   0  0  0  0  0  0  0  0  0  0  0  0
   20.7231   17.1216   20.8419 H   0  0  0  0  0  0  0  0  0  0  0  0
   21.4977   18.6402   20.4546 H   0  0  0  0  0  0  0  0  0  0  0  0
   21.7012   18.0279   22.5372 C   0  0  0  0  0  0  0  0  0  0  0  0
   22.4096   18.8576   22.6352 H   0  0  0  0  0  0  0  0  0  0  0  0
   22.3466   17.1445   22.4385 H   0  0  0  0  0  0  0  0  0  0  0  0
   20.8902   17.8742   23.8524 C   0  0  0  0  0  0  0  0  0  0  0  0
   20.1600   17.0621   23.7391 H   0  0  0  0  0  0  0  0  0  0  0  0
   21.5945   17.5137   24.6133 H   0  0  0  0  0  0  0  0  0  0  0  0
   20.1933   19.1300   24.4588 C   0  0  0  0  0  0  0  0  0  0  0  0
   20.4080   19.0917   25.5365 H   0  0  0  0  0  0  0  0  0  0  0  0
   20.6506   20.5378   23.9901 C   0  0  0  0  0  0  0  0  0  0  0  0
   20.0403   21.2668   24.5398 H   0  0  0  0  0  0  0  0  0  0  0  0
   21.6747   20.7012   24.3495 H   0  0  0  0  0  0  0  0  0  0  0  0
   20.6007   20.9275   22.4798 C   0  0  0  0  0  0  0  0  0  0  0  0
   21.5650   20.7232   22.0018 H   0  0  0  0  0  0  0  0  0  0  0  0
   20.5218   22.0224   22.4365 H   0  0  0  0  0  0  0  0  0  0  0  0
   19.4655   20.3467   21.5972 C   0  0  0  0  0  0  0  0  0  0  0  0
   18.4880   20.6260   22.0125 H   0  0  0  0  0  0  0  0  0  0  0  0
   19.5234   20.8682   20.6318 H   0  0  0  0  0  0  0  0  0  0  0  0
   18.7840   19.0364   24.3361 O   0  0  0  0  0  0  0  0  0  0  0  0
   18.6074   19.2869   23.4070 H   0  0  0  0  0  0  0  0  0  0  0  0
  1  2  1  0  0  0  0
  1  3  1  0  0  0  0
  1  4  1  0  0  0  0
  4  5  1  0  0  0  0
  4  6  1  0  0  0  0
  4  7  1  0  0  0  0
  7  8  1  0  0  0  0
  7  9  1  0  0  0  0
  7 10  1  0  0  0  0
 10 11  1  0  0  0  0
 10 12  1  0  0  0  0
 10 13  1  0  0  0  0
 13 14  1  0  0  0  0
 13 15  1  0  0  0  0
 15 16  1  0  0  0  0
 15 17  1  0  0  0  0
 15 18  1  0  0  0  0
 18 19  1  0  0  0  0
 18 20  1  0  0  0  0
  1 21  1  0  0  0  0
 18 21  1  0  0  0  0
 21 22  1  0  0  0  0
 21 23  1  0  0  0  0
 13 24  1  0  0  0  0
 24 25  1  0  0  0  0
M  END
> <VM2 Rank>
119

> <Conf_Id>
1970

> <Probability>
0.00

> <Sum Probability>
100.00

> <Delta G>
7.422

> <G>
69.498

> <E>
36.284

> <-TS>
33.214

> <U+W>
15.716

> <U>
16.593

> <W>
-0.877

> <W(PB)>
-2.981

> <W(SA)>
2.104

> <Valence>
22.340

> <Coulomb>
-9.762

> <VdW>
4.015

> <VdW6>
-15.368

> <VdW12>
19.383

> <Bond>
0.782

> <Angle>
10.778

> <Pdih>
10.779

> <Idih>
0.000

> <Tether>
0.000

$$$$
VeraChem MOL file


 25 25  0  0  0  0  0  0  0  0999 V2000     
   19.4662   18.9624   21.2773 C   0  0  0  0  0  0  0  0  0  0  0  0
   18.6088   18.9581   21.9570 H   0  0  0  0  0  0  0  0  0  0  0  0
   19.0186   18.7453   20.2977 H   0  0  0  0  0  0  0  0  0  0  0  0
   20.4528   17.8020   21.5967 C   0  0  0  0  0  0  0  0  0  0  0  0
   19.9007   16.9434   22.0016 H   0  0  0  0  0  0  0  0  0  0  0  0
   20.8575   17.4523   20.6368 H   0  0  0  0  0  0  0  0  0  0  0  0
   21.6733   18.1193   22.4993 C   0  0  0  0  0  0  0  0  0  0  0  0
   22.2663   18.9131   22.0322 H   0  0  0  0  0  0  0  0  0  0  0  0
   22.3416   17.2481   22.4648 H   0  0  0  0  0  0  0  0  0  0  0  0
   21.4281   18.4408   24.0065 C   0  0  0  0  0  0  0  0  0  0  0  0
   21.4469   17.4894   24.5547 H   0  0  0  0  0  0  0  0  0  0  0  0
   22.2968   18.9977   24.3808 H   0  0  0  0  0  0  0  0  0  0  0  0
   20.1444   19.1893   24.4566 C   0  0  0  0  0  0  0  0  0  0  0  0
   20.2625   19.3583   25.5366 H   0  0  0  0  0  0  0  0  0  0  0  0
   19.8416   20.5924   23.8482 C   0  0  0  0  0  0  0  0  0  0  0  0
   18.7583   20.7153   23.7180 H   0  0  0  0  0  0  0  0  0  0  0  0
   20.1170   21.3280   24.6150 H   0  0  0  0  0  0  0  0  0  0  0  0
   20.5708   21.0183   22.5452 C   0  0  0  0  0  0  0  0  0  0  0  0
   21.6498   20.8678   22.6598 H   0  0  0  0  0  0  0  0  0  0  0  0
   20.4687   22.1077   22.4470 H   0  0  0  0  0  0  0  0  0  0  0  0
   20.0564   20.3943   21.2158 C   0  0  0  0  0  0  0  0  0  0  0  0
   19.2646   21.0505   20.8291 H   0  0  0  0  0  0  0  0  0  0  0  0
   20.8579   20.4295   20.4656 H   0  0  0  0  0  0  0  0  0  0  0  0
   19.0303   18.3242   24.3146 O   0  0  0  0  0  0  0  0  0  0  0  0
   19.0791   18.0214   23.3855 H   0  0  0  0  0  0  0  0  0  0  0  0
  1  2  1  0  0  0  0
  1  3  1  0  0  0  0
  1  4  1  0  0  0  0
  4  5  1  0  0  0  0
  4  6  1  0  0  0  0
  4  7  1  0  0  0  0
  7  8  1  0  0  0  0
  7  9  1  0  0  0  0
  7 10  1  0  0  0  0
 10 11  1  0  0  0  0
 10 12  1  0  0  0  0
 10 13  1  0  0  0  0
 13 14  1  0  0  0  0
 13 15  1  0  0  0  0
 15 16  1  0  0  0  0
 15 17  1  0  0  0  0
 15 18  1  0  0  0  0
 18 19  1  0  0  0  0
 18 20  1  0  0  0  0
  1 21  1  0  0  0  0
 18 21  1  0  0  0  0
 21 22  1  0  0  0  0
 21 23  1  0  0  0  0
 13 24  1  0  0  0  0
 24 25  1  0  0  0  0
M  END
> <VM2 Rank>
120

> <Conf_Id>
830

> <Probability>
0.00

> <Sum Probability>
100.00

> <Delta G>
7.438

> <G>
69.513

> <E>
36.299

> <-TS>
33.214

> <U+W>
15.732

> <U>
16.593

> <W>
-0.862

> <W(PB)>
-2.960

> <W(SA)>
2.098

> <Valence>
22.340

> <Coulomb>
-9.762

> <VdW>
4.015

> <VdW6>
-15.368

> <VdW12>
19.383

> <Bond>
0.782

> <Angle>
10.778

> <Pdih>
10.779

> <Idih>
0.000

> <Tether>
0.000

$$$$
VeraChem MOL file


 25 25  0  0  0  0  0  0  0  0999 V2000     
   19.4858   18.8201   21.3050 C   0  0  0  0  0  0  0  0  0  0  0  0
   18.8674   18.2884   22.0349 H   0  0  0  0  0  0  0  0  0  0  0  0
   18.9665   18.6558   20.3512 H   0  0  0  0  0  0  0  0  0  0  0  0
   20.8742   18.1355   21.2161 C   0  0  0  0  0  0  0  0  0  0  0  0
   20.7037   17.1134   20.8514 H   0  0  0  0  0  0  0  0  0  0  0  0
   21.4787   18.6269   20.4420 H   0  0  0  0  0  0  0  0  0  0  0  0
   21.7042   18.0291   22.5283 C   0  0  0  0  0  0  0  0  0  0  0  0
   22.4106   18.8612   22.6181 H   0  0  0  0  0  0  0  0  0  0  0  0
   22.3503   17.1465   22.4279 H   0  0  0  0  0  0  0  0  0  0  0  0
   20.9014   17.8792   23.8493 C   0  0  0  0  0  0  0  0  0  0  0  0
   20.1698   17.0678   23.7401 H   0  0  0  0  0  0  0  0  0  0  0  0
   21.6087   17.5209   24.6082 H   0  0  0  0  0  0  0  0  0  0  0  0
   20.2026   19.1363   24.4529 C   0  0  0  0  0  0  0  0  0  0  0  0
   20.4530   19.1141   25.5234 H   0  0  0  0  0  0  0  0  0  0  0  0
   20.6445   20.5479   23.9718 C   0  0  0  0  0  0  0  0  0  0  0  0
   20.0317   21.2789   24.5149 H   0  0  0  0  0  0  0  0  0  0  0  0
   21.6672   20.7208   24.3311 H   0  0  0  0  0  0  0  0  0  0  0  0
   20.6017   20.9318   22.4606 C   0  0  0  0  0  0  0  0  0  0  0  0
   21.5646   20.7202   21.9834 H   0  0  0  0  0  0  0  0  0  0  0  0
   20.5258   22.0264   22.4110 H   0  0  0  0  0  0  0  0  0  0  0  0
   19.4636   20.3484   21.5871 C   0  0  0  0  0  0  0  0  0  0  0  0
   18.4917   20.6207   22.0198 H   0  0  0  0  0  0  0  0  0  0  0  0
   19.5078   20.8619   20.6171 H   0  0  0  0  0  0  0  0  0  0  0  0
   18.7861   19.0149   24.3891 O   0  0  0  0  0  0  0  0  0  0  0  0
   18.4208   19.8843   24.6478 H   0  0  0  0  0  0  0  0  0  0  0  0
  1  2  1  0  0  0  0
  1  3  1  0  0  0  0
  1  4  1  0  0  0  0
  4  5  1  0  0  0  0
  4  6  1  0  0  0  0
  4  7  1  0  0  0  0
  7  8  1  0  0  0  0
  7  9  1  0  0  0  0
  7 10  1  0  0  0  0
 10 11  1  0  0  0  0
 10 12  1  0  0  0  0
 10 13  1  0  0  0  0
 13 14  1  0  0  0  0
 13 15  1  0  0  0  0
 15 16  1  0  0  0  0
 15 17  1  0  0  0  0
 15 18  1  0  0  0  0
 18 19  1  0  0  0  0
 18 20  1  0  0  0  0
  1 21  1  0  0  0  0
 18 21  1  0  0  0  0
 21 22  1  0  0  0  0
 21 23  1  0  0  0  0
 13 24  1  0  0  0  0
 24 25  1  0  0  0  0
M  END
> <VM2 Rank>
121

> <Conf_Id>
1486

> <Probability>
0.00

> <Sum Probability>
100.00

> <Delta G>
8.876

> <G>
70.951

> <E>
38.323

> <-TS>
32.628

> <U+W>
17.756

> <U>
19.520

> <W>
-1.765

> <W(PB)>
-3.862

> <W(SA)>
2.098

> <Valence>
21.920

> <Coulomb>
-6.404

> <VdW>
4.004

> <VdW6>
-14.821

> <VdW12>
18.826

> <Bond>
0.770

> <Angle>
10.565

> <Pdih>
10.585

> <Idih>
0.000

> <Tether>
0.000

$$$$
VeraChem MOL file


 25 25  0  0  0  0  0  0  0  0999 V2000     
   19.4588   18.9583   21.2913 C   0  0  0  0  0  0  0  0  0  0  0  0
   18.6321   18.9446   22.0084 H   0  0  0  0  0  0  0  0  0  0  0  0
   18.9761   18.7388   20.3295 H   0  0  0  0  0  0  0  0  0  0  0  0
   20.4514   17.7994   21.5864 C   0  0  0  0  0  0  0  0  0  0  0  0
   19.8982   16.9501   22.0089 H   0  0  0  0  0  0  0  0  0  0  0  0
   20.8402   17.4465   20.6217 H   0  0  0  0  0  0  0  0  0  0  0  0
   21.6764   18.1160   22.4798 C   0  0  0  0  0  0  0  0  0  0  0  0
   22.2640   18.9139   22.0133 H   0  0  0  0  0  0  0  0  0  0  0  0
   22.3464   17.2465   22.4388 H   0  0  0  0  0  0  0  0  0  0  0  0
   21.4303   18.4285   23.9880 C   0  0  0  0  0  0  0  0  0  0  0  0
   21.4481   17.4739   24.5295 H   0  0  0  0  0  0  0  0  0  0  0  0
   22.3046   18.9767   24.3621 H   0  0  0  0  0  0  0  0  0  0  0  0
   20.1559   19.1909   24.4508 C   0  0  0  0  0  0  0  0  0  0  0  0
   20.3120   19.3714   25.5243 H   0  0  0  0  0  0  0  0  0  0  0  0
   19.8545   20.5964   23.8454 C   0  0  0  0  0  0  0  0  0  0  0  0
   18.7707   20.7185   23.7196 H   0  0  0  0  0  0  0  0  0  0  0  0
   20.1344   21.3321   24.6102 H   0  0  0  0  0  0  0  0  0  0  0  0
   20.5751   21.0193   22.5363 C   0  0  0  0  0  0  0  0  0  0  0  0
   21.6542   20.8650   22.6425 H   0  0  0  0  0  0  0  0  0  0  0  0
   20.4748   22.1086   22.4364 H   0  0  0  0  0  0  0  0  0  0  0  0
   20.0449   20.3918   21.2144 C   0  0  0  0  0  0  0  0  0  0  0  0
   19.2452   21.0444   20.8385 H   0  0  0  0  0  0  0  0  0  0  0  0
   20.8352   20.4266   20.4525 H   0  0  0  0  0  0  0  0  0  0  0  0
   19.0165   18.3423   24.3677 O   0  0  0  0  0  0  0  0  0  0  0  0
   19.3157   17.4489   24.6295 H   0  0  0  0  0  0  0  0  0  0  0  0
  1  2  1  0  0  0  0
  1  3  1  0  0  0  0
  1  4  1  0  0  0  0
  4  5  1  0  0  0  0
  4  6  1  0  0  0  0
  4  7  1  0  0  0  0
  7  8  1  0  0  0  0
  7  9  1  0  0  0  0
  7 10  1  0  0  0  0
 10 11  1  0  0  0  0
 10 12  1  0  0  0  0
 10 13  1  0  0  0  0
 13 14  1  0  0  0  0
 13 15  1  0  0  0  0
 15 16  1  0  0  0  0
 15 17  1  0  0  0  0
 15 18  1  0  0  0  0
 18 19  1  0  0  0  0
 18 20  1  0  0  0  0
  1 21  1  0  0  0  0
 18 21  1  0  0  0  0
 21 22  1  0  0  0  0
 21 23  1  0  0  0  0
 13 24  1  0  0  0  0
 24 25  1  0  0  0  0
M  END
> <VM2 Rank>
122

> <Conf_Id>
974

> <Probability>
0.00

> <Sum Probability>
100.00

> <Delta G>
8.929

> <G>
71.004

> <E>
38.376

> <-TS>
32.627

> <U+W>
17.809

> <U>
19.521

> <W>
-1.712

> <W(PB)>
-3.813

> <W(SA)>
2.102

> <Valence>
21.920

> <Coulomb>
-6.404

> <VdW>
4.004

> <VdW6>
-14.821

> <VdW12>
18.825

> <Bond>
0.770

> <Angle>
10.566

> <Pdih>
10.584

> <Idih>
0.000

> <Tether>
0.000

$$$$
VeraChem MOL file


 25 25  0  0  0  0  0  0  0  0999 V2000     
   19.4840   18.8201   21.3056 C   0  0  0  0  0  0  0  0  0  0  0  0
   18.8667   18.2935   22.0399 H   0  0  0  0  0  0  0  0  0  0  0  0
   18.9610   18.6540   20.3542 H   0  0  0  0  0  0  0  0  0  0  0  0
   20.8710   18.1331   21.2142 C   0  0  0  0  0  0  0  0  0  0  0  0
   20.6984   17.1104   20.8525 H   0  0  0  0  0  0  0  0  0  0  0  0
   21.4740   18.6220   20.4373 H   0  0  0  0  0  0  0  0  0  0  0  0
   21.7042   18.0296   22.5245 C   0  0  0  0  0  0  0  0  0  0  0  0
   22.4106   18.8618   22.6128 H   0  0  0  0  0  0  0  0  0  0  0  0
   22.3509   17.1474   22.4235 H   0  0  0  0  0  0  0  0  0  0  0  0
   20.9035   17.8801   23.8459 C   0  0  0  0  0  0  0  0  0  0  0  0
   20.1771   17.0646   23.7356 H   0  0  0  0  0  0  0  0  0  0  0  0
   21.6144   17.5232   24.6025 H   0  0  0  0  0  0  0  0  0  0  0  0
   20.2059   19.1372   24.4533 C   0  0  0  0  0  0  0  0  0  0  0  0
   20.4679   19.1176   25.5211 H   0  0  0  0  0  0  0  0  0  0  0  0
   20.6363   20.5516   23.9695 C   0  0  0  0  0  0  0  0  0  0  0  0
   19.9978   21.2701   24.5000 H   0  0  0  0  0  0  0  0  0  0  0  0
   21.6499   20.7443   24.3434 H   0  0  0  0  0  0  0  0  0  0  0  0
   20.6049   20.9304   22.4566 C   0  0  0  0  0  0  0  0  0  0  0  0
   21.5688   20.7158   21.9835 H   0  0  0  0  0  0  0  0  0  0  0  0
   20.5313   22.0251   22.4043 H   0  0  0  0  0  0  0  0  0  0  0  0
   19.4658   20.3487   21.5837 C   0  0  0  0  0  0  0  0  0  0  0  0
   18.4960   20.6221   22.0212 H   0  0  0  0  0  0  0  0  0  0  0  0
   19.5084   20.8614   20.6133 H   0  0  0  0  0  0  0  0  0  0  0  0
   18.7883   19.0122   24.4067 O   0  0  0  0  0  0  0  0  0  0  0  0
   18.5689   18.1411   24.7941 H   0  0  0  0  0  0  0  0  0  0  0  0
  1  2  1  0  0  0  0
  1  3  1  0  0  0  0
  1  4  1  0  0  0  0
  4  5  1  0  0  0  0
  4  6  1  0  0  0  0
  4  7  1  0  0  0  0
  7  8  1  0  0  0  0
  7  9  1  0  0  0  0
  7 10  1  0  0  0  0
 10 11  1  0  0  0  0
 10 12  1  0  0  0  0
 10 13  1  0  0  0  0
 13 14  1  0  0  0  0
 13 15  1  0  0  0  0
 15 16  1  0  0  0  0
 15 17  1  0  0  0  0
 15 18  1  0  0  0  0
 18 19  1  0  0  0  0
 18 20  1  0  0  0  0
  1 21  1  0  0  0  0
 18 21  1  0  0  0  0
 21 22  1  0  0  0  0
 21 23  1  0  0  0  0
 13 24  1  0  0  0  0
 24 25  1  0  0  0  0
M  END
> <VM2 Rank>
123

> <Conf_Id>
1294

> <Probability>
0.00

> <Sum Probability>
100.00

> <Delta G>
9.432

> <G>
71.508

> <E>
38.704

> <-TS>
32.803

> <U+W>
18.137

> <U>
20.127

> <W>
-1.991

> <W(PB)>
-4.096

> <W(SA)>
2.106

> <Valence>
21.806

> <Coulomb>
-5.640

> <VdW>
3.961

> <VdW6>
-14.712

> <VdW12>
18.673

> <Bond>
0.774

> <Angle>
10.671

> <Pdih>
10.361

> <Idih>
0.000

> <Tether>
0.000

$$$$
VeraChem MOL file


 25 25  0  0  0  0  0  0  0  0999 V2000     
   21.4993   19.5745   21.5793 C   0  0  0  0  0  0  0  0  0  0  0  0
   22.2095   19.8700   20.7954 H   0  0  0  0  0  0  0  0  0  0  0  0
   22.1157   19.5097   22.4811 H   0  0  0  0  0  0  0  0  0  0  0  0
   20.9572   18.1654   21.2259 C   0  0  0  0  0  0  0  0  0  0  0  0
   21.8283   17.5333   21.0060 H   0  0  0  0  0  0  0  0  0  0  0  0
   20.3855   18.2145   20.2895 H   0  0  0  0  0  0  0  0  0  0  0  0
   20.1118   17.4336   22.3082 C   0  0  0  0  0  0  0  0  0  0  0  0
   20.2359   16.3557   22.1363 H   0  0  0  0  0  0  0  0  0  0  0  0
   19.0403   17.6002   22.1551 H   0  0  0  0  0  0  0  0  0  0  0  0
   20.4801   17.7216   23.7885 C   0  0  0  0  0  0  0  0  0  0  0  0
   20.0170   16.9253   24.3855 H   0  0  0  0  0  0  0  0  0  0  0  0
   21.5605   17.5824   23.9235 H   0  0  0  0  0  0  0  0  0  0  0  0
   20.0321   19.0721   24.4297 C   0  0  0  0  0  0  0  0  0  0  0  0
   19.6042   18.7943   25.4038 H   0  0  0  0  0  0  0  0  0  0  0  0
   18.9189   19.9088   23.7362 C   0  0  0  0  0  0  0  0  0  0  0  0
   17.9707   19.3670   23.8437 H   0  0  0  0  0  0  0  0  0  0  0  0
   18.7940   20.8195   24.3366 H   0  0  0  0  0  0  0  0  0  0  0  0
   19.0516   20.3490   22.2457 C   0  0  0  0  0  0  0  0  0  0  0  0
   18.4100   21.2310   22.1163 H   0  0  0  0  0  0  0  0  0  0  0  0
   18.6012   19.6050   21.5805 H   0  0  0  0  0  0  0  0  0  0  0  0
   20.4595   20.7206   21.7187 C   0  0  0  0  0  0  0  0  0  0  0  0
   20.3248   21.1670   20.7242 H   0  0  0  0  0  0  0  0  0  0  0  0
   20.8846   21.5162   22.3455 H   0  0  0  0  0  0  0  0  0  0  0  0
   21.1534   19.8975   24.7279 O   0  0  0  0  0  0  0  0  0  0  0  0
   21.7849   19.3448   25.2307 H   0  0  0  0  0  0  0  0  0  0  0  0
  1  2  1  0  0  0  0
  1  3  1  0  0  0  0
  1  4  1  0  0  0  0
  4  5  1  0  0  0  0
  4  6  1  0  0  0  0
  4  7  1  0  0  0  0
  7  8  1  0  0  0  0
  7  9  1  0  0  0  0
  7 10  1  0  0  0  0
 10 11  1  0  0  0  0
 10 12  1  0  0  0  0
 10 13  1  0  0  0  0
 13 14  1  0  0  0  0
 13 15  1  0  0  0  0
 15 16  1  0  0  0  0
 15 17  1  0  0  0  0
 15 18  1  0  0  0  0
 18 19  1  0  0  0  0
 18 20  1  0  0  0  0
  1 21  1  0  0  0  0
 18 21  1  0  0  0  0
 21 22  1  0  0  0  0
 21 23  1  0  0  0  0
 13 24  1  0  0  0  0
 24 25  1  0  0  0  0
M  END
> <VM2 Rank>
124

> <Conf_Id>
1602

> <Probability>
0.00

> <Sum Probability>
100.00

> <Delta G>
9.476

> <G>
71.551

> <E>
38.748

> <-TS>
32.803

> <U+W>
18.181

> <U>
20.127

> <W>
-1.947

> <W(PB)>
-4.073

> <W(SA)>
2.126

> <Valence>
21.806

> <Coulomb>
-5.640

> <VdW>
3.961

> <VdW6>
-14.712

> <VdW12>
18.673

> <Bond>
0.774

> <Angle>
10.672

> <Pdih>
10.361

> <Idih>
0.000

> <Tether>
0.000

$$$$
